MODEL 1
REMARK VINA RESULT:      -8.7      0.000      0.000
REMARK  5 active torsions:
REMARK  status: ('A' for Active; 'I' for Inactive)
REMARK    1  A    between atoms: O_2  and  C_3 
REMARK    2  A    between atoms: C_7  and  C_9 
REMARK    3  A    between atoms: C_9  and  N_11 
REMARK       I    between atoms: N_11  and  C_12 
REMARK    4  A    between atoms: C_12  and  C_14 
REMARK    5  A    between atoms: C_17  and  C_20 
ROOT
HETATM    1  N   UNL     1     -42.170  57.427 -55.499  1.00  0.00    -0.349 N 
HETATM    2  C   UNL     1     -41.435  57.279 -54.345  1.00  0.00     0.252 C 
HETATM    3  O   UNL     1     -41.065  58.205 -53.635  1.00  0.00    -0.268 OA
HETATM    4  H   UNL     1     -42.247  56.638 -56.127  1.00  0.00     0.163 HD
ENDROOT
BRANCH   2   5
HETATM    5  C   UNL     1     -41.055  55.881 -54.018  1.00  0.00     0.032 A 
HETATM    6  C   UNL     1     -40.443  55.102 -55.001  1.00  0.00     0.018 A 
HETATM    7  C   UNL     1     -40.114  53.769 -54.729  1.00  0.00     0.013 A 
HETATM    8  C   UNL     1     -40.368  53.194 -53.470  1.00  0.00    -0.023 A 
HETATM    9  C   UNL     1     -40.955  54.011 -52.486  1.00  0.00     0.013 A 
HETATM   10  C   UNL     1     -41.299  55.341 -52.753  1.00  0.00     0.018 A 
BRANCH   8  11
HETATM   11  C   UNL     1     -40.029  51.784 -53.189  1.00  0.00     0.016 A 
HETATM   12  C   UNL     1     -39.999  50.826 -54.215  1.00  0.00     0.034 A 
HETATM   13  C   UNL     1     -39.682  49.508 -53.913  1.00  0.00     0.117 A 
HETATM   14  N   UNL     1     -39.389  49.070 -52.671  1.00  0.00    -0.270 NA
HETATM   15  C   UNL     1     -39.418  50.000 -51.689  1.00  0.00     0.159 A 
HETATM   16  C   UNL     1     -39.726  51.335 -51.898  1.00  0.00     0.144 A 
HETATM   17  F   UNL     1     -39.735  52.171 -50.850  1.00  0.00    -0.204 F 
ENDBRANCH   8  11
ENDBRANCH   2   5
BRANCH   1  18
HETATM   18  C   UNL     1     -42.559  58.735 -56.003  1.00  0.00     0.114 C 
HETATM   19  C   UNL     1     -43.949  59.133 -55.501  1.00  0.00     0.037 C 
BRANCH  18  20
HETATM   20  C   UNL     1     -42.488  58.744 -57.521  1.00  0.00    -0.033 A 
HETATM   21  C   UNL     1     -42.129  59.920 -58.194  1.00  0.00     0.009 A 
HETATM   22  C   UNL     1     -42.040  59.941 -59.585  1.00  0.00     0.003 A 
HETATM   23  C   UNL     1     -42.300  58.782 -60.315  1.00  0.00     0.037 A 
HETATM   24  C   UNL     1     -42.645  57.595 -59.667  1.00  0.00     0.068 A 
HETATM   25  C   UNL     1     -42.750  57.583 -58.275  1.00  0.00     0.046 A 
BRANCH  24  26
HETATM   26  O   UNL     1     -42.856  56.530 -60.499  1.00  0.00    -0.356 OA
HETATM   27  C   UNL     1     -43.732  55.513 -60.030  1.00  0.00     0.210 C 
ENDBRANCH  24  26
ENDBRANCH  18  20
ENDBRANCH   1  18
TORSDOF 5
ENDMDL
MODEL 2
REMARK VINA RESULT:      -8.6      2.325      3.015
REMARK  5 active torsions:
REMARK  status: ('A' for Active; 'I' for Inactive)
REMARK    1  A    between atoms: O_2  and  C_3 
REMARK    2  A    between atoms: C_7  and  C_9 
REMARK    3  A    between atoms: C_9  and  N_11 
REMARK       I    between atoms: N_11  and  C_12 
REMARK    4  A    between atoms: C_12  and  C_14 
REMARK    5  A    between atoms: C_17  and  C_20 
ROOT
HETATM    1  N   UNL     1     -43.788  56.591 -56.907  1.00  0.00    -0.349 N 
HETATM    2  C   UNL     1     -42.655  56.805 -56.155  1.00  0.00     0.252 C 
HETATM    3  O   UNL     1     -42.081  57.882 -56.059  1.00  0.00    -0.268 OA
HETATM    4  H   UNL     1     -44.067  55.638 -57.098  1.00  0.00     0.163 HD
ENDROOT
BRANCH   2   5
HETATM    5  C   UNL     1     -42.115  55.600 -55.478  1.00  0.00     0.032 A 
HETATM    6  C   UNL     1     -40.782  55.601 -55.062  1.00  0.00     0.018 A 
HETATM    7  C   UNL     1     -40.239  54.462 -54.458  1.00  0.00     0.013 A 
HETATM    8  C   UNL     1     -41.016  53.309 -54.237  1.00  0.00    -0.023 A 
HETATM    9  C   UNL     1     -42.366  53.346 -54.635  1.00  0.00     0.013 A 
HETATM   10  C   UNL     1     -42.913  54.476 -55.252  1.00  0.00     0.018 A 
BRANCH   8  11
HETATM   11  C   UNL     1     -40.438  52.104 -53.610  1.00  0.00     0.016 A 
HETATM   12  C   UNL     1     -40.310  50.902 -54.324  1.00  0.00     0.034 A 
HETATM   13  C   UNL     1     -39.765  49.787 -53.699  1.00  0.00     0.117 A 
HETATM   14  N   UNL     1     -39.336  49.777 -52.420  1.00  0.00    -0.270 NA
HETATM   15  C   UNL     1     -39.461  50.939 -51.739  1.00  0.00     0.159 A 
HETATM   16  C   UNL     1     -39.993  52.098 -52.282  1.00  0.00     0.144 A 
HETATM   17  F   UNL     1     -40.080  53.194 -51.514  1.00  0.00    -0.204 F 
ENDBRANCH   8  11
ENDBRANCH   2   5
BRANCH   1  18
HETATM   18  C   UNL     1     -44.402  57.648 -57.695  1.00  0.00     0.114 C 
HETATM   19  C   UNL     1     -45.398  58.457 -56.861  1.00  0.00     0.037 C 
BRANCH  18  20
HETATM   20  C   UNL     1     -45.059  57.055 -58.931  1.00  0.00    -0.033 A 
HETATM   21  C   UNL     1     -44.565  55.861 -59.476  1.00  0.00     0.009 A 
HETATM   22  C   UNL     1     -45.167  55.293 -60.598  1.00  0.00     0.003 A 
HETATM   23  C   UNL     1     -46.276  55.908 -61.178  1.00  0.00     0.037 A 
HETATM   24  C   UNL     1     -46.794  57.089 -60.645  1.00  0.00     0.068 A 
HETATM   25  C   UNL     1     -46.178  57.665 -59.532  1.00  0.00     0.046 A 
BRANCH  24  26
HETATM   26  O   UNL     1     -47.892  57.577 -61.298  1.00  0.00    -0.356 OA
HETATM   27  C   UNL     1     -48.460  56.750 -62.306  1.00  0.00     0.210 C 
ENDBRANCH  24  26
ENDBRANCH  18  20
ENDBRANCH   1  18
TORSDOF 5
ENDMDL
MODEL 3
REMARK VINA RESULT:      -8.6      1.618      1.980
REMARK  5 active torsions:
REMARK  status: ('A' for Active; 'I' for Inactive)
REMARK    1  A    between atoms: O_2  and  C_3 
REMARK    2  A    between atoms: C_7  and  C_9 
REMARK    3  A    between atoms: C_9  and  N_11 
REMARK       I    between atoms: N_11  and  C_12 
REMARK    4  A    between atoms: C_12  and  C_14 
REMARK    5  A    between atoms: C_17  and  C_20 
ROOT
HETATM    1  N   UNL     1     -43.548  57.011 -55.512  1.00  0.00    -0.349 N 
HETATM    2  C   UNL     1     -42.360  57.045 -54.817  1.00  0.00     0.252 C 
HETATM    3  O   UNL     1     -41.739  58.067 -54.557  1.00  0.00    -0.268 OA
HETATM    4  H   UNL     1     -43.876  56.121 -55.862  1.00  0.00     0.163 HD
ENDROOT
BRANCH   2   5
HETATM    5  C   UNL     1     -41.824  55.718 -54.425  1.00  0.00     0.032 A 
HETATM    6  C   UNL     1     -40.688  55.231 -55.075  1.00  0.00     0.018 A 
HETATM    7  C   UNL     1     -40.188  53.965 -54.752  1.00  0.00     0.013 A 
HETATM    8  C   UNL     1     -40.796  53.168 -53.762  1.00  0.00    -0.023 A 
HETATM    9  C   UNL     1     -41.919  53.696 -53.099  1.00  0.00     0.013 A 
HETATM   10  C   UNL     1     -42.433  54.956 -53.425  1.00  0.00     0.018 A 
BRANCH   8  11
HETATM   11  C   UNL     1     -40.273  51.828 -53.431  1.00  0.00     0.016 A 
HETATM   12  C   UNL     1     -40.212  50.812 -54.398  1.00  0.00     0.034 A 
HETATM   13  C   UNL     1     -39.718  49.561 -54.049  1.00  0.00     0.117 A 
HETATM   14  N   UNL     1     -39.279  49.244 -52.813  1.00  0.00    -0.270 NA
HETATM   15  C   UNL     1     -39.339  50.229 -51.888  1.00  0.00     0.159 A 
HETATM   16  C   UNL     1     -39.817  51.504 -52.147  1.00  0.00     0.144 A 
HETATM   17  F   UNL     1     -39.842  52.403 -51.152  1.00  0.00    -0.204 F 
ENDBRANCH   8  11
ENDBRANCH   2   5
BRANCH   1  18
HETATM   18  C   UNL     1     -44.171  58.216 -56.034  1.00  0.00     0.114 C 
HETATM   19  C   UNL     1     -45.090  58.863 -54.995  1.00  0.00     0.037 C 
BRANCH  18  20
HETATM   20  C   UNL     1     -44.917  57.895 -57.319  1.00  0.00    -0.033 A 
HETATM   21  C   UNL     1     -46.252  58.297 -57.468  1.00  0.00     0.009 A 
HETATM   22  C   UNL     1     -46.945  58.028 -58.646  1.00  0.00     0.003 A 
HETATM   23  C   UNL     1     -46.307  57.363 -59.692  1.00  0.00     0.037 A 
HETATM   24  C   UNL     1     -44.974  56.965 -59.573  1.00  0.00     0.068 A 
HETATM   25  C   UNL     1     -44.288  57.220 -58.384  1.00  0.00     0.046 A 
BRANCH  24  26
HETATM   26  O   UNL     1     -44.464  56.338 -60.677  1.00  0.00    -0.356 OA
HETATM   27  C   UNL     1     -45.054  55.095 -61.039  1.00  0.00     0.210 C 
ENDBRANCH  24  26
ENDBRANCH  18  20
ENDBRANCH   1  18
TORSDOF 5
ENDMDL
MODEL 4
REMARK VINA RESULT:      -8.3      3.377      8.647
REMARK  5 active torsions:
REMARK  status: ('A' for Active; 'I' for Inactive)
REMARK    1  A    between atoms: O_2  and  C_3 
REMARK    2  A    between atoms: C_7  and  C_9 
REMARK    3  A    between atoms: C_9  and  N_11 
REMARK       I    between atoms: N_11  and  C_12 
REMARK    4  A    between atoms: C_12  and  C_14 
REMARK    5  A    between atoms: C_17  and  C_20 
ROOT
HETATM    1  N   UNL     1     -40.959  54.036 -52.103  1.00  0.00    -0.349 N 
HETATM    2  C   UNL     1     -42.256  54.227 -52.521  1.00  0.00     0.252 C 
HETATM    3  O   UNL     1     -43.246  53.911 -51.875  1.00  0.00    -0.268 OA
HETATM    4  H   UNL     1     -40.215  54.129 -52.782  1.00  0.00     0.163 HD
ENDROOT
BRANCH   2   5
HETATM    5  C   UNL     1     -42.398  54.817 -53.876  1.00  0.00     0.032 A 
HETATM    6  C   UNL     1     -43.504  55.624 -54.147  1.00  0.00     0.018 A 
HETATM    7  C   UNL     1     -43.681  56.158 -55.428  1.00  0.00     0.013 A 
HETATM    8  C   UNL     1     -42.752  55.915 -56.458  1.00  0.00    -0.023 A 
HETATM    9  C   UNL     1     -41.629  55.125 -56.150  1.00  0.00     0.013 A 
HETATM   10  C   UNL     1     -41.451  54.577 -54.875  1.00  0.00     0.018 A 
BRANCH   8  11
HETATM   11  C   UNL     1     -42.947  56.470 -57.812  1.00  0.00     0.016 A 
HETATM   12  C   UNL     1     -42.484  57.753 -58.146  1.00  0.00     0.034 A 
HETATM   13  C   UNL     1     -42.690  58.244 -59.429  1.00  0.00     0.117 A 
HETATM   14  N   UNL     1     -43.319  57.557 -60.405  1.00  0.00    -0.270 NA
HETATM   15  C   UNL     1     -43.760  56.322 -60.076  1.00  0.00     0.159 A 
HETATM   16  C   UNL     1     -43.600  55.753 -58.823  1.00  0.00     0.144 A 
HETATM   17  F   UNL     1     -44.086  54.523 -58.601  1.00  0.00    -0.204 F 
ENDBRANCH   8  11
ENDBRANCH   2   5
BRANCH   1  18
HETATM   18  C   UNL     1     -40.643  53.401 -50.834  1.00  0.00     0.114 C 
HETATM   19  C   UNL     1     -39.549  54.166 -50.086  1.00  0.00     0.037 C 
BRANCH  18  20
HETATM   20  C   UNL     1     -40.252  51.950 -51.067  1.00  0.00    -0.033 A 
HETATM   21  C   UNL     1     -40.320  51.033 -50.009  1.00  0.00     0.009 A 
HETATM   22  C   UNL     1     -39.983  49.695 -50.210  1.00  0.00     0.003 A 
HETATM   23  C   UNL     1     -39.586  49.260 -51.473  1.00  0.00     0.037 A 
HETATM   24  C   UNL     1     -39.525  50.152 -52.545  1.00  0.00     0.068 A 
HETATM   25  C   UNL     1     -39.845  51.495 -52.336  1.00  0.00     0.046 A 
BRANCH  24  26
HETATM   26  O   UNL     1     -39.138  49.593 -53.732  1.00  0.00    -0.356 OA
HETATM   27  C   UNL     1     -39.939  49.884 -54.871  1.00  0.00     0.210 C 
ENDBRANCH  24  26
ENDBRANCH  18  20
ENDBRANCH   1  18
TORSDOF 5
ENDMDL
MODEL 5
REMARK VINA RESULT:      -8.3      1.143      1.842
REMARK  5 active torsions:
REMARK  status: ('A' for Active; 'I' for Inactive)
REMARK    1  A    between atoms: O_2  and  C_3 
REMARK    2  A    between atoms: C_7  and  C_9 
REMARK    3  A    between atoms: C_9  and  N_11 
REMARK       I    between atoms: N_11  and  C_12 
REMARK    4  A    between atoms: C_12  and  C_14 
REMARK    5  A    between atoms: C_17  and  C_20 
ROOT
HETATM    1  N   UNL     1     -42.233  57.506 -55.816  1.00  0.00    -0.349 N 
HETATM    2  C   UNL     1     -41.725  57.350 -54.547  1.00  0.00     0.252 C 
HETATM    3  O   UNL     1     -41.572  58.262 -53.745  1.00  0.00    -0.268 OA
HETATM    4  H   UNL     1     -42.126  56.747 -56.476  1.00  0.00     0.163 HD
ENDROOT
BRANCH   2   5
HETATM    5  C   UNL     1     -41.307  55.967 -54.204  1.00  0.00     0.032 A 
HETATM    6  C   UNL     1     -40.547  55.245 -55.124  1.00  0.00     0.018 A 
HETATM    7  C   UNL     1     -40.176  53.926 -54.841  1.00  0.00     0.013 A 
HETATM    8  C   UNL     1     -40.538  53.308 -53.628  1.00  0.00    -0.023 A 
HETATM    9  C   UNL     1     -41.276  54.069 -52.703  1.00  0.00     0.013 A 
HETATM   10  C   UNL     1     -41.661  55.385 -52.985  1.00  0.00     0.018 A 
BRANCH   8  11
HETATM   11  C   UNL     1     -40.155  51.912 -53.336  1.00  0.00     0.016 A 
HETATM   12  C   UNL     1     -40.224  50.917 -54.325  1.00  0.00     0.034 A 
HETATM   13  C   UNL     1     -39.860  49.613 -54.012  1.00  0.00     0.117 A 
HETATM   14  N   UNL     1     -39.432  49.224 -52.794  1.00  0.00    -0.270 NA
HETATM   15  C   UNL     1     -39.367  50.188 -51.848  1.00  0.00     0.159 A 
HETATM   16  C   UNL     1     -39.710  51.513 -52.070  1.00  0.00     0.144 A 
HETATM   17  F   UNL     1     -39.617  52.386 -51.057  1.00  0.00    -0.204 F 
ENDBRANCH   8  11
ENDBRANCH   2   5
BRANCH   1  18
HETATM   18  C   UNL     1     -42.619  58.807 -56.338  1.00  0.00     0.114 C 
HETATM   19  C   UNL     1     -44.078  59.130 -56.005  1.00  0.00     0.037 C 
BRANCH  18  20
HETATM   20  C   UNL     1     -42.362  58.859 -57.835  1.00  0.00    -0.033 A 
HETATM   21  C   UNL     1     -42.363  57.673 -58.583  1.00  0.00     0.009 A 
HETATM   22  C   UNL     1     -42.147  57.704 -59.960  1.00  0.00     0.003 A 
HETATM   23  C   UNL     1     -41.941  58.923 -60.604  1.00  0.00     0.037 A 
HETATM   24  C   UNL     1     -41.950  60.118 -59.883  1.00  0.00     0.068 A 
HETATM   25  C   UNL     1     -42.147  60.082 -58.501  1.00  0.00     0.046 A 
BRANCH  24  26
HETATM   26  O   UNL     1     -41.751  61.242 -60.637  1.00  0.00    -0.356 OA
HETATM   27  C   UNL     1     -42.242  61.214 -61.972  1.00  0.00     0.210 C 
ENDBRANCH  24  26
ENDBRANCH  18  20
ENDBRANCH   1  18
TORSDOF 5
ENDMDL
MODEL 6
REMARK VINA RESULT:      -7.6      2.623      3.838
REMARK  5 active torsions:
REMARK  status: ('A' for Active; 'I' for Inactive)
REMARK    1  A    between atoms: O_2  and  C_3 
REMARK    2  A    between atoms: C_7  and  C_9 
REMARK    3  A    between atoms: C_9  and  N_11 
REMARK       I    between atoms: N_11  and  C_12 
REMARK    4  A    between atoms: C_12  and  C_14 
REMARK    5  A    between atoms: C_17  and  C_20 
ROOT
HETATM    1  N   UNL     1     -42.227  56.942 -57.630  1.00  0.00    -0.349 N 
HETATM    2  C   UNL     1     -42.765  55.765 -57.163  1.00  0.00     0.252 C 
HETATM    3  O   UNL     1     -43.557  55.070 -57.785  1.00  0.00    -0.268 OA
HETATM    4  H   UNL     1     -41.756  57.551 -56.974  1.00  0.00     0.163 HD
ENDROOT
BRANCH   2   5
HETATM    5  C   UNL     1     -42.354  55.390 -55.786  1.00  0.00     0.032 A 
HETATM    6  C   UNL     1     -42.958  54.288 -55.179  1.00  0.00     0.018 A 
HETATM    7  C   UNL     1     -42.618  53.940 -53.868  1.00  0.00     0.013 A 
HETATM    8  C   UNL     1     -41.656  54.669 -53.143  1.00  0.00    -0.023 A 
HETATM    9  C   UNL     1     -41.038  55.755 -53.789  1.00  0.00     0.013 A 
HETATM   10  C   UNL     1     -41.382  56.117 -55.096  1.00  0.00     0.018 A 
BRANCH   8  11
HETATM   11  C   UNL     1     -41.306  54.307 -51.755  1.00  0.00     0.016 A 
HETATM   12  C   UNL     1     -41.763  55.068 -50.668  1.00  0.00     0.034 A 
HETATM   13  C   UNL     1     -41.410  54.700 -49.375  1.00  0.00     0.117 A 
HETATM   14  N   UNL     1     -40.640  53.632 -49.082  1.00  0.00    -0.270 NA
HETATM   15  C   UNL     1     -40.205  52.903 -50.135  1.00  0.00     0.159 A 
HETATM   16  C   UNL     1     -40.506  53.197 -51.455  1.00  0.00     0.144 A 
HETATM   17  F   UNL     1     -40.014  52.411 -52.424  1.00  0.00    -0.204 F 
ENDBRANCH   8  11
ENDBRANCH   2   5
BRANCH   1  18
HETATM   18  C   UNL     1     -42.584  57.492 -58.928  1.00  0.00     0.114 C 
HETATM   19  C   UNL     1     -41.970  56.673 -60.067  1.00  0.00     0.037 C 
BRANCH  18  20
HETATM   20  C   UNL     1     -42.169  58.952 -59.002  1.00  0.00    -0.033 A 
HETATM   21  C   UNL     1     -41.835  59.641 -57.827  1.00  0.00     0.009 A 
HETATM   22  C   UNL     1     -41.434  60.975 -57.879  1.00  0.00     0.003 A 
HETATM   23  C   UNL     1     -41.352  61.629 -59.107  1.00  0.00     0.037 A 
HETATM   24  C   UNL     1     -41.665  60.960 -60.292  1.00  0.00     0.068 A 
HETATM   25  C   UNL     1     -42.084  59.630 -60.235  1.00  0.00     0.046 A 
BRANCH  24  26
HETATM   26  O   UNL     1     -41.526  61.712 -61.426  1.00  0.00    -0.356 OA
HETATM   27  C   UNL     1     -42.309  61.327 -62.550  1.00  0.00     0.210 C 
ENDBRANCH  24  26
ENDBRANCH  18  20
ENDBRANCH   1  18
TORSDOF 5
ENDMDL
MODEL 7
REMARK VINA RESULT:      -7.6      2.183      3.152
REMARK  5 active torsions:
REMARK  status: ('A' for Active; 'I' for Inactive)
REMARK    1  A    between atoms: O_2  and  C_3 
REMARK    2  A    between atoms: C_7  and  C_9 
REMARK    3  A    between atoms: C_9  and  N_11 
REMARK       I    between atoms: N_11  and  C_12 
REMARK    4  A    between atoms: C_12  and  C_14 
REMARK    5  A    between atoms: C_17  and  C_20 
ROOT
HETATM    1  N   UNL     1     -42.920  56.949 -58.027  1.00  0.00    -0.349 N 
HETATM    2  C   UNL     1     -43.433  56.741 -56.768  1.00  0.00     0.252 C 
HETATM    3  O   UNL     1     -44.408  57.325 -56.312  1.00  0.00    -0.268 OA
HETATM    4  H   UNL     1     -42.000  56.586 -58.239  1.00  0.00     0.163 HD
ENDROOT
BRANCH   2   5
HETATM    5  C   UNL     1     -42.683  55.766 -55.937  1.00  0.00     0.032 A 
HETATM    6  C   UNL     1     -43.219  54.491 -55.745  1.00  0.00     0.018 A 
HETATM    7  C   UNL     1     -42.550  53.569 -54.933  1.00  0.00     0.013 A 
HETATM    8  C   UNL     1     -41.327  53.889 -54.314  1.00  0.00    -0.023 A 
HETATM    9  C   UNL     1     -40.792  55.169 -54.551  1.00  0.00     0.013 A 
HETATM   10  C   UNL     1     -41.460  56.102 -55.351  1.00  0.00     0.018 A 
BRANCH   8  11
HETATM   11  C   UNL     1     -40.629  52.918 -53.448  1.00  0.00     0.016 A 
HETATM   12  C   UNL     1     -40.132  51.710 -53.964  1.00  0.00     0.034 A 
HETATM   13  C   UNL     1     -39.485  50.818 -53.119  1.00  0.00     0.117 A 
HETATM   14  N   UNL     1     -39.293  51.035 -51.801  1.00  0.00    -0.270 NA
HETATM   15  C   UNL     1     -39.773  52.201 -51.312  1.00  0.00     0.159 A 
HETATM   16  C   UNL     1     -40.431  53.148 -52.081  1.00  0.00     0.144 A 
HETATM   17  F   UNL     1     -40.877  54.267 -51.492  1.00  0.00    -0.204 F 
ENDBRANCH   8  11
ENDBRANCH   2   5
BRANCH   1  18
HETATM   18  C   UNL     1     -43.489  57.926 -58.941  1.00  0.00     0.114 C 
HETATM   19  C   UNL     1     -43.620  57.355 -60.355  1.00  0.00     0.037 C 
BRANCH  18  20
HETATM   20  C   UNL     1     -42.654  59.195 -58.925  1.00  0.00    -0.033 A 
HETATM   21  C   UNL     1     -42.143  59.677 -57.712  1.00  0.00     0.009 A 
HETATM   22  C   UNL     1     -41.359  60.829 -57.682  1.00  0.00     0.003 A 
HETATM   23  C   UNL     1     -41.069  61.505 -58.866  1.00  0.00     0.037 A 
HETATM   24  C   UNL     1     -41.555  61.037 -60.088  1.00  0.00     0.068 A 
HETATM   25  C   UNL     1     -42.355  59.893 -60.113  1.00  0.00     0.046 A 
BRANCH  24  26
HETATM   26  O   UNL     1     -41.184  61.782 -61.174  1.00  0.00    -0.356 OA
HETATM   27  C   UNL     1     -42.230  62.368 -61.938  1.00  0.00     0.210 C 
ENDBRANCH  24  26
ENDBRANCH  18  20
ENDBRANCH   1  18
TORSDOF 5
ENDMDL
MODEL 8
REMARK VINA RESULT:      -7.5      2.263      3.276
REMARK  5 active torsions:
REMARK  status: ('A' for Active; 'I' for Inactive)
REMARK    1  A    between atoms: O_2  and  C_3 
REMARK    2  A    between atoms: C_7  and  C_9 
REMARK    3  A    between atoms: C_9  and  N_11 
REMARK       I    between atoms: N_11  and  C_12 
REMARK    4  A    between atoms: C_12  and  C_14 
REMARK    5  A    between atoms: C_17  and  C_20 
ROOT
HETATM    1  N   UNL     1     -44.071  57.131 -57.053  1.00  0.00    -0.349 N 
HETATM    2  C   UNL     1     -43.776  57.399 -55.736  1.00  0.00     0.252 C 
HETATM    3  O   UNL     1     -44.063  58.440 -55.160  1.00  0.00    -0.268 OA
HETATM    4  H   UNL     1     -43.614  56.346 -57.500  1.00  0.00     0.163 HD
ENDROOT
BRANCH   2   5
HETATM    5  C   UNL     1     -43.016  56.334 -55.034  1.00  0.00     0.032 A 
HETATM    6  C   UNL     1     -43.711  55.236 -54.525  1.00  0.00     0.018 A 
HETATM    7  C   UNL     1     -43.023  54.240 -53.823  1.00  0.00     0.013 A 
HETATM    8  C   UNL     1     -41.629  54.307 -53.633  1.00  0.00    -0.023 A 
HETATM    9  C   UNL     1     -40.949  55.408 -54.185  1.00  0.00     0.013 A 
HETATM   10  C   UNL     1     -41.631  56.415 -54.877  1.00  0.00     0.018 A 
BRANCH   8  11
HETATM   11  C   UNL     1     -40.907  53.261 -52.882  1.00  0.00     0.016 A 
HETATM   12  C   UNL     1     -40.852  53.279 -51.480  1.00  0.00     0.034 A 
HETATM   13  C   UNL     1     -40.159  52.280 -50.807  1.00  0.00     0.117 A 
HETATM   14  N   UNL     1     -39.519  51.264 -51.423  1.00  0.00    -0.270 NA
HETATM   15  C   UNL     1     -39.578  51.253 -52.774  1.00  0.00     0.159 A 
HETATM   16  C   UNL     1     -40.245  52.208 -53.526  1.00  0.00     0.144 A 
HETATM   17  F   UNL     1     -40.232  52.107 -54.863  1.00  0.00    -0.204 F 
ENDBRANCH   8  11
ENDBRANCH   2   5
BRANCH   1  18
HETATM   18  C   UNL     1     -44.743  58.098 -57.906  1.00  0.00     0.114 C 
HETATM   19  C   UNL     1     -45.763  57.418 -58.822  1.00  0.00     0.037 C 
BRANCH  18  20
HETATM   20  C   UNL     1     -43.715  58.886 -58.701  1.00  0.00    -0.033 A 
HETATM   21  C   UNL     1     -43.315  58.432 -59.966  1.00  0.00     0.009 A 
HETATM   22  C   UNL     1     -42.388  59.152 -60.716  1.00  0.00     0.003 A 
HETATM   23  C   UNL     1     -41.860  60.341 -60.214  1.00  0.00     0.037 A 
HETATM   24  C   UNL     1     -42.253  60.821 -58.964  1.00  0.00     0.068 A 
HETATM   25  C   UNL     1     -43.168  60.087 -58.207  1.00  0.00     0.046 A 
BRANCH  24  26
HETATM   26  O   UNL     1     -41.672  62.004 -58.598  1.00  0.00    -0.356 OA
HETATM   27  C   UNL     1     -40.483  62.376 -59.285  1.00  0.00     0.210 C 
ENDBRANCH  24  26
ENDBRANCH  18  20
ENDBRANCH   1  18
TORSDOF 5
ENDMDL
MODEL 9
REMARK VINA RESULT:      -7.5      4.602      9.094
REMARK  5 active torsions:
REMARK  status: ('A' for Active; 'I' for Inactive)
REMARK    1  A    between atoms: O_2  and  C_3 
REMARK    2  A    between atoms: C_7  and  C_9 
REMARK    3  A    between atoms: C_9  and  N_11 
REMARK       I    between atoms: N_11  and  C_12 
REMARK    4  A    between atoms: C_12  and  C_14 
REMARK    5  A    between atoms: C_17  and  C_20 
ROOT
HETATM    1  N   UNL     1     -42.335  55.837 -53.695  1.00  0.00    -0.349 N 
HETATM    2  C   UNL     1     -42.311  57.150 -54.105  1.00  0.00     0.252 C 
HETATM    3  O   UNL     1     -41.924  57.525 -55.204  1.00  0.00    -0.268 OA
HETATM    4  H   UNL     1     -42.465  55.641 -52.711  1.00  0.00     0.163 HD
ENDROOT
BRANCH   2   5
HETATM    5  C   UNL     1     -42.750  58.135 -53.084  1.00  0.00     0.032 A 
HETATM    6  C   UNL     1     -44.034  58.674 -53.177  1.00  0.00     0.018 A 
HETATM    7  C   UNL     1     -44.455  59.634 -52.251  1.00  0.00     0.013 A 
HETATM    8  C   UNL     1     -43.616  60.060 -51.203  1.00  0.00    -0.023 A 
HETATM    9  C   UNL     1     -42.339  59.476 -51.113  1.00  0.00     0.013 A 
HETATM   10  C   UNL     1     -41.905  58.525 -52.043  1.00  0.00     0.018 A 
BRANCH   8  11
HETATM   11  C   UNL     1     -44.059  61.082 -50.234  1.00  0.00     0.016 A 
HETATM   12  C   UNL     1     -43.477  62.359 -50.206  1.00  0.00     0.034 A 
HETATM   13  C   UNL     1     -43.916  63.293 -49.276  1.00  0.00     0.117 A 
HETATM   14  N   UNL     1     -44.891  63.055 -48.375  1.00  0.00    -0.270 NA
HETATM   15  C   UNL     1     -45.448  61.823 -48.409  1.00  0.00     0.159 A 
HETATM   16  C   UNL     1     -45.072  60.830 -49.300  1.00  0.00     0.144 A 
HETATM   17  F   UNL     1     -45.684  59.639 -49.240  1.00  0.00    -0.204 F 
ENDBRANCH   8  11
ENDBRANCH   2   5
BRANCH   1  18
HETATM   18  C   UNL     1     -41.866  54.754 -54.545  1.00  0.00     0.114 C 
HETATM   19  C   UNL     1     -43.024  54.105 -55.307  1.00  0.00     0.037 C 
BRANCH  18  20
HETATM   20  C   UNL     1     -41.105  53.737 -53.711  1.00  0.00    -0.033 A 
HETATM   21  C   UNL     1     -40.468  52.657 -54.340  1.00  0.00     0.009 A 
HETATM   22  C   UNL     1     -39.750  51.726 -53.592  1.00  0.00     0.003 A 
HETATM   23  C   UNL     1     -39.652  51.871 -52.209  1.00  0.00     0.037 A 
HETATM   24  C   UNL     1     -40.265  52.945 -51.562  1.00  0.00     0.068 A 
HETATM   25  C   UNL     1     -40.999  53.866 -52.312  1.00  0.00     0.046 A 
BRANCH  24  26
HETATM   26  O   UNL     1     -40.077  52.978 -50.208  1.00  0.00    -0.356 OA
HETATM   27  C   UNL     1     -39.744  54.238 -49.637  1.00  0.00     0.210 C 
ENDBRANCH  24  26
ENDBRANCH  18  20
ENDBRANCH   1  18
TORSDOF 5
ENDMDL
MODEL 10
REMARK VINA RESULT:      -7.4      1.533      2.422
REMARK  5 active torsions:
REMARK  status: ('A' for Active; 'I' for Inactive)
REMARK    1  A    between atoms: O_2  and  C_3 
REMARK    2  A    between atoms: C_7  and  C_9 
REMARK    3  A    between atoms: C_9  and  N_11 
REMARK       I    between atoms: N_11  and  C_12 
REMARK    4  A    between atoms: C_12  and  C_14 
REMARK    5  A    between atoms: C_17  and  C_20 
ROOT
HETATM    1  N   UNL     1     -42.246  57.749 -55.175  1.00  0.00    -0.349 N 
HETATM    2  C   UNL     1     -41.362  57.564 -54.137  1.00  0.00     0.252 C 
HETATM    3  O   UNL     1     -40.812  58.471 -53.525  1.00  0.00    -0.268 OA
HETATM    4  H   UNL     1     -42.483  56.955 -55.754  1.00  0.00     0.163 HD
ENDROOT
BRANCH   2   5
HETATM    5  C   UNL     1     -41.060  56.147 -53.815  1.00  0.00     0.032 A 
HETATM    6  C   UNL     1     -41.315  55.680 -52.524  1.00  0.00     0.018 A 
HETATM    7  C   UNL     1     -41.001  54.359 -52.185  1.00  0.00     0.013 A 
HETATM    8  C   UNL     1     -40.447  53.473 -53.129  1.00  0.00    -0.023 A 
HETATM    9  C   UNL     1     -40.231  53.959 -54.432  1.00  0.00     0.013 A 
HETATM   10  C   UNL     1     -40.531  55.282 -54.775  1.00  0.00     0.018 A 
BRANCH   8  11
HETATM   11  C   UNL     1     -40.106  52.083 -52.766  1.00  0.00     0.016 A 
HETATM   12  C   UNL     1     -39.866  51.718 -51.431  1.00  0.00     0.034 A 
HETATM   13  C   UNL     1     -39.542  50.402 -51.127  1.00  0.00     0.117 A 
HETATM   14  N   UNL     1     -39.442  49.421 -52.048  1.00  0.00    -0.270 NA
HETATM   15  C   UNL     1     -39.676  49.780 -53.331  1.00  0.00     0.159 A 
HETATM   16  C   UNL     1     -40.003  51.068 -53.725  1.00  0.00     0.144 A 
HETATM   17  F   UNL     1     -40.206  51.317 -55.027  1.00  0.00    -0.204 F 
ENDBRANCH   8  11
ENDBRANCH   2   5
BRANCH   1  18
HETATM   18  C   UNL     1     -42.591  59.073 -55.668  1.00  0.00     0.114 C 
HETATM   19  C   UNL     1     -43.883  59.586 -55.026  1.00  0.00     0.037 C 
BRANCH  18  20
HETATM   20  C   UNL     1     -42.691  59.050 -57.184  1.00  0.00    -0.033 A 
HETATM   21  C   UNL     1     -41.988  58.080 -57.913  1.00  0.00     0.009 A 
HETATM   22  C   UNL     1     -42.083  58.033 -59.302  1.00  0.00     0.003 A 
HETATM   23  C   UNL     1     -42.890  58.948 -59.976  1.00  0.00     0.037 A 
HETATM   24  C   UNL     1     -43.611  59.914 -59.272  1.00  0.00     0.068 A 
HETATM   25  C   UNL     1     -43.499  59.970 -57.881  1.00  0.00     0.046 A 
BRANCH  24  26
HETATM   26  O   UNL     1     -44.376  60.738 -60.051  1.00  0.00    -0.356 OA
HETATM   27  C   UNL     1     -44.678  62.023 -59.522  1.00  0.00     0.210 C 
ENDBRANCH  24  26
ENDBRANCH  18  20
ENDBRANCH   1  18
TORSDOF 5
ENDMDL
