MODEL 1
REMARK VINA RESULT:      -9.4      0.000      0.000
REMARK  2 active torsions:
REMARK  status: ('A' for Active; 'I' for Inactive)
REMARK    1  A    between atoms: C_3  and  C_4 
REMARK    2  A    between atoms: C_11  and  C_12 
REMARK       I    between atoms: C_12  and  N_13 
ROOT
HETATM    1  C   UNL     1     -42.754  57.364 -56.586  1.00  0.00     0.256 C 
HETATM    2  N   UNL     1     -42.457  56.325 -55.693  1.00  0.00    -0.348 N 
HETATM    3  C   UNL     1     -43.330  55.179 -55.453  1.00  0.00     0.128 C 
HETATM    4  C   UNL     1     -42.569  53.932 -55.017  1.00  0.00     0.055 C 
HETATM    5  C   UNL     1     -41.591  54.203 -53.862  1.00  0.00     0.100 C 
HETATM    6  N   UNL     1     -42.365  54.555 -52.631  1.00  0.00    -0.273 NA
HETATM    7  C   UNL     1     -41.567  54.540 -51.457  1.00  0.00     0.036 A 
HETATM    8  C   UNL     1     -40.475  53.664 -51.319  1.00  0.00     0.056 A 
HETATM    9  N   UNL     1     -40.109  52.848 -52.394  1.00  0.00    -0.324 N 
HETATM   10  C   UNL     1     -40.703  52.946 -53.630  1.00  0.00     0.245 C 
HETATM   11  O   UNL     1     -40.448  52.117 -54.502  1.00  0.00    -0.271 OA
HETATM   12  C   UNL     1     -41.978  55.286 -50.349  1.00  0.00     0.026 A 
HETATM   13  C   UNL     1     -41.271  55.211 -49.147  1.00  0.00     0.002 A 
HETATM   14  C   UNL     1     -40.172  54.358 -49.031  1.00  0.00     0.002 A 
HETATM   15  C   UNL     1     -39.779  53.572 -50.115  1.00  0.00     0.031 A 
HETATM   16  C   UNL     1     -40.673  55.375 -54.263  1.00  0.00     0.055 C 
HETATM   17  C   UNL     1     -41.472  56.609 -54.656  1.00  0.00     0.128 C 
HETATM   18  O   UNL     1     -42.088  58.396 -56.638  1.00  0.00    -0.267 OA
HETATM   19  H   UNL     1     -43.101  53.862 -52.478  1.00  0.00     0.129 HD
HETATM   20  H   UNL     1     -39.436  52.104 -52.270  1.00  0.00     0.169 HD
ENDROOT
BRANCH   1  21
HETATM   21  C   UNL     1     -43.858  57.170 -57.530  1.00  0.00     0.062 A 
HETATM   22  C   UNL     1     -43.795  56.445 -58.776  1.00  0.00    -0.014 A 
HETATM   23  C   UNL     1     -42.581  55.743 -59.284  1.00  0.00     0.052 C 
HETATM   24  C   UNL     1     -45.050  56.538 -59.374  1.00  0.00     0.085 A 
HETATM   25  N   UNL     1     -45.831  57.309 -58.539  1.00  0.00    -0.356 N 
HETATM   26  H   UNL     1     -46.792  57.550 -58.754  1.00  0.00     0.166 HD
HETATM   27  C   UNL     1     -45.122  57.734 -57.449  1.00  0.00     0.022 A 
HETATM   28  C   UNL     1     -45.733  58.652 -56.453  1.00  0.00     0.069 C 
BRANCH  24  29
HETATM   29  C   UNL     1     -45.617  56.024 -60.610  1.00  0.00     0.172 C 
HETATM   30  C   UNL     1     -47.064  56.292 -60.928  1.00  0.00     0.098 C 
HETATM   31  O   UNL     1     -44.932  55.363 -61.394  1.00  0.00    -0.291 OA
ENDBRANCH  24  29
ENDBRANCH   1  21
TORSDOF 2
ENDMDL
MODEL 2
REMARK VINA RESULT:      -8.8      4.417      6.323
REMARK  2 active torsions:
REMARK  status: ('A' for Active; 'I' for Inactive)
REMARK    1  A    between atoms: C_3  and  C_4 
REMARK    2  A    between atoms: C_11  and  C_12 
REMARK       I    between atoms: C_12  and  N_13 
ROOT
HETATM    1  C   UNL     1     -43.666  57.417 -52.667  1.00  0.00     0.256 C 
HETATM    2  N   UNL     1     -42.789  56.540 -52.014  1.00  0.00    -0.348 N 
HETATM    3  C   UNL     1     -41.441  56.902 -51.582  1.00  0.00     0.128 C 
HETATM    4  C   UNL     1     -40.965  56.095 -50.379  1.00  0.00     0.055 C 
HETATM    5  C   UNL     1     -41.158  54.581 -50.562  1.00  0.00     0.100 C 
HETATM    6  N   UNL     1     -40.256  54.096 -51.653  1.00  0.00    -0.273 NA
HETATM    7  C   UNL     1     -40.157  52.680 -51.695  1.00  0.00     0.036 A 
HETATM    8  C   UNL     1     -40.259  51.899 -50.530  1.00  0.00     0.056 A 
HETATM    9  N   UNL     1     -40.551  52.519 -49.310  1.00  0.00    -0.324 N 
HETATM   10  C   UNL     1     -40.859  53.855 -49.218  1.00  0.00     0.245 C 
HETATM   11  O   UNL     1     -40.970  54.386 -48.113  1.00  0.00    -0.271 OA
HETATM   12  C   UNL     1     -39.780  52.063 -52.890  1.00  0.00     0.026 A 
HETATM   13  C   UNL     1     -39.574  50.683 -52.937  1.00  0.00     0.002 A 
HETATM   14  C   UNL     1     -39.704  49.914 -51.778  1.00  0.00     0.002 A 
HETATM   15  C   UNL     1     -40.035  50.524 -50.568  1.00  0.00     0.031 A 
HETATM   16  C   UNL     1     -42.630  54.317 -50.935  1.00  0.00     0.055 C 
HETATM   17  C   UNL     1     -43.053  55.114 -52.161  1.00  0.00     0.128 C 
HETATM   18  O   UNL     1     -44.720  57.037 -53.171  1.00  0.00    -0.267 OA
HETATM   19  H   UNL     1     -39.307  54.438 -51.492  1.00  0.00     0.129 HD
HETATM   20  H   UNL     1     -40.473  52.008 -48.442  1.00  0.00     0.169 HD
ENDROOT
BRANCH   1  21
HETATM   21  C   UNL     1     -43.333  58.844 -52.682  1.00  0.00     0.062 A 
HETATM   22  C   UNL     1     -43.875  59.855 -51.805  1.00  0.00    -0.014 A 
HETATM   23  C   UNL     1     -44.851  59.586 -50.710  1.00  0.00     0.052 C 
HETATM   24  C   UNL     1     -43.319  61.074 -52.184  1.00  0.00     0.085 A 
HETATM   25  N   UNL     1     -42.496  60.818 -53.261  1.00  0.00    -0.356 N 
HETATM   26  H   UNL     1     -41.984  61.546 -53.745  1.00  0.00     0.166 HD
HETATM   27  C   UNL     1     -42.524  59.493 -53.603  1.00  0.00     0.022 A 
HETATM   28  C   UNL     1     -41.782  58.997 -54.790  1.00  0.00     0.069 C 
BRANCH  24  29
HETATM   29  C   UNL     1     -43.454  62.437 -51.695  1.00  0.00     0.172 C 
HETATM   30  C   UNL     1     -42.846  62.811 -50.369  1.00  0.00     0.098 C 
HETATM   31  O   UNL     1     -44.067  63.285 -52.347  1.00  0.00    -0.291 OA
ENDBRANCH  24  29
ENDBRANCH   1  21
TORSDOF 2
ENDMDL
MODEL 3
REMARK VINA RESULT:      -8.7      3.064      4.523
REMARK  2 active torsions:
REMARK  status: ('A' for Active; 'I' for Inactive)
REMARK    1  A    between atoms: C_3  and  C_4 
REMARK    2  A    between atoms: C_11  and  C_12 
REMARK       I    between atoms: C_12  and  N_13 
ROOT
HETATM    1  C   UNL     1     -43.859  56.605 -54.195  1.00  0.00     0.256 C 
HETATM    2  N   UNL     1     -42.843  55.883 -53.554  1.00  0.00    -0.348 N 
HETATM    3  C   UNL     1     -41.449  56.315 -53.489  1.00  0.00     0.128 C 
HETATM    4  C   UNL     1     -40.719  55.786 -52.259  1.00  0.00     0.055 C 
HETATM    5  C   UNL     1     -40.895  54.270 -52.066  1.00  0.00     0.100 C 
HETATM    6  N   UNL     1     -40.211  53.547 -53.184  1.00  0.00    -0.273 NA
HETATM    7  C   UNL     1     -40.076  52.156 -52.936  1.00  0.00     0.036 A 
HETATM    8  C   UNL     1     -39.921  51.651 -51.633  1.00  0.00     0.056 A 
HETATM    9  N   UNL     1     -39.987  52.526 -50.544  1.00  0.00    -0.324 N 
HETATM   10  C   UNL     1     -40.314  53.853 -50.684  1.00  0.00     0.245 C 
HETATM   11  O   UNL     1     -40.223  54.614 -49.722  1.00  0.00    -0.271 OA
HETATM   12  C   UNL     1     -39.921  51.288 -54.019  1.00  0.00     0.026 A 
HETATM   13  C   UNL     1     -39.683  49.928 -53.805  1.00  0.00     0.002 A 
HETATM   14  C   UNL     1     -39.558  49.434 -52.506  1.00  0.00     0.002 A 
HETATM   15  C   UNL     1     -39.664  50.298 -51.415  1.00  0.00     0.031 A 
HETATM   16  C   UNL     1     -42.403  53.948 -52.073  1.00  0.00     0.055 C 
HETATM   17  C   UNL     1     -43.084  54.462 -53.333  1.00  0.00     0.128 C 
HETATM   18  O   UNL     1     -44.979  56.136 -54.384  1.00  0.00    -0.267 OA
HETATM   19  H   UNL     1     -39.259  53.905 -53.292  1.00  0.00     0.129 HD
HETATM   20  H   UNL     1     -39.723  52.217 -49.618  1.00  0.00     0.169 HD
ENDROOT
BRANCH   1  21
HETATM   21  C   UNL     1     -43.582  57.990 -54.585  1.00  0.00     0.062 A 
HETATM   22  C   UNL     1     -42.973  58.423 -55.819  1.00  0.00    -0.014 A 
HETATM   23  C   UNL     1     -42.555  57.507 -56.920  1.00  0.00     0.052 C 
HETATM   24  C   UNL     1     -42.864  59.810 -55.764  1.00  0.00     0.085 A 
HETATM   25  N   UNL     1     -43.361  60.200 -54.538  1.00  0.00    -0.356 N 
HETATM   26  H   UNL     1     -43.376  61.166 -54.235  1.00  0.00     0.166 HD
HETATM   27  C   UNL     1     -43.757  59.119 -53.798  1.00  0.00     0.022 A 
HETATM   28  C   UNL     1     -44.246  59.288 -52.405  1.00  0.00     0.069 C 
BRANCH  24  29
HETATM   29  C   UNL     1     -42.355  60.817 -56.682  1.00  0.00     0.172 C 
HETATM   30  C   UNL     1     -43.182  62.042 -56.969  1.00  0.00     0.098 C 
HETATM   31  O   UNL     1     -41.262  60.675 -57.235  1.00  0.00    -0.291 OA
ENDBRANCH  24  29
ENDBRANCH   1  21
TORSDOF 2
ENDMDL
MODEL 4
REMARK VINA RESULT:      -8.5      4.353      8.152
REMARK  2 active torsions:
REMARK  status: ('A' for Active; 'I' for Inactive)
REMARK    1  A    between atoms: C_3  and  C_4 
REMARK    2  A    between atoms: C_11  and  C_12 
REMARK       I    between atoms: C_12  and  N_13 
ROOT
HETATM    1  C   UNL     1     -42.844  55.348 -51.310  1.00  0.00     0.256 C 
HETATM    2  N   UNL     1     -42.535  56.619 -51.812  1.00  0.00    -0.348 N 
HETATM    3  C   UNL     1     -41.175  57.120 -51.991  1.00  0.00     0.128 C 
HETATM    4  C   UNL     1     -41.064  58.157 -53.104  1.00  0.00     0.055 C 
HETATM    5  C   UNL     1     -42.112  59.276 -52.983  1.00  0.00     0.100 C 
HETATM    6  N   UNL     1     -41.830  60.086 -51.757  1.00  0.00    -0.273 NA
HETATM    7  C   UNL     1     -42.564  61.301 -51.723  1.00  0.00     0.036 A 
HETATM    8  C   UNL     1     -42.911  61.987 -52.900  1.00  0.00     0.056 A 
HETATM    9  N   UNL     1     -42.603  61.421 -54.142  1.00  0.00    -0.324 N 
HETATM   10  C   UNL     1     -42.075  60.158 -54.265  1.00  0.00     0.245 C 
HETATM   11  O   UNL     1     -41.691  59.757 -55.362  1.00  0.00    -0.271 OA
HETATM   12  C   UNL     1     -42.797  61.916 -50.490  1.00  0.00     0.026 A 
HETATM   13  C   UNL     1     -43.426  63.162 -50.430  1.00  0.00     0.002 A 
HETATM   14  C   UNL     1     -43.789  63.821 -51.606  1.00  0.00     0.002 A 
HETATM   15  C   UNL     1     -43.520  63.240 -52.846  1.00  0.00     0.031 A 
HETATM   16  C   UNL     1     -43.508  58.630 -52.882  1.00  0.00     0.055 C 
HETATM   17  C   UNL     1     -43.585  57.629 -51.738  1.00  0.00     0.128 C 
HETATM   18  O   UNL     1     -43.990  55.021 -51.008  1.00  0.00    -0.267 OA
HETATM   19  H   UNL     1     -40.844  60.355 -51.742  1.00  0.00     0.129 HD
HETATM   20  H   UNL     1     -42.697  61.961 -54.991  1.00  0.00     0.169 HD
ENDROOT
BRANCH   1  21
HETATM   21  C   UNL     1     -41.764  54.362 -51.213  1.00  0.00     0.062 A 
HETATM   22  C   UNL     1     -41.370  53.426 -52.238  1.00  0.00    -0.014 A 
HETATM   23  C   UNL     1     -41.994  53.342 -53.590  1.00  0.00     0.052 C 
HETATM   24  C   UNL     1     -40.332  52.655 -51.719  1.00  0.00     0.085 A 
HETATM   25  N   UNL     1     -40.125  53.087 -50.426  1.00  0.00    -0.356 N 
HETATM   26  H   UNL     1     -39.433  52.671 -49.813  1.00  0.00     0.166 HD
HETATM   27  C   UNL     1     -41.003  54.081 -50.088  1.00  0.00     0.022 A 
HETATM   28  C   UNL     1     -41.026  54.642 -48.713  1.00  0.00     0.069 C 
BRANCH  24  29
HETATM   29  C   UNL     1     -39.520  51.572 -52.250  1.00  0.00     0.172 C 
HETATM   30  C   UNL     1     -39.353  50.310 -51.447  1.00  0.00     0.098 C 
HETATM   31  O   UNL     1     -38.958  51.679 -53.342  1.00  0.00    -0.291 OA
ENDBRANCH  24  29
ENDBRANCH   1  21
TORSDOF 2
ENDMDL
MODEL 5
REMARK VINA RESULT:      -8.3      4.030      6.388
REMARK  2 active torsions:
REMARK  status: ('A' for Active; 'I' for Inactive)
REMARK    1  A    between atoms: C_3  and  C_4 
REMARK    2  A    between atoms: C_11  and  C_12 
REMARK       I    between atoms: C_12  and  N_13 
ROOT
HETATM    1  C   UNL     1     -41.242  59.093 -53.001  1.00  0.00     0.256 C 
HETATM    2  N   UNL     1     -41.582  57.750 -53.219  1.00  0.00    -0.348 N 
HETATM    3  C   UNL     1     -42.786  57.115 -52.690  1.00  0.00     0.128 C 
HETATM    4  C   UNL     1     -43.273  55.953 -53.550  1.00  0.00     0.055 C 
HETATM    5  C   UNL     1     -42.156  54.952 -53.889  1.00  0.00     0.100 C 
HETATM    6  N   UNL     1     -41.714  54.262 -52.636  1.00  0.00    -0.273 NA
HETATM    7  C   UNL     1     -40.899  53.129 -52.893  1.00  0.00     0.036 A 
HETATM    8  C   UNL     1     -41.065  52.348 -54.051  1.00  0.00     0.056 A 
HETATM    9  N   UNL     1     -41.995  52.742 -55.018  1.00  0.00    -0.324 N 
HETATM   10  C   UNL     1     -42.679  53.931 -54.941  1.00  0.00     0.245 C 
HETATM   11  O   UNL     1     -43.586  54.171 -55.737  1.00  0.00    -0.271 OA
HETATM   12  C   UNL     1     -40.032  52.680 -51.894  1.00  0.00     0.026 A 
HETATM   13  C   UNL     1     -39.293  51.509 -52.076  1.00  0.00     0.002 A 
HETATM   14  C   UNL     1     -39.446  50.756 -53.242  1.00  0.00     0.002 A 
HETATM   15  C   UNL     1     -40.344  51.168 -54.228  1.00  0.00     0.031 A 
HETATM   16  C   UNL     1     -40.978  55.726 -54.511  1.00  0.00     0.055 C 
HETATM   17  C   UNL     1     -40.500  56.852 -53.605  1.00  0.00     0.128 C 
HETATM   18  O   UNL     1     -40.144  59.551 -53.309  1.00  0.00    -0.267 OA
HETATM   19  H   UNL     1     -42.531  53.911 -52.131  1.00  0.00     0.129 HD
HETATM   20  H   UNL     1     -42.244  52.121 -55.775  1.00  0.00     0.169 HD
ENDROOT
BRANCH   1  21
HETATM   21  C   UNL     1     -42.267  59.984 -52.449  1.00  0.00     0.062 A 
HETATM   22  C   UNL     1     -42.408  60.364 -51.064  1.00  0.00    -0.014 A 
HETATM   23  C   UNL     1     -41.495  59.924 -49.970  1.00  0.00     0.052 C 
HETATM   24  C   UNL     1     -43.526  61.190 -50.974  1.00  0.00     0.085 A 
HETATM   25  N   UNL     1     -44.056  61.283 -52.244  1.00  0.00    -0.356 N 
HETATM   26  H   UNL     1     -44.894  61.812 -52.450  1.00  0.00     0.166 HD
HETATM   27  C   UNL     1     -43.340  60.532 -53.135  1.00  0.00     0.022 A 
HETATM   28  C   UNL     1     -43.775  60.409 -54.550  1.00  0.00     0.069 C 
BRANCH  24  29
HETATM   29  C   UNL     1     -44.175  61.890 -49.876  1.00  0.00     0.172 C 
HETATM   30  C   UNL     1     -43.796  63.317 -49.583  1.00  0.00     0.098 C 
HETATM   31  O   UNL     1     -45.020  61.326 -49.177  1.00  0.00    -0.291 OA
ENDBRANCH  24  29
ENDBRANCH   1  21
TORSDOF 2
ENDMDL
MODEL 6
REMARK VINA RESULT:      -8.1      4.541      7.928
REMARK  2 active torsions:
REMARK  status: ('A' for Active; 'I' for Inactive)
REMARK    1  A    between atoms: C_3  and  C_4 
REMARK    2  A    between atoms: C_11  and  C_12 
REMARK       I    between atoms: C_12  and  N_13 
ROOT
HETATM    1  C   UNL     1     -43.576  55.122 -50.997  1.00  0.00     0.256 C 
HETATM    2  N   UNL     1     -43.754  56.486 -51.265  1.00  0.00    -0.348 N 
HETATM    3  C   UNL     1     -42.730  57.343 -51.857  1.00  0.00     0.128 C 
HETATM    4  C   UNL     1     -43.314  58.515 -52.638  1.00  0.00     0.055 C 
HETATM    5  C   UNL     1     -44.373  59.295 -51.841  1.00  0.00     0.100 C 
HETATM    6  N   UNL     1     -43.716  59.976 -50.682  1.00  0.00    -0.273 NA
HETATM    7  C   UNL     1     -44.555  60.941 -50.065  1.00  0.00     0.036 A 
HETATM    8  C   UNL     1     -45.508  61.668 -50.801  1.00  0.00     0.056 A 
HETATM    9  N   UNL     1     -45.699  61.376 -52.155  1.00  0.00    -0.324 N 
HETATM   10  C   UNL     1     -45.072  60.324 -52.778  1.00  0.00     0.245 C 
HETATM   11  O   UNL     1     -45.159  60.190 -53.998  1.00  0.00    -0.271 OA
HETATM   12  C   UNL     1     -44.312  61.299 -48.737  1.00  0.00     0.026 A 
HETATM   13  C   UNL     1     -45.052  62.318 -48.134  1.00  0.00     0.002 A 
HETATM   14  C   UNL     1     -46.015  63.014 -48.867  1.00  0.00     0.002 A 
HETATM   15  C   UNL     1     -46.236  62.699 -50.208  1.00  0.00     0.031 A 
HETATM   16  C   UNL     1     -45.438  58.301 -51.338  1.00  0.00     0.055 C 
HETATM   17  C   UNL     1     -44.816  57.168 -50.533  1.00  0.00     0.128 C 
HETATM   18  O   UNL     1     -44.387  54.470 -50.342  1.00  0.00    -0.267 OA
HETATM   19  H   UNL     1     -42.893  60.487 -51.005  1.00  0.00     0.129 HD
HETATM   20  H   UNL     1     -46.258  61.984 -52.739  1.00  0.00     0.169 HD
ENDROOT
BRANCH   1  21
HETATM   21  C   UNL     1     -42.415  54.448 -51.584  1.00  0.00     0.062 A 
HETATM   22  C   UNL     1     -42.264  54.056 -52.965  1.00  0.00    -0.014 A 
HETATM   23  C   UNL     1     -43.276  54.314 -54.030  1.00  0.00     0.052 C 
HETATM   24  C   UNL     1     -41.032  53.417 -53.083  1.00  0.00     0.085 A 
HETATM   25  N   UNL     1     -40.473  53.398 -51.823  1.00  0.00    -0.356 N 
HETATM   26  H   UNL     1     -39.577  52.967 -51.627  1.00  0.00     0.166 HD
HETATM   27  C   UNL     1     -41.305  53.972 -50.901  1.00  0.00     0.022 A 
HETATM   28  C   UNL     1     -40.950  53.988 -49.459  1.00  0.00     0.069 C 
BRANCH  24  29
HETATM   29  C   UNL     1     -40.313  52.816 -54.194  1.00  0.00     0.172 C 
HETATM   30  C   UNL     1     -39.989  51.346 -54.156  1.00  0.00     0.098 C 
HETATM   31  O   UNL     1     -39.956  53.495 -55.159  1.00  0.00    -0.291 OA
ENDBRANCH  24  29
ENDBRANCH   1  21
TORSDOF 2
ENDMDL
MODEL 7
REMARK VINA RESULT:      -8.1      3.754      5.568
REMARK  2 active torsions:
REMARK  status: ('A' for Active; 'I' for Inactive)
REMARK    1  A    between atoms: C_3  and  C_4 
REMARK    2  A    between atoms: C_11  and  C_12 
REMARK       I    between atoms: C_12  and  N_13 
ROOT
HETATM    1  C   UNL     1     -41.655  59.195 -53.163  1.00  0.00     0.256 C 
HETATM    2  N   UNL     1     -41.903  57.829 -53.354  1.00  0.00    -0.348 N 
HETATM    3  C   UNL     1     -43.097  57.139 -52.875  1.00  0.00     0.128 C 
HETATM    4  C   UNL     1     -43.464  55.925 -53.722  1.00  0.00     0.055 C 
HETATM    5  C   UNL     1     -42.273  54.982 -53.961  1.00  0.00     0.100 C 
HETATM    6  N   UNL     1     -41.868  54.359 -52.662  1.00  0.00    -0.273 NA
HETATM    7  C   UNL     1     -40.975  53.269 -52.832  1.00  0.00     0.036 A 
HETATM    8  C   UNL     1     -41.025  52.445 -53.971  1.00  0.00     0.056 A 
HETATM    9  N   UNL     1     -41.917  52.753 -55.003  1.00  0.00    -0.324 N 
HETATM   10  C   UNL     1     -42.672  53.901 -55.007  1.00  0.00     0.245 C 
HETATM   11  O   UNL     1     -43.542  54.062 -55.861  1.00  0.00    -0.271 OA
HETATM   12  C   UNL     1     -40.144  52.903 -51.770  1.00  0.00     0.026 A 
HETATM   13  C   UNL     1     -39.329  51.773 -51.869  1.00  0.00     0.002 A 
HETATM   14  C   UNL     1     -39.369  50.978 -53.015  1.00  0.00     0.002 A 
HETATM   15  C   UNL     1     -40.227  51.305 -54.065  1.00  0.00     0.031 A 
HETATM   16  C   UNL     1     -41.106  55.806 -54.540  1.00  0.00     0.055 C 
HETATM   17  C   UNL     1     -40.749  56.985 -53.646  1.00  0.00     0.128 C 
HETATM   18  O   UNL     1     -40.569  59.709 -53.422  1.00  0.00    -0.267 OA
HETATM   19  H   UNL     1     -42.691  53.975 -52.194  1.00  0.00     0.129 HD
HETATM   20  H   UNL     1     -42.084  52.094 -55.752  1.00  0.00     0.169 HD
ENDROOT
BRANCH   1  21
HETATM   21  C   UNL     1     -42.760  60.040 -52.702  1.00  0.00     0.062 A 
HETATM   22  C   UNL     1     -43.836  60.554 -53.515  1.00  0.00    -0.014 A 
HETATM   23  C   UNL     1     -44.005  60.269 -54.969  1.00  0.00     0.052 C 
HETATM   24  C   UNL     1     -44.643  61.335 -52.691  1.00  0.00     0.085 A 
HETATM   25  N   UNL     1     -44.066  61.317 -51.438  1.00  0.00    -0.356 N 
HETATM   26  H   UNL     1     -44.446  61.830 -50.652  1.00  0.00     0.166 HD
HETATM   27  C   UNL     1     -42.912  60.582 -51.434  1.00  0.00     0.022 A 
HETATM   28  C   UNL     1     -42.070  60.492 -50.214  1.00  0.00     0.069 C 
BRANCH  24  29
HETATM   29  C   UNL     1     -45.861  62.100 -52.906  1.00  0.00     0.172 C 
HETATM   30  C   UNL     1     -47.186  61.510 -52.501  1.00  0.00     0.098 C 
HETATM   31  O   UNL     1     -45.823  63.218 -53.424  1.00  0.00    -0.291 OA
ENDBRANCH  24  29
ENDBRANCH   1  21
TORSDOF 2
ENDMDL
MODEL 8
REMARK VINA RESULT:      -8.1      2.772      8.351
REMARK  2 active torsions:
REMARK  status: ('A' for Active; 'I' for Inactive)
REMARK    1  A    between atoms: C_3  and  C_4 
REMARK    2  A    between atoms: C_11  and  C_12 
REMARK       I    between atoms: C_12  and  N_13 
ROOT
HETATM    1  C   UNL     1     -43.040  57.364 -52.459  1.00  0.00     0.256 C 
HETATM    2  N   UNL     1     -42.867  57.151 -53.834  1.00  0.00    -0.348 N 
HETATM    3  C   UNL     1     -41.717  56.466 -54.417  1.00  0.00     0.128 C 
HETATM    4  C   UNL     1     -42.040  55.784 -55.743  1.00  0.00     0.055 C 
HETATM    5  C   UNL     1     -42.759  56.715 -56.733  1.00  0.00     0.100 C 
HETATM    6  N   UNL     1     -41.825  57.808 -57.151  1.00  0.00    -0.273 NA
HETATM    7  C   UNL     1     -42.302  58.539 -58.270  1.00  0.00     0.036 A 
HETATM    8  C   UNL     1     -43.094  57.935 -59.263  1.00  0.00     0.056 A 
HETATM    9  N   UNL     1     -43.496  56.605 -59.106  1.00  0.00    -0.324 N 
HETATM   10  C   UNL     1     -43.246  55.890 -57.959  1.00  0.00     0.245 C 
HETATM   11  O   UNL     1     -43.493  54.685 -57.919  1.00  0.00    -0.271 OA
HETATM   12  C   UNL     1     -41.833  59.839 -58.479  1.00  0.00     0.026 A 
HETATM   13  C   UNL     1     -42.202  60.546 -59.625  1.00  0.00     0.002 A 
HETATM   14  C   UNL     1     -43.011  59.945 -60.590  1.00  0.00     0.002 A 
HETATM   15  C   UNL     1     -43.449  58.631 -60.418  1.00  0.00     0.031 A 
HETATM   16  C   UNL     1     -43.994  57.314 -56.033  1.00  0.00     0.055 C 
HETATM   17  C   UNL     1     -43.623  58.015 -54.734  1.00  0.00     0.128 C 
HETATM   18  O   UNL     1     -43.924  58.092 -52.013  1.00  0.00    -0.267 OA
HETATM   19  H   UNL     1     -40.932  57.404 -57.441  1.00  0.00     0.129 HD
HETATM   20  H   UNL     1     -43.927  56.104 -59.871  1.00  0.00     0.169 HD
ENDROOT
BRANCH   1  21
HETATM   21  C   UNL     1     -42.172  56.632 -51.532  1.00  0.00     0.062 A 
HETATM   22  C   UNL     1     -42.322  55.253 -51.134  1.00  0.00    -0.014 A 
HETATM   23  C   UNL     1     -43.385  54.339 -51.641  1.00  0.00     0.052 C 
HETATM   24  C   UNL     1     -41.310  54.974 -50.218  1.00  0.00     0.085 A 
HETATM   25  N   UNL     1     -40.595  56.141 -50.048  1.00  0.00    -0.356 N 
HETATM   26  H   UNL     1     -39.811  56.216 -49.410  1.00  0.00     0.166 HD
HETATM   27  C   UNL     1     -41.123  57.159 -50.794  1.00  0.00     0.022 A 
HETATM   28  C   UNL     1     -40.569  58.535 -50.705  1.00  0.00     0.069 C 
BRANCH  24  29
HETATM   29  C   UNL     1     -40.925  53.785 -49.474  1.00  0.00     0.172 C 
HETATM   30  C   UNL     1     -40.429  52.575 -50.220  1.00  0.00     0.098 C 
HETATM   31  O   UNL     1     -41.011  53.752 -48.245  1.00  0.00    -0.291 OA
ENDBRANCH  24  29
ENDBRANCH   1  21
TORSDOF 2
ENDMDL
MODEL 9
REMARK VINA RESULT:      -7.8      3.190      5.220
REMARK  2 active torsions:
REMARK  status: ('A' for Active; 'I' for Inactive)
REMARK    1  A    between atoms: C_3  and  C_4 
REMARK    2  A    between atoms: C_11  and  C_12 
REMARK       I    between atoms: C_12  and  N_13 
ROOT
HETATM    1  C   UNL     1     -44.438  57.779 -54.479  1.00  0.00     0.256 C 
HETATM    2  N   UNL     1     -43.388  57.103 -53.842  1.00  0.00    -0.348 N 
HETATM    3  C   UNL     1     -42.023  57.613 -53.752  1.00  0.00     0.128 C 
HETATM    4  C   UNL     1     -41.276  57.102 -52.524  1.00  0.00     0.055 C 
HETATM    5  C   UNL     1     -41.366  55.575 -52.365  1.00  0.00     0.100 C 
HETATM    6  N   UNL     1     -40.629  54.916 -53.489  1.00  0.00    -0.273 NA
HETATM    7  C   UNL     1     -40.416  53.530 -53.267  1.00  0.00     0.036 A 
HETATM    8  C   UNL     1     -40.246  53.008 -51.973  1.00  0.00     0.056 A 
HETATM    9  N   UNL     1     -40.373  53.855 -50.867  1.00  0.00    -0.324 N 
HETATM   10  C   UNL     1     -40.775  55.164 -50.985  1.00  0.00     0.245 C 
HETATM   11  O   UNL     1     -40.738  55.908 -50.006  1.00  0.00    -0.271 OA
HETATM   12  C   UNL     1     -40.200  52.695 -54.366  1.00  0.00     0.026 A 
HETATM   13  C   UNL     1     -39.886  51.347 -54.177  1.00  0.00     0.002 A 
HETATM   14  C   UNL     1     -39.746  50.834 -52.887  1.00  0.00     0.002 A 
HETATM   15  C   UNL     1     -39.913  51.667 -51.780  1.00  0.00     0.031 A 
HETATM   16  C   UNL     1     -42.852  55.166 -52.394  1.00  0.00     0.055 C 
HETATM   17  C   UNL     1     -43.549  55.666 -53.652  1.00  0.00     0.128 C 
HETATM   18  O   UNL     1     -45.527  57.250 -54.690  1.00  0.00    -0.267 OA
HETATM   19  H   UNL     1     -39.699  55.331 -53.579  1.00  0.00     0.129 HD
HETATM   20  H   UNL     1     -40.102  53.542 -49.945  1.00  0.00     0.169 HD
ENDROOT
BRANCH   1  21
HETATM   21  C   UNL     1     -44.238  59.185 -54.837  1.00  0.00     0.062 A 
HETATM   22  C   UNL     1     -44.419  60.321 -53.966  1.00  0.00    -0.014 A 
HETATM   23  C   UNL     1     -44.814  60.229 -52.530  1.00  0.00     0.052 C 
HETATM   24  C   UNL     1     -44.160  61.465 -54.716  1.00  0.00     0.085 A 
HETATM   25  N   UNL     1     -43.861  61.043 -55.994  1.00  0.00    -0.356 N 
HETATM   26  H   UNL     1     -43.653  61.686 -56.749  1.00  0.00     0.166 HD
HETATM   27  C   UNL     1     -43.945  59.681 -56.099  1.00  0.00     0.022 A 
HETATM   28  C   UNL     1     -43.749  59.005 -57.407  1.00  0.00     0.069 C 
BRANCH  24  29
HETATM   29  C   UNL     1     -44.162  62.888 -54.415  1.00  0.00     0.172 C 
HETATM   30  C   UNL     1     -43.185  63.433 -53.407  1.00  0.00     0.098 C 
HETATM   31  O   UNL     1     -44.959  63.650 -54.966  1.00  0.00    -0.291 OA
ENDBRANCH  24  29
ENDBRANCH   1  21
TORSDOF 2
ENDMDL
MODEL 10
REMARK VINA RESULT:      -7.6     15.730     19.759
REMARK  2 active torsions:
REMARK  status: ('A' for Active; 'I' for Inactive)
REMARK    1  A    between atoms: C_3  and  C_4 
REMARK    2  A    between atoms: C_11  and  C_12 
REMARK       I    between atoms: C_12  and  N_13 
ROOT
HETATM    1  C   UNL     1     -32.284  39.689 -54.285  1.00  0.00     0.256 C 
HETATM    2  N   UNL     1     -33.507  39.856 -54.950  1.00  0.00    -0.348 N 
HETATM    3  C   UNL     1     -34.771  39.284 -54.493  1.00  0.00     0.128 C 
HETATM    4  C   UNL     1     -35.985  40.096 -54.931  1.00  0.00     0.055 C 
HETATM    5  C   UNL     1     -35.973  40.422 -56.434  1.00  0.00     0.100 C 
HETATM    6  N   UNL     1     -36.133  39.156 -57.215  1.00  0.00    -0.273 NA
HETATM    7  C   UNL     1     -36.420  39.389 -58.586  1.00  0.00     0.036 A 
HETATM    8  C   UNL     1     -37.148  40.517 -59.005  1.00  0.00     0.056 A 
HETATM    9  N   UNL     1     -37.526  41.480 -58.064  1.00  0.00    -0.324 N 
HETATM   10  C   UNL     1     -37.115  41.430 -56.753  1.00  0.00     0.245 C 
HETATM   11  O   UNL     1     -37.584  42.217 -55.932  1.00  0.00    -0.271 OA
HETATM   12  C   UNL     1     -36.124  38.392 -59.518  1.00  0.00     0.026 A 
HETATM   13  C   UNL     1     -36.488  38.548 -60.858  1.00  0.00     0.002 A 
HETATM   14  C   UNL     1     -37.187  39.685 -61.267  1.00  0.00     0.002 A 
HETATM   15  C   UNL     1     -37.530  40.668 -60.338  1.00  0.00     0.031 A 
HETATM   16  C   UNL     1     -34.628  41.091 -56.780  1.00  0.00     0.055 C 
HETATM   17  C   UNL     1     -33.445  40.231 -56.358  1.00  0.00     0.128 C 
HETATM   18  O   UNL     1     -31.214  40.032 -54.783  1.00  0.00    -0.267 OA
HETATM   19  H   UNL     1     -36.926  38.624 -56.850  1.00  0.00     0.129 HD
HETATM   20  H   UNL     1     -38.178  42.211 -58.310  1.00  0.00     0.169 HD
ENDROOT
BRANCH   1  21
HETATM   21  C   UNL     1     -32.305  39.148 -52.923  1.00  0.00     0.062 A 
HETATM   22  C   UNL     1     -32.703  39.858 -51.731  1.00  0.00    -0.014 A 
HETATM   23  C   UNL     1     -33.192  41.267 -51.711  1.00  0.00     0.052 C 
HETATM   24  C   UNL     1     -32.539  38.987 -50.656  1.00  0.00     0.085 A 
HETATM   25  N   UNL     1     -32.038  37.810 -51.171  1.00  0.00    -0.356 N 
HETATM   26  H   UNL     1     -31.806  37.013 -50.591  1.00  0.00     0.166 HD
HETATM   27  C   UNL     1     -31.850  37.901 -52.523  1.00  0.00     0.022 A 
HETATM   28  C   UNL     1     -31.235  36.782 -53.284  1.00  0.00     0.069 C 
BRANCH  24  29
HETATM   29  C   UNL     1     -32.770  39.101 -49.225  1.00  0.00     0.172 C 
HETATM   30  C   UNL     1     -31.707  39.709 -48.350  1.00  0.00     0.098 C 
HETATM   31  O   UNL     1     -33.819  38.696 -48.719  1.00  0.00    -0.291 OA
ENDBRANCH  24  29
ENDBRANCH   1  21
TORSDOF 2
ENDMDL
