MODEL 1
REMARK VINA RESULT:      -8.0      0.000      0.000
REMARK  3 active torsions:
REMARK  status: ('A' for Active; 'I' for Inactive)
REMARK    1  A    between atoms: C_4  and  N_5 
REMARK       I    between atoms: N_5  and  C_6 
REMARK    2  A    between atoms: C_6  and  C_7 
REMARK    3  A    between atoms: C_7  and  C_8 
ROOT
HETATM    1  C   UNL     1     -42.700  55.805 -52.337  1.00  0.00     0.286 C 
HETATM    2  N   UNL     1     -43.600  56.591 -53.303  1.00  0.00    -0.056 N 
HETATM    3  H   UNL     1     -43.105  56.730 -54.201  1.00  0.00     0.278 HD
HETATM    4  H   UNL     1     -44.418  56.015 -53.547  1.00  0.00     0.278 HD
HETATM    5  C   UNL     1     -44.023  57.890 -52.686  1.00  0.00     0.209 C 
HETATM    6  C   UNL     1     -44.877  57.557 -51.443  1.00  0.00     0.115 C 
HETATM    7  N   UNL     1     -44.157  56.687 -50.515  1.00  0.00    -0.353 N 
HETATM    8  C   UNL     1     -43.338  55.660 -50.935  1.00  0.00     0.249 C 
HETATM    9  O   UNL     1     -43.078  54.732 -50.178  1.00  0.00    -0.271 OA
HETATM   10  C   UNL     1     -44.793  58.736 -53.690  1.00  0.00     0.035 C 
HETATM   11  C   UNL     1     -45.249  60.033 -53.018  1.00  0.00     0.002 C 
HETATM   12  C   UNL     1     -46.081  59.760 -51.763  1.00  0.00     0.002 C 
HETATM   13  C   UNL     1     -45.364  58.842 -50.770  1.00  0.00     0.027 C 
HETATM   14  H   UNL     1     -44.572  56.510 -49.602  1.00  0.00     0.163 HD
ENDROOT
BRANCH   1  15
HETATM   15  C   UNL     1     -42.358  54.446 -52.937  1.00  0.00     0.146 C 
BRANCH  15  16
HETATM   16  C   UNL     1     -41.133  54.619 -53.786  1.00  0.00     0.224 C 
HETATM   17  N   UNL     1     -40.168  53.684 -53.945  1.00  0.00    -0.327 N 
HETATM   18  H   UNL     1     -39.350  54.080 -54.404  1.00  0.00     0.169 HD
HETATM   19  O   UNL     1     -40.878  55.773 -54.163  1.00  0.00    -0.273 OA
BRANCH  17  20
HETATM   20  C   UNL     1     -40.022  52.340 -53.561  1.00  0.00     0.035 A 
HETATM   21  C   UNL     1     -39.850  51.878 -52.257  1.00  0.00     0.036 A 
HETATM   22  C   UNL     1     -39.704  50.504 -51.993  1.00  0.00    -0.060 A 
HETATM   23  C   UNL     1     -39.593  50.000 -50.582  1.00  0.00     0.048 C 
HETATM   24  C   UNL     1     -39.757  49.589 -53.050  1.00  0.00     0.007 A 
HETATM   25  C   UNL     1     -39.958  50.036 -54.351  1.00  0.00     0.003 A 
HETATM   26  C   UNL     1     -40.103  51.401 -54.600  1.00  0.00     0.029 A 
ENDBRANCH  17  20
ENDBRANCH  15  16
ENDBRANCH   1  15
TORSDOF 3
ENDMDL
MODEL 2
REMARK VINA RESULT:      -8.0      2.275      3.336
REMARK  3 active torsions:
REMARK  status: ('A' for Active; 'I' for Inactive)
REMARK    1  A    between atoms: C_4  and  N_5 
REMARK       I    between atoms: N_5  and  C_6 
REMARK    2  A    between atoms: C_6  and  C_7 
REMARK    3  A    between atoms: C_7  and  C_8 
ROOT
HETATM    1  C   UNL     1     -42.268  55.104 -49.952  1.00  0.00     0.286 C 
HETATM    2  N   UNL     1     -41.138  56.124 -50.164  1.00  0.00    -0.056 N 
HETATM    3  H   UNL     1     -40.592  56.221 -49.291  1.00  0.00     0.278 HD
HETATM    4  H   UNL     1     -40.466  55.747 -50.848  1.00  0.00     0.278 HD
HETATM    5  C   UNL     1     -41.696  57.436 -50.628  1.00  0.00     0.209 C 
HETATM    6  C   UNL     1     -42.355  57.199 -52.005  1.00  0.00     0.115 C 
HETATM    7  N   UNL     1     -43.357  56.137 -51.945  1.00  0.00    -0.353 N 
HETATM    8  C   UNL     1     -43.192  54.995 -51.188  1.00  0.00     0.249 C 
HETATM    9  O   UNL     1     -43.829  53.982 -51.457  1.00  0.00    -0.271 OA
HETATM   10  C   UNL     1     -40.601  58.491 -50.700  1.00  0.00     0.035 C 
HETATM   11  C   UNL     1     -41.192  59.802 -51.218  1.00  0.00     0.002 C 
HETATM   12  C   UNL     1     -41.881  59.619 -52.573  1.00  0.00     0.002 C 
HETATM   13  C   UNL     1     -42.931  58.506 -52.554  1.00  0.00     0.027 C 
HETATM   14  H   UNL     1     -43.947  55.985 -52.762  1.00  0.00     0.163 HD
ENDROOT
BRANCH   1  15
HETATM   15  C   UNL     1     -41.679  53.749 -49.576  1.00  0.00     0.146 C 
BRANCH  15  16
HETATM   16  C   UNL     1     -40.188  53.850 -49.706  1.00  0.00     0.224 C 
HETATM   17  N   UNL     1     -39.476  53.405 -50.767  1.00  0.00    -0.327 N 
HETATM   18  H   UNL     1     -38.479  53.405 -50.562  1.00  0.00     0.169 HD
HETATM   19  O   UNL     1     -39.559  54.137 -48.676  1.00  0.00    -0.273 OA
BRANCH  17  20
HETATM   20  C   UNL     1     -39.806  52.888 -52.031  1.00  0.00     0.035 A 
HETATM   21  C   UNL     1     -39.547  51.592 -52.476  1.00  0.00     0.036 A 
HETATM   22  C   UNL     1     -39.916  51.188 -53.772  1.00  0.00    -0.060 A 
HETATM   23  C   UNL     1     -39.704  49.771 -54.225  1.00  0.00     0.048 C 
HETATM   24  C   UNL     1     -40.574  52.090 -54.615  1.00  0.00     0.007 A 
HETATM   25  C   UNL     1     -40.865  53.375 -54.171  1.00  0.00     0.003 A 
HETATM   26  C   UNL     1     -40.494  53.764 -52.884  1.00  0.00     0.029 A 
ENDBRANCH  17  20
ENDBRANCH  15  16
ENDBRANCH   1  15
TORSDOF 3
ENDMDL
MODEL 3
REMARK VINA RESULT:      -7.9      2.044      3.112
REMARK  3 active torsions:
REMARK  status: ('A' for Active; 'I' for Inactive)
REMARK    1  A    between atoms: C_4  and  N_5 
REMARK       I    between atoms: N_5  and  C_6 
REMARK    2  A    between atoms: C_6  and  C_7 
REMARK    3  A    between atoms: C_7  and  C_8 
ROOT
HETATM    1  C   UNL     1     -42.474  55.462 -52.440  1.00  0.00     0.286 C 
HETATM    2  N   UNL     1     -42.560  55.104 -53.931  1.00  0.00    -0.056 N 
HETATM    3  H   UNL     1     -41.669  54.675 -54.236  1.00  0.00     0.278 HD
HETATM    4  H   UNL     1     -43.261  54.361 -54.061  1.00  0.00     0.278 HD
HETATM    5  C   UNL     1     -42.906  56.316 -54.743  1.00  0.00     0.209 C 
HETATM    6  C   UNL     1     -44.314  56.779 -54.308  1.00  0.00     0.115 C 
HETATM    7  N   UNL     1     -44.380  57.014 -52.867  1.00  0.00    -0.353 N 
HETATM    8  C   UNL     1     -43.735  56.212 -51.949  1.00  0.00     0.249 C 
HETATM    9  O   UNL     1     -44.116  56.183 -50.784  1.00  0.00    -0.271 OA
HETATM   10  C   UNL     1     -42.850  56.001 -56.231  1.00  0.00     0.035 C 
HETATM   11  C   UNL     1     -43.251  57.243 -57.029  1.00  0.00     0.002 C 
HETATM   12  C   UNL     1     -44.632  57.759 -56.620  1.00  0.00     0.002 C 
HETATM   13  C   UNL     1     -44.745  58.007 -55.113  1.00  0.00     0.027 C 
HETATM   14  H   UNL     1     -45.221  57.447 -52.489  1.00  0.00     0.163 HD
ENDROOT
BRANCH   1  15
HETATM   15  C   UNL     1     -42.219  54.203 -51.618  1.00  0.00     0.146 C 
BRANCH  15  16
HETATM   16  C   UNL     1     -40.852  54.327 -51.012  1.00  0.00     0.224 C 
HETATM   17  N   UNL     1     -39.940  53.328 -50.962  1.00  0.00    -0.327 N 
HETATM   18  H   UNL     1     -39.167  53.574 -50.347  1.00  0.00     0.169 HD
HETATM   19  O   UNL     1     -40.646  55.325 -50.305  1.00  0.00    -0.273 OA
BRANCH  17  20
HETATM   20  C   UNL     1     -39.863  52.033 -51.500  1.00  0.00     0.035 A 
HETATM   21  C   UNL     1     -39.743  51.716 -52.852  1.00  0.00     0.036 A 
HETATM   22  C   UNL     1     -39.684  50.376 -53.276  1.00  0.00    -0.060 A 
HETATM   23  C   UNL     1     -39.481  50.036 -54.725  1.00  0.00     0.048 C 
HETATM   24  C   UNL     1     -39.722  49.350 -52.326  1.00  0.00     0.007 A 
HETATM   25  C   UNL     1     -39.811  49.655 -50.973  1.00  0.00     0.003 A 
HETATM   26  C   UNL     1     -39.867  50.987 -50.564  1.00  0.00     0.029 A 
ENDBRANCH  17  20
ENDBRANCH  15  16
ENDBRANCH   1  15
TORSDOF 3
ENDMDL
MODEL 4
REMARK VINA RESULT:      -7.8      2.201      3.007
REMARK  3 active torsions:
REMARK  status: ('A' for Active; 'I' for Inactive)
REMARK    1  A    between atoms: C_4  and  N_5 
REMARK       I    between atoms: N_5  and  C_6 
REMARK    2  A    between atoms: C_6  and  C_7 
REMARK    3  A    between atoms: C_7  and  C_8 
ROOT
HETATM    1  C   UNL     1     -43.380  56.157 -52.898  1.00  0.00     0.286 C 
HETATM    2  N   UNL     1     -42.015  56.665 -52.411  1.00  0.00    -0.056 N 
HETATM    3  H   UNL     1     -41.469  55.875 -52.026  1.00  0.00     0.278 HD
HETATM    4  H   UNL     1     -41.465  56.987 -53.220  1.00  0.00     0.278 HD
HETATM    5  C   UNL     1     -42.192  57.767 -51.410  1.00  0.00     0.209 C 
HETATM    6  C   UNL     1     -42.879  58.946 -52.134  1.00  0.00     0.115 C 
HETATM    7  N   UNL     1     -44.133  58.532 -52.761  1.00  0.00    -0.353 N 
HETATM    8  C   UNL     1     -44.290  57.311 -53.383  1.00  0.00     0.249 C 
HETATM    9  O   UNL     1     -45.175  57.155 -54.217  1.00  0.00    -0.271 OA
HETATM   10  C   UNL     1     -40.851  58.175 -50.816  1.00  0.00     0.035 C 
HETATM   11  C   UNL     1     -41.059  59.329 -49.834  1.00  0.00     0.002 C 
HETATM   12  C   UNL     1     -41.762  60.517 -50.495  1.00  0.00     0.002 C 
HETATM   13  C   UNL     1     -43.075  60.121 -51.174  1.00  0.00     0.027 C 
HETATM   14  H   UNL     1     -44.735  59.253 -53.154  1.00  0.00     0.163 HD
ENDROOT
BRANCH   1  15
HETATM   15  C   UNL     1     -43.184  55.107 -53.986  1.00  0.00     0.146 C 
BRANCH  15  16
HETATM   16  C   UNL     1     -41.885  55.404 -54.675  1.00  0.00     0.224 C 
HETATM   17  N   UNL     1     -40.746  54.692 -54.512  1.00  0.00    -0.327 N 
HETATM   18  H   UNL     1     -39.952  55.177 -54.924  1.00  0.00     0.169 HD
HETATM   19  O   UNL     1     -41.794  56.507 -55.236  1.00  0.00    -0.273 OA
BRANCH  17  20
HETATM   20  C   UNL     1     -40.415  53.496 -53.853  1.00  0.00     0.035 A 
HETATM   21  C   UNL     1     -40.185  52.264 -54.464  1.00  0.00     0.036 A 
HETATM   22  C   UNL     1     -39.869  51.128 -53.697  1.00  0.00    -0.060 A 
HETATM   23  C   UNL     1     -39.549  49.818 -54.360  1.00  0.00     0.048 C 
HETATM   24  C   UNL     1     -39.761  51.241 -52.307  1.00  0.00     0.007 A 
HETATM   25  C   UNL     1     -39.958  52.472 -51.690  1.00  0.00     0.003 A 
HETATM   26  C   UNL     1     -40.270  53.591 -52.461  1.00  0.00     0.029 A 
ENDBRANCH  17  20
ENDBRANCH  15  16
ENDBRANCH   1  15
TORSDOF 3
ENDMDL
MODEL 5
REMARK VINA RESULT:      -7.8      3.628      5.424
REMARK  3 active torsions:
REMARK  status: ('A' for Active; 'I' for Inactive)
REMARK    1  A    between atoms: C_4  and  N_5 
REMARK       I    between atoms: N_5  and  C_6 
REMARK    2  A    between atoms: C_6  and  C_7 
REMARK    3  A    between atoms: C_7  and  C_8 
ROOT
HETATM    1  C   UNL     1     -43.471  58.022 -55.194  1.00  0.00     0.286 C 
HETATM    2  N   UNL     1     -42.429  58.394 -56.260  1.00  0.00    -0.056 N 
HETATM    3  H   UNL     1     -42.295  59.420 -56.269  1.00  0.00     0.278 HD
HETATM    4  H   UNL     1     -41.511  58.018 -55.982  1.00  0.00     0.278 HD
HETATM    5  C   UNL     1     -42.840  57.868 -57.602  1.00  0.00     0.209 C 
HETATM    6  C   UNL     1     -42.860  56.326 -57.510  1.00  0.00     0.115 C 
HETATM    7  N   UNL     1     -43.721  55.865 -56.423  1.00  0.00    -0.353 N 
HETATM    8  C   UNL     1     -43.800  56.510 -55.206  1.00  0.00     0.249 C 
HETATM    9  O   UNL     1     -44.197  55.907 -54.215  1.00  0.00    -0.271 OA
HETATM   10  C   UNL     1     -41.889  58.356 -58.685  1.00  0.00     0.035 C 
HETATM   11  C   UNL     1     -42.308  57.767 -60.033  1.00  0.00     0.002 C 
HETATM   12  C   UNL     1     -42.368  56.239 -59.991  1.00  0.00     0.002 C 
HETATM   13  C   UNL     1     -43.253  55.716 -58.857  1.00  0.00     0.027 C 
HETATM   14  H   UNL     1     -43.914  54.867 -56.352  1.00  0.00     0.163 HD
ENDROOT
BRANCH   1  15
HETATM   15  C   UNL     1     -42.992  58.477 -53.820  1.00  0.00     0.146 C 
BRANCH  15  16
HETATM   16  C   UNL     1     -41.494  58.532 -53.856  1.00  0.00     0.224 C 
HETATM   17  N   UNL     1     -40.678  57.504 -53.529  1.00  0.00    -0.327 N 
HETATM   18  H   UNL     1     -39.713  57.818 -53.444  1.00  0.00     0.169 HD
HETATM   19  O   UNL     1     -40.982  59.658 -53.957  1.00  0.00    -0.273 OA
BRANCH  17  20
HETATM   20  C   UNL     1     -40.874  56.148 -53.218  1.00  0.00     0.035 A 
HETATM   21  C   UNL     1     -40.580  55.068 -54.050  1.00  0.00     0.036 A 
HETATM   22  C   UNL     1     -40.830  53.748 -53.632  1.00  0.00    -0.060 A 
HETATM   23  C   UNL     1     -40.446  52.583 -54.499  1.00  0.00     0.048 C 
HETATM   24  C   UNL     1     -41.356  53.516 -52.358  1.00  0.00     0.007 A 
HETATM   25  C   UNL     1     -41.624  54.583 -51.508  1.00  0.00     0.003 A 
HETATM   26  C   UNL     1     -41.371  55.887 -51.932  1.00  0.00     0.029 A 
ENDBRANCH  17  20
ENDBRANCH  15  16
ENDBRANCH   1  15
TORSDOF 3
ENDMDL
MODEL 6
REMARK VINA RESULT:      -7.7      2.074      2.733
REMARK  3 active torsions:
REMARK  status: ('A' for Active; 'I' for Inactive)
REMARK    1  A    between atoms: C_4  and  N_5 
REMARK       I    between atoms: N_5  and  C_6 
REMARK    2  A    between atoms: C_6  and  C_7 
REMARK    3  A    between atoms: C_7  and  C_8 
ROOT
HETATM    1  C   UNL     1     -41.939  57.884 -53.576  1.00  0.00     0.286 C 
HETATM    2  N   UNL     1     -43.088  57.426 -52.664  1.00  0.00    -0.056 N 
HETATM    3  H   UNL     1     -43.684  56.750 -53.172  1.00  0.00     0.278 HD
HETATM    4  H   UNL     1     -42.701  56.887 -51.877  1.00  0.00     0.278 HD
HETATM    5  C   UNL     1     -43.871  58.607 -52.174  1.00  0.00     0.209 C 
HETATM    6  C   UNL     1     -42.922  59.465 -51.308  1.00  0.00     0.115 C 
HETATM    7  N   UNL     1     -41.716  59.840 -52.044  1.00  0.00    -0.353 N 
HETATM    8  C   UNL     1     -41.075  58.984 -52.915  1.00  0.00     0.249 C 
HETATM    9  O   UNL     1     -39.896  59.164 -53.197  1.00  0.00    -0.271 OA
HETATM   10  C   UNL     1     -45.094  58.153 -51.390  1.00  0.00     0.035 C 
HETATM   11  C   UNL     1     -45.845  59.378 -50.866  1.00  0.00     0.002 C 
HETATM   12  C   UNL     1     -44.942  60.278 -50.019  1.00  0.00     0.002 C 
HETATM   13  C   UNL     1     -43.661  60.684 -50.752  1.00  0.00     0.027 C 
HETATM   14  H   UNL     1     -41.082  60.514 -51.617  1.00  0.00     0.163 HD
ENDROOT
BRANCH   1  15
HETATM   15  C   UNL     1     -41.095  56.683 -53.988  1.00  0.00     0.146 C 
BRANCH  15  16
HETATM   16  C   UNL     1     -42.008  55.688 -54.639  1.00  0.00     0.224 C 
HETATM   17  N   UNL     1     -41.924  54.347 -54.479  1.00  0.00    -0.327 N 
HETATM   18  H   UNL     1     -42.515  53.863 -55.153  1.00  0.00     0.169 HD
HETATM   19  O   UNL     1     -42.721  56.110 -55.563  1.00  0.00    -0.273 OA
BRANCH  17  20
HETATM   20  C   UNL     1     -41.166  53.496 -53.658  1.00  0.00     0.035 A 
HETATM   21  C   UNL     1     -41.134  53.521 -52.264  1.00  0.00     0.036 A 
HETATM   22  C   UNL     1     -40.325  52.622 -51.546  1.00  0.00    -0.060 A 
HETATM   23  C   UNL     1     -40.347  52.602 -50.043  1.00  0.00     0.048 C 
HETATM   24  C   UNL     1     -39.563  51.675 -52.237  1.00  0.00     0.007 A 
HETATM   25  C   UNL     1     -39.611  51.620 -53.626  1.00  0.00     0.003 A 
HETATM   26  C   UNL     1     -40.417  52.516 -54.327  1.00  0.00     0.029 A 
ENDBRANCH  17  20
ENDBRANCH  15  16
ENDBRANCH   1  15
TORSDOF 3
ENDMDL
MODEL 7
REMARK VINA RESULT:      -7.6      2.478      7.031
REMARK  3 active torsions:
REMARK  status: ('A' for Active; 'I' for Inactive)
REMARK    1  A    between atoms: C_4  and  N_5 
REMARK       I    between atoms: N_5  and  C_6 
REMARK    2  A    between atoms: C_6  and  C_7 
REMARK    3  A    between atoms: C_7  and  C_8 
ROOT
HETATM    1  C   UNL     1     -43.026  55.166 -53.233  1.00  0.00     0.286 C 
HETATM    2  N   UNL     1     -41.898  54.549 -54.075  1.00  0.00    -0.056 N 
HETATM    3  H   UNL     1     -42.234  54.389 -55.040  1.00  0.00     0.278 HD
HETATM    4  H   UNL     1     -41.138  55.237 -54.178  1.00  0.00     0.278 HD
HETATM    5  C   UNL     1     -41.398  53.287 -53.438  1.00  0.00     0.209 C 
HETATM    6  C   UNL     1     -40.785  53.669 -52.072  1.00  0.00     0.115 C 
HETATM    7  N   UNL     1     -41.742  54.394 -51.238  1.00  0.00    -0.353 N 
HETATM    8  C   UNL     1     -42.623  55.326 -51.748  1.00  0.00     0.249 C 
HETATM    9  O   UNL     1     -43.112  56.176 -51.013  1.00  0.00    -0.271 OA
HETATM   10  C   UNL     1     -40.384  52.596 -54.337  1.00  0.00     0.035 C 
HETATM   11  C   UNL     1     -39.860  51.339 -53.641  1.00  0.00     0.002 C 
HETATM   12  C   UNL     1     -39.263  51.657 -52.268  1.00  0.00     0.002 C 
HETATM   13  C   UNL     1     -40.232  52.428 -51.369  1.00  0.00     0.027 C 
HETATM   14  H   UNL     1     -41.492  54.580 -50.269  1.00  0.00     0.163 HD
ENDROOT
BRANCH   1  15
HETATM   15  C   UNL     1     -43.457  56.496 -53.840  1.00  0.00     0.146 C 
BRANCH  15  16
HETATM   16  C   UNL     1     -42.259  57.098 -54.514  1.00  0.00     0.224 C 
HETATM   17  N   UNL     1     -41.499  58.088 -53.992  1.00  0.00    -0.327 N 
HETATM   18  H   UNL     1     -40.863  58.465 -54.692  1.00  0.00     0.169 HD
HETATM   19  O   UNL     1     -42.110  56.837 -55.718  1.00  0.00    -0.273 OA
BRANCH  17  20
HETATM   20  C   UNL     1     -41.446  58.742 -52.750  1.00  0.00     0.035 A 
HETATM   21  C   UNL     1     -42.359  59.688 -52.285  1.00  0.00     0.036 A 
HETATM   22  C   UNL     1     -42.196  60.285 -51.022  1.00  0.00    -0.060 A 
HETATM   23  C   UNL     1     -43.219  61.250 -50.491  1.00  0.00     0.048 C 
HETATM   24  C   UNL     1     -41.121  59.907 -50.212  1.00  0.00     0.007 A 
HETATM   25  C   UNL     1     -40.221  58.942 -50.653  1.00  0.00     0.003 A 
HETATM   26  C   UNL     1     -40.393  58.356 -51.906  1.00  0.00     0.029 A 
ENDBRANCH  17  20
ENDBRANCH  15  16
ENDBRANCH   1  15
TORSDOF 3
ENDMDL
MODEL 8
REMARK VINA RESULT:      -7.5      3.786      7.451
REMARK  3 active torsions:
REMARK  status: ('A' for Active; 'I' for Inactive)
REMARK    1  A    between atoms: C_4  and  N_5 
REMARK       I    between atoms: N_5  and  C_6 
REMARK    2  A    between atoms: C_6  and  C_7 
REMARK    3  A    between atoms: C_7  and  C_8 
ROOT
HETATM    1  C   UNL     1     -42.305  55.374 -53.911  1.00  0.00     0.286 C 
HETATM    2  N   UNL     1     -41.259  54.442 -54.542  1.00  0.00    -0.056 N 
HETATM    3  H   UNL     1     -41.559  54.182 -55.497  1.00  0.00     0.278 HD
HETATM    4  H   UNL     1     -40.382  54.963 -54.681  1.00  0.00     0.278 HD
HETATM    5  C   UNL     1     -41.038  53.239 -53.675  1.00  0.00     0.209 C 
HETATM    6  C   UNL     1     -40.451  53.734 -52.335  1.00  0.00     0.115 C 
HETATM    7  N   UNL     1     -41.309  54.741 -51.713  1.00  0.00    -0.353 N 
HETATM    8  C   UNL     1     -41.971  55.710 -52.438  1.00  0.00     0.249 C 
HETATM    9  O   UNL     1     -42.341  56.743 -51.891  1.00  0.00    -0.271 OA
HETATM   10  C   UNL     1     -40.114  52.244 -54.362  1.00  0.00     0.035 C 
HETATM   11  C   UNL     1     -39.872  51.051 -53.436  1.00  0.00     0.002 C 
HETATM   12  C   UNL     1     -39.312  51.489 -52.081  1.00  0.00     0.002 C 
HETATM   13  C   UNL     1     -40.178  52.553 -51.402  1.00  0.00     0.027 C 
HETATM   14  H   UNL     1     -41.088  55.042 -50.765  1.00  0.00     0.163 HD
ENDROOT
BRANCH   1  15
HETATM   15  C   UNL     1     -42.448  56.637 -54.753  1.00  0.00     0.146 C 
BRANCH  15  16
HETATM   16  C   UNL     1     -43.876  56.724 -55.202  1.00  0.00     0.224 C 
HETATM   17  N   UNL     1     -44.270  56.995 -56.468  1.00  0.00    -0.327 N 
HETATM   18  H   UNL     1     -45.269  57.189 -56.504  1.00  0.00     0.169 HD
HETATM   19  O   UNL     1     -44.736  56.792 -54.309  1.00  0.00    -0.273 OA
BRANCH  17  20
HETATM   20  C   UNL     1     -43.608  57.134 -57.699  1.00  0.00     0.035 A 
HETATM   21  C   UNL     1     -43.212  58.337 -58.282  1.00  0.00     0.036 A 
HETATM   22  C   UNL     1     -42.562  58.354 -59.530  1.00  0.00    -0.060 A 
HETATM   23  C   UNL     1     -42.070  59.644 -60.123  1.00  0.00     0.048 C 
HETATM   24  C   UNL     1     -42.289  57.147 -60.181  1.00  0.00     0.007 A 
HETATM   25  C   UNL     1     -42.652  55.940 -59.595  1.00  0.00     0.003 A 
HETATM   26  C   UNL     1     -43.294  55.935 -58.358  1.00  0.00     0.029 A 
ENDBRANCH  17  20
ENDBRANCH  15  16
ENDBRANCH   1  15
TORSDOF 3
ENDMDL
MODEL 9
REMARK VINA RESULT:      -7.5      4.239      5.665
REMARK  3 active torsions:
REMARK  status: ('A' for Active; 'I' for Inactive)
REMARK    1  A    between atoms: C_4  and  N_5 
REMARK       I    between atoms: N_5  and  C_6 
REMARK    2  A    between atoms: C_6  and  C_7 
REMARK    3  A    between atoms: C_7  and  C_8 
ROOT
HETATM    1  C   UNL     1     -42.484  56.914 -56.697  1.00  0.00     0.286 C 
HETATM    2  N   UNL     1     -43.234  55.662 -57.178  1.00  0.00    -0.056 N 
HETATM    3  H   UNL     1     -42.647  54.825 -57.018  1.00  0.00     0.278 HD
HETATM    4  H   UNL     1     -44.061  55.514 -56.582  1.00  0.00     0.278 HD
HETATM    5  C   UNL     1     -43.627  55.806 -58.617  1.00  0.00     0.209 C 
HETATM    6  C   UNL     1     -44.616  56.988 -58.712  1.00  0.00     0.115 C 
HETATM    7  N   UNL     1     -44.047  58.210 -58.146  1.00  0.00    -0.353 N 
HETATM    8  C   UNL     1     -43.261  58.214 -57.012  1.00  0.00     0.249 C 
HETATM    9  O   UNL     1     -43.137  59.240 -56.354  1.00  0.00    -0.271 OA
HETATM   10  C   UNL     1     -44.240  54.514 -59.139  1.00  0.00     0.035 C 
HETATM   11  C   UNL     1     -44.671  54.707 -60.594  1.00  0.00     0.002 C 
HETATM   12  C   UNL     1     -45.635  55.885 -60.749  1.00  0.00     0.002 C 
HETATM   13  C   UNL     1     -45.079  57.183 -60.157  1.00  0.00     0.027 C 
HETATM   14  H   UNL     1     -44.558  59.082 -58.272  1.00  0.00     0.163 HD
ENDROOT
BRANCH   1  15
HETATM   15  C   UNL     1     -42.177  56.794 -55.209  1.00  0.00     0.146 C 
BRANCH  15  16
HETATM   16  C   UNL     1     -43.335  56.096 -54.561  1.00  0.00     0.224 C 
HETATM   17  N   UNL     1     -43.258  54.903 -53.926  1.00  0.00    -0.327 N 
HETATM   18  H   UNL     1     -44.187  54.535 -53.731  1.00  0.00     0.169 HD
HETATM   19  O   UNL     1     -44.467  56.525 -54.836  1.00  0.00    -0.273 OA
BRANCH  17  20
HETATM   20  C   UNL     1     -42.207  54.050 -53.553  1.00  0.00     0.035 A 
HETATM   21  C   UNL     1     -41.625  53.976 -52.287  1.00  0.00     0.036 A 
HETATM   22  C   UNL     1     -40.567  53.086 -52.032  1.00  0.00    -0.060 A 
HETATM   23  C   UNL     1     -39.990  52.954 -50.651  1.00  0.00     0.048 C 
HETATM   24  C   UNL     1     -40.109  52.247 -53.053  1.00  0.00     0.007 A 
HETATM   25  C   UNL     1     -40.702  52.290 -54.310  1.00  0.00     0.003 A 
HETATM   26  C   UNL     1     -41.751  53.176 -54.551  1.00  0.00     0.029 A 
ENDBRANCH  17  20
ENDBRANCH  15  16
ENDBRANCH   1  15
TORSDOF 3
ENDMDL
MODEL 10
REMARK VINA RESULT:      -7.5      3.704      5.563
REMARK  3 active torsions:
REMARK  status: ('A' for Active; 'I' for Inactive)
REMARK    1  A    between atoms: C_4  and  N_5 
REMARK       I    between atoms: N_5  and  C_6 
REMARK    2  A    between atoms: C_6  and  C_7 
REMARK    3  A    between atoms: C_7  and  C_8 
ROOT
HETATM    1  C   UNL     1     -42.235  57.685 -55.030  1.00  0.00     0.286 C 
HETATM    2  N   UNL     1     -43.088  56.803 -55.954  1.00  0.00    -0.056 N 
HETATM    3  H   UNL     1     -43.136  55.843 -55.568  1.00  0.00     0.278 HD
HETATM    4  H   UNL     1     -44.063  57.136 -55.935  1.00  0.00     0.278 HD
HETATM    5  C   UNL     1     -42.542  56.821 -57.350  1.00  0.00     0.209 C 
HETATM    6  C   UNL     1     -42.659  58.269 -57.875  1.00  0.00     0.115 C 
HETATM    7  N   UNL     1     -41.994  59.218 -56.984  1.00  0.00    -0.353 N 
HETATM    8  C   UNL     1     -42.030  59.105 -55.609  1.00  0.00     0.249 C 
HETATM    9  O   UNL     1     -41.822  60.087 -54.906  1.00  0.00    -0.271 OA
HETATM   10  C   UNL     1     -43.294  55.837 -58.235  1.00  0.00     0.035 C 
HETATM   11  C   UNL     1     -42.744  55.912 -59.660  1.00  0.00     0.002 C 
HETATM   12  C   UNL     1     -42.814  57.334 -60.221  1.00  0.00     0.002 C 
HETATM   13  C   UNL     1     -42.137  58.361 -59.310  1.00  0.00     0.027 C 
HETATM   14  H   UNL     1     -41.895  60.183 -57.296  1.00  0.00     0.163 HD
ENDROOT
BRANCH   1  15
HETATM   15  C   UNL     1     -42.857  57.735 -53.640  1.00  0.00     0.146 C 
BRANCH  15  16
HETATM   16  C   UNL     1     -43.997  56.760 -53.618  1.00  0.00     0.224 C 
HETATM   17  N   UNL     1     -43.871  55.433 -53.388  1.00  0.00    -0.327 N 
HETATM   18  H   UNL     1     -44.737  54.942 -53.605  1.00  0.00     0.169 HD
HETATM   19  O   UNL     1     -45.079  57.161 -54.076  1.00  0.00    -0.273 OA
BRANCH  17  20
HETATM   20  C   UNL     1     -42.814  54.594 -52.996  1.00  0.00     0.035 A 
HETATM   21  C   UNL     1     -42.042  53.802 -53.846  1.00  0.00     0.036 A 
HETATM   22  C   UNL     1     -41.012  52.992 -53.336  1.00  0.00    -0.060 A 
HETATM   23  C   UNL     1     -40.133  52.195 -54.258  1.00  0.00     0.048 C 
HETATM   24  C   UNL     1     -40.742  53.000 -51.963  1.00  0.00     0.007 A 
HETATM   25  C   UNL     1     -41.485  53.809 -51.111  1.00  0.00     0.003 A 
HETATM   26  C   UNL     1     -42.504  54.609 -51.628  1.00  0.00     0.029 A 
ENDBRANCH  17  20
ENDBRANCH  15  16
ENDBRANCH   1  15
TORSDOF 3
ENDMDL
