MODEL 1
REMARK VINA RESULT:      -8.1      0.000      0.000
REMARK  3 active torsions:
REMARK  status: ('A' for Active; 'I' for Inactive)
REMARK    1  A    between atoms: C_9  and  C_10 
REMARK    2  A    between atoms: C_16  and  C_17 
REMARK       I    between atoms: C_17  and  N_18 
REMARK    3  A    between atoms: N_18  and  C_19 
ROOT
HETATM    1  C   UNL     1     -40.699  56.075 -49.903  1.00  0.00     0.070 C 
HETATM    2  C   UNL     1     -41.737  56.535 -50.896  1.00  0.00     0.037 C 
HETATM    3  N   UNL     1     -42.081  57.882 -50.826  1.00  0.00    -0.191 N 
HETATM    4  C   UNL     1     -43.148  58.397 -51.471  1.00  0.00     0.735 A 
HETATM    5  N   UNL     1     -43.849  57.611 -52.342  1.00  0.00    -0.092 N 
HETATM    6  N   UNL     1     -44.913  58.279 -52.816  1.00  0.00     0.012 NA
HETATM    7  N   UNL     1     -44.822  59.485 -52.264  1.00  0.00     0.033 NA
HETATM    8  N   UNL     1     -43.727  59.572 -51.423  1.00  0.00     0.030 NA
HETATM    9  C   UNL     1     -43.514  56.225 -52.662  1.00  0.00     0.198 C 
HETATM   10  C   UNL     1     -42.380  55.723 -51.773  1.00  0.00     0.062 C 
HETATM   11  H   UNL     1     -41.645  58.440 -50.093  1.00  0.00     0.184 HD
ENDROOT
BRANCH  10  12
HETATM   12  C   UNL     1     -42.140  54.258 -51.877  1.00  0.00     0.257 C 
HETATM   13  N   UNL     1     -41.011  53.950 -52.600  1.00  0.00    -0.308 N 
HETATM   14  H   UNL     1     -40.489  54.707 -53.015  1.00  0.00     0.170 HD
HETATM   15  O   UNL     1     -42.959  53.503 -51.370  1.00  0.00    -0.267 OA
BRANCH  13  16
HETATM   16  C   UNL     1     -40.514  52.658 -52.810  1.00  0.00     0.129 A 
HETATM   17  N   UNL     1     -39.924  51.977 -51.815  1.00  0.00    -0.243 NA
HETATM   18  C   UNL     1     -39.452  50.741 -52.082  1.00  0.00     0.119 A 
HETATM   19  C   UNL     1     -39.530  50.140 -53.325  1.00  0.00     0.019 A 
HETATM   20  C   UNL     1     -40.134  50.852 -54.352  1.00  0.00     0.005 A 
HETATM   21  C   UNL     1     -40.638  52.126 -54.092  1.00  0.00     0.050 A 
ENDBRANCH  13  16
ENDBRANCH  10  12
BRANCH   9  22
HETATM   22  C   UNL     1     -43.185  56.086 -54.146  1.00  0.00    -0.029 A 
HETATM   23  C   UNL     1     -42.540  57.110 -54.864  1.00  0.00     0.009 A 
HETATM   24  C   UNL     1     -42.255  56.952 -56.222  1.00  0.00     0.001 A 
HETATM   25  C   UNL     1     -42.600  55.773 -56.877  1.00  0.00     0.000 A 
HETATM   26  C   UNL     1     -43.224  54.744 -56.176  1.00  0.00     0.001 A 
HETATM   27  C   UNL     1     -43.511  54.897 -54.819  1.00  0.00     0.009 A 
ENDBRANCH   9  22
TORSDOF 3
ENDMDL
MODEL 2
REMARK VINA RESULT:      -8.0      2.430      5.699
REMARK  3 active torsions:
REMARK  status: ('A' for Active; 'I' for Inactive)
REMARK    1  A    between atoms: C_9  and  C_10 
REMARK    2  A    between atoms: C_16  and  C_17 
REMARK       I    between atoms: C_17  and  N_18 
REMARK    3  A    between atoms: N_18  and  C_19 
ROOT
HETATM    1  C   UNL     1     -40.519  53.070 -54.434  1.00  0.00     0.070 C 
HETATM    2  C   UNL     1     -40.966  53.724 -53.151  1.00  0.00     0.037 C 
HETATM    3  N   UNL     1     -40.234  53.385 -52.017  1.00  0.00    -0.191 N 
HETATM    4  C   UNL     1     -40.641  53.688 -50.767  1.00  0.00     0.735 A 
HETATM    5  N   UNL     1     -41.741  54.481 -50.594  1.00  0.00    -0.092 N 
HETATM    6  N   UNL     1     -42.028  54.600 -49.288  1.00  0.00     0.012 NA
HETATM    7  N   UNL     1     -41.067  53.915 -48.674  1.00  0.00     0.033 NA
HETATM    8  N   UNL     1     -40.198  53.342 -49.583  1.00  0.00     0.030 NA
HETATM    9  C   UNL     1     -42.523  55.065 -51.684  1.00  0.00     0.198 C 
HETATM   10  C   UNL     1     -42.045  54.539 -53.034  1.00  0.00     0.062 C 
HETATM   11  H   UNL     1     -39.490  52.698 -52.127  1.00  0.00     0.184 HD
ENDROOT
BRANCH  10  12
HETATM   12  C   UNL     1     -42.936  54.904 -54.169  1.00  0.00     0.257 C 
HETATM   13  N   UNL     1     -42.378  55.840 -55.008  1.00  0.00    -0.308 N 
HETATM   14  H   UNL     1     -41.471  56.213 -54.771  1.00  0.00     0.170 HD
HETATM   15  O   UNL     1     -44.046  54.393 -54.216  1.00  0.00    -0.267 OA
BRANCH  13  16
HETATM   16  C   UNL     1     -42.966  56.324 -56.183  1.00  0.00     0.129 A 
HETATM   17  N   UNL     1     -43.633  57.489 -56.189  1.00  0.00    -0.243 NA
HETATM   18  C   UNL     1     -44.190  57.898 -57.349  1.00  0.00     0.119 A 
HETATM   19  C   UNL     1     -44.124  57.179 -58.528  1.00  0.00     0.019 A 
HETATM   20  C   UNL     1     -43.440  55.972 -58.514  1.00  0.00     0.005 A 
HETATM   21  C   UNL     1     -42.848  55.539 -57.328  1.00  0.00     0.050 A 
ENDBRANCH  13  16
ENDBRANCH  10  12
BRANCH   9  22
HETATM   22  C   UNL     1     -42.478  56.589 -51.612  1.00  0.00    -0.029 A 
HETATM   23  C   UNL     1     -41.273  57.305 -51.732  1.00  0.00     0.009 A 
HETATM   24  C   UNL     1     -41.266  58.699 -51.660  1.00  0.00     0.001 A 
HETATM   25  C   UNL     1     -42.457  59.396 -51.478  1.00  0.00     0.000 A 
HETATM   26  C   UNL     1     -43.661  58.702 -51.374  1.00  0.00     0.001 A 
HETATM   27  C   UNL     1     -43.673  57.309 -51.445  1.00  0.00     0.009 A 
ENDBRANCH   9  22
TORSDOF 3
ENDMDL
MODEL 3
REMARK VINA RESULT:      -7.9      2.718      5.620
REMARK  3 active torsions:
REMARK  status: ('A' for Active; 'I' for Inactive)
REMARK    1  A    between atoms: C_9  and  C_10 
REMARK    2  A    between atoms: C_16  and  C_17 
REMARK       I    between atoms: C_17  and  N_18 
REMARK    3  A    between atoms: N_18  and  C_19 
ROOT
HETATM    1  C   UNL     1     -44.979  59.066 -52.974  1.00  0.00     0.070 C 
HETATM    2  C   UNL     1     -43.522  58.675 -53.021  1.00  0.00     0.037 C 
HETATM    3  N   UNL     1     -42.706  59.286 -52.074  1.00  0.00    -0.191 N 
HETATM    4  C   UNL     1     -41.358  59.232 -52.128  1.00  0.00     0.735 A 
HETATM    5  N   UNL     1     -40.757  58.435 -53.061  1.00  0.00    -0.092 N 
HETATM    6  N   UNL     1     -39.423  58.580 -53.005  1.00  0.00     0.012 NA
HETATM    7  N   UNL     1     -39.223  59.430 -52.003  1.00  0.00     0.033 NA
HETATM    8  N   UNL     1     -40.421  59.844 -51.449  1.00  0.00     0.030 NA
HETATM    9  C   UNL     1     -41.472  57.592 -54.019  1.00  0.00     0.198 C 
HETATM   10  C   UNL     1     -42.975  57.845 -53.945  1.00  0.00     0.062 C 
HETATM   11  H   UNL     1     -43.135  59.973 -51.457  1.00  0.00     0.184 HD
ENDROOT
BRANCH  10  12
HETATM   12  C   UNL     1     -43.746  57.200 -55.042  1.00  0.00     0.257 C 
HETATM   13  N   UNL     1     -43.315  57.577 -56.292  1.00  0.00    -0.308 N 
HETATM   14  H   UNL     1     -42.574  58.259 -56.357  1.00  0.00     0.170 HD
HETATM   15  O   UNL     1     -44.676  56.466 -54.737  1.00  0.00    -0.267 OA
BRANCH  13  16
HETATM   16  C   UNL     1     -43.820  57.085 -57.503  1.00  0.00     0.129 A 
HETATM   17  N   UNL     1     -44.863  57.678 -58.104  1.00  0.00    -0.243 NA
HETATM   18  C   UNL     1     -45.314  57.151 -59.263  1.00  0.00     0.119 A 
HETATM   19  C   UNL     1     -44.771  56.028 -59.858  1.00  0.00     0.019 A 
HETATM   20  C   UNL     1     -43.697  55.414 -59.228  1.00  0.00     0.005 A 
HETATM   21  C   UNL     1     -43.210  55.952 -58.036  1.00  0.00     0.050 A 
ENDBRANCH  13  16
ENDBRANCH  10  12
BRANCH   9  22
HETATM   22  C   UNL     1     -41.126  56.123 -53.795  1.00  0.00    -0.029 A 
HETATM   23  C   UNL     1     -41.340  55.487 -52.558  1.00  0.00     0.009 A 
HETATM   24  C   UNL     1     -41.010  54.141 -52.386  1.00  0.00     0.001 A 
HETATM   25  C   UNL     1     -40.472  53.412 -53.443  1.00  0.00     0.000 A 
HETATM   26  C   UNL     1     -40.270  54.023 -54.678  1.00  0.00     0.001 A 
HETATM   27  C   UNL     1     -40.597  55.367 -54.855  1.00  0.00     0.009 A 
ENDBRANCH   9  22
TORSDOF 3
ENDMDL
MODEL 4
REMARK VINA RESULT:      -7.7      2.673      4.421
REMARK  3 active torsions:
REMARK  status: ('A' for Active; 'I' for Inactive)
REMARK    1  A    between atoms: C_9  and  C_10 
REMARK    2  A    between atoms: C_16  and  C_17 
REMARK       I    between atoms: C_17  and  N_18 
REMARK    3  A    between atoms: N_18  and  C_19 
ROOT
HETATM    1  C   UNL     1     -43.244  55.069 -57.680  1.00  0.00     0.070 C 
HETATM    2  C   UNL     1     -42.930  56.329 -56.912  1.00  0.00     0.037 C 
HETATM    3  N   UNL     1     -42.993  57.510 -57.644  1.00  0.00    -0.191 N 
HETATM    4  C   UNL     1     -42.516  58.684 -57.178  1.00  0.00     0.735 A 
HETATM    5  N   UNL     1     -42.078  58.764 -55.886  1.00  0.00    -0.092 N 
HETATM    6  N   UNL     1     -41.573  59.984 -55.642  1.00  0.00     0.012 NA
HETATM    7  N   UNL     1     -41.753  60.652 -56.778  1.00  0.00     0.033 NA
HETATM    8  N   UNL     1     -42.339  59.853 -57.743  1.00  0.00     0.030 NA
HETATM    9  C   UNL     1     -42.106  57.658 -54.930  1.00  0.00     0.198 C 
HETATM   10  C   UNL     1     -42.536  56.363 -55.613  1.00  0.00     0.062 C 
HETATM   11  H   UNL     1     -43.200  57.436 -58.638  1.00  0.00     0.184 HD
ENDROOT
BRANCH  10  12
HETATM   12  C   UNL     1     -42.366  55.153 -54.765  1.00  0.00     0.257 C 
HETATM   13  N   UNL     1     -41.046  54.830 -54.552  1.00  0.00    -0.308 N 
HETATM   14  H   UNL     1     -40.339  55.390 -55.002  1.00  0.00     0.170 HD
HETATM   15  O   UNL     1     -43.372  54.563 -54.394  1.00  0.00    -0.267 OA
BRANCH  13  16
HETATM   16  C   UNL     1     -40.592  53.776 -53.749  1.00  0.00     0.129 A 
HETATM   17  N   UNL     1     -40.466  53.928 -52.421  1.00  0.00    -0.243 NA
HETATM   18  C   UNL     1     -40.011  52.880 -51.701  1.00  0.00     0.119 A 
HETATM   19  C   UNL     1     -39.653  51.665 -52.254  1.00  0.00     0.019 A 
HETATM   20  C   UNL     1     -39.777  51.517 -53.629  1.00  0.00     0.005 A 
HETATM   21  C   UNL     1     -40.257  52.584 -54.387  1.00  0.00     0.050 A 
ENDBRANCH  13  16
ENDBRANCH  10  12
BRANCH   9  22
HETATM   22  C   UNL     1     -43.000  58.005 -53.743  1.00  0.00    -0.029 A 
HETATM   23  C   UNL     1     -44.345  58.382 -53.908  1.00  0.00     0.009 A 
HETATM   24  C   UNL     1     -45.136  58.696 -52.800  1.00  0.00     0.001 A 
HETATM   25  C   UNL     1     -44.599  58.628 -51.517  1.00  0.00     0.000 A 
HETATM   26  C   UNL     1     -43.274  58.240 -51.336  1.00  0.00     0.001 A 
HETATM   27  C   UNL     1     -42.480  57.927 -52.440  1.00  0.00     0.009 A 
ENDBRANCH   9  22
TORSDOF 3
ENDMDL
MODEL 5
REMARK VINA RESULT:      -7.6     15.373     17.934
REMARK  3 active torsions:
REMARK  status: ('A' for Active; 'I' for Inactive)
REMARK    1  A    between atoms: C_9  and  C_10 
REMARK    2  A    between atoms: C_16  and  C_17 
REMARK       I    between atoms: C_17  and  N_18 
REMARK    3  A    between atoms: N_18  and  C_19 
ROOT
HETATM    1  C   UNL     1     -36.760  40.110 -50.391  1.00  0.00     0.070 C 
HETATM    2  C   UNL     1     -35.266  39.997 -50.566  1.00  0.00     0.037 C 
HETATM    3  N   UNL     1     -34.588  39.345 -49.540  1.00  0.00    -0.191 N 
HETATM    4  C   UNL     1     -33.244  39.367 -49.424  1.00  0.00     0.735 A 
HETATM    5  N   UNL     1     -32.494  39.927 -50.420  1.00  0.00    -0.092 N 
HETATM    6  N   UNL     1     -31.195  39.921 -50.082  1.00  0.00     0.012 NA
HETATM    7  N   UNL     1     -31.161  39.312 -48.901  1.00  0.00     0.033 NA
HETATM    8  N   UNL     1     -32.431  38.963 -48.480  1.00  0.00     0.030 NA
HETATM    9  C   UNL     1     -33.042  40.500 -51.649  1.00  0.00     0.198 C 
HETATM   10  C   UNL     1     -34.566  40.537 -51.597  1.00  0.00     0.062 C 
HETATM   11  H   UNL     1     -35.135  39.036 -48.739  1.00  0.00     0.184 HD
ENDROOT
BRANCH  10  12
HETATM   12  C   UNL     1     -35.186  41.314 -52.703  1.00  0.00     0.257 C 
HETATM   13  N   UNL     1     -35.447  40.548 -53.815  1.00  0.00    -0.308 N 
HETATM   14  H   UNL     1     -35.169  39.578 -53.803  1.00  0.00     0.170 HD
HETATM   15  O   UNL     1     -35.354  42.515 -52.540  1.00  0.00    -0.267 OA
BRANCH  13  16
HETATM   16  C   UNL     1     -36.076  41.004 -54.981  1.00  0.00     0.129 A 
HETATM   17  N   UNL     1     -37.404  40.886 -55.137  1.00  0.00    -0.243 NA
HETATM   18  C   UNL     1     -37.951  41.331 -56.288  1.00  0.00     0.119 A 
HETATM   19  C   UNL     1     -37.221  41.889 -57.321  1.00  0.00     0.019 A 
HETATM   20  C   UNL     1     -35.847  42.000 -57.157  1.00  0.00     0.005 A 
HETATM   21  C   UNL     1     -35.265  41.557 -55.970  1.00  0.00     0.050 A 
ENDBRANCH  13  16
ENDBRANCH  10  12
BRANCH   9  22
HETATM   22  C   UNL     1     -32.528  39.737 -52.866  1.00  0.00    -0.029 A 
HETATM   23  C   UNL     1     -31.945  40.394 -53.966  1.00  0.00     0.009 A 
HETATM   24  C   UNL     1     -31.486  39.666 -55.066  1.00  0.00     0.001 A 
HETATM   25  C   UNL     1     -31.594  38.277 -55.079  1.00  0.00     0.000 A 
HETATM   26  C   UNL     1     -32.154  37.612 -53.992  1.00  0.00     0.001 A 
HETATM   27  C   UNL     1     -32.614  38.335 -52.890  1.00  0.00     0.009 A 
ENDBRANCH   9  22
TORSDOF 3
ENDMDL
MODEL 6
REMARK VINA RESULT:      -7.5      2.337      5.576
REMARK  3 active torsions:
REMARK  status: ('A' for Active; 'I' for Inactive)
REMARK    1  A    between atoms: C_9  and  C_10 
REMARK    2  A    between atoms: C_16  and  C_17 
REMARK       I    between atoms: C_17  and  N_18 
REMARK    3  A    between atoms: N_18  and  C_19 
ROOT
HETATM    1  C   UNL     1     -44.417  56.823 -51.091  1.00  0.00     0.070 C 
HETATM    2  C   UNL     1     -43.109  56.076 -51.015  1.00  0.00     0.037 C 
HETATM    3  N   UNL     1     -42.852  55.435 -49.807  1.00  0.00    -0.191 N 
HETATM    4  C   UNL     1     -41.642  54.928 -49.492  1.00  0.00     0.735 A 
HETATM    5  N   UNL     1     -40.656  54.910 -50.439  1.00  0.00    -0.092 N 
HETATM    6  N   UNL     1     -39.513  54.445 -49.909  1.00  0.00     0.012 NA
HETATM    7  N   UNL     1     -39.829  54.138 -48.655  1.00  0.00     0.033 NA
HETATM    8  N   UNL     1     -41.151  54.435 -48.382  1.00  0.00     0.030 NA
HETATM    9  C   UNL     1     -40.815  55.386 -51.812  1.00  0.00     0.198 C 
HETATM   10  C   UNL     1     -42.174  56.053 -52.000  1.00  0.00     0.062 C 
HETATM   11  H   UNL     1     -43.534  55.551 -49.060  1.00  0.00     0.184 HD
ENDROOT
BRANCH  10  12
HETATM   12  C   UNL     1     -42.319  56.765 -53.298  1.00  0.00     0.257 C 
HETATM   13  N   UNL     1     -43.154  56.114 -54.176  1.00  0.00    -0.308 N 
HETATM   14  H   UNL     1     -43.547  55.229 -53.893  1.00  0.00     0.170 HD
HETATM   15  O   UNL     1     -41.674  57.791 -53.467  1.00  0.00    -0.267 OA
BRANCH  13  16
HETATM   16  C   UNL     1     -43.516  56.583 -55.445  1.00  0.00     0.129 A 
HETATM   17  N   UNL     1     -44.391  57.592 -55.583  1.00  0.00    -0.243 NA
HETATM   18  C   UNL     1     -44.710  57.991 -56.833  1.00  0.00     0.119 A 
HETATM   19  C   UNL     1     -44.199  57.411 -57.979  1.00  0.00     0.019 A 
HETATM   20  C   UNL     1     -43.301  56.363 -57.830  1.00  0.00     0.005 A 
HETATM   21  C   UNL     1     -42.950  55.945 -56.546  1.00  0.00     0.050 A 
ENDBRANCH  13  16
ENDBRANCH  10  12
BRANCH   9  22
HETATM   22  C   UNL     1     -40.595  54.243 -52.799  1.00  0.00    -0.029 A 
HETATM   23  C   UNL     1     -40.646  52.895 -52.400  1.00  0.00     0.009 A 
HETATM   24  C   UNL     1     -40.439  51.872 -53.328  1.00  0.00     0.001 A 
HETATM   25  C   UNL     1     -40.187  52.179 -54.663  1.00  0.00     0.000 A 
HETATM   26  C   UNL     1     -40.149  53.508 -55.076  1.00  0.00     0.001 A 
HETATM   27  C   UNL     1     -40.356  54.534 -54.152  1.00  0.00     0.009 A 
ENDBRANCH   9  22
TORSDOF 3
ENDMDL
MODEL 7
REMARK VINA RESULT:      -7.2      2.702      4.710
REMARK  3 active torsions:
REMARK  status: ('A' for Active; 'I' for Inactive)
REMARK    1  A    between atoms: C_9  and  C_10 
REMARK    2  A    between atoms: C_16  and  C_17 
REMARK       I    between atoms: C_17  and  N_18 
REMARK    3  A    between atoms: N_18  and  C_19 
ROOT
HETATM    1  C   UNL     1     -43.180  54.599 -55.529  1.00  0.00     0.070 C 
HETATM    2  C   UNL     1     -42.933  56.063 -55.266  1.00  0.00     0.037 C 
HETATM    3  N   UNL     1     -42.854  56.872 -56.396  1.00  0.00    -0.191 N 
HETATM    4  C   UNL     1     -42.408  58.145 -56.353  1.00  0.00     0.735 A 
HETATM    5  N   UNL     1     -42.152  58.725 -55.143  1.00  0.00    -0.092 N 
HETATM    6  N   UNL     1     -41.645  59.956 -55.316  1.00  0.00     0.012 NA
HETATM    7  N   UNL     1     -41.643  60.132 -56.634  1.00  0.00     0.033 NA
HETATM    8  N   UNL     1     -42.115  59.011 -57.291  1.00  0.00     0.030 NA
HETATM    9  C   UNL     1     -42.350  58.070 -53.850  1.00  0.00     0.198 C 
HETATM   10  C   UNL     1     -42.724  56.603 -54.038  1.00  0.00     0.062 C 
HETATM   11  H   UNL     1     -42.924  56.417 -57.305  1.00  0.00     0.184 HD
ENDROOT
BRANCH  10  12
HETATM   12  C   UNL     1     -42.714  55.815 -52.776  1.00  0.00     0.257 C 
HETATM   13  N   UNL     1     -41.445  55.590 -52.296  1.00  0.00    -0.308 N 
HETATM   14  H   UNL     1     -40.663  55.926 -52.837  1.00  0.00     0.170 HD
HETATM   15  O   UNL     1     -43.785  55.423 -52.334  1.00  0.00    -0.267 OA
BRANCH  13  16
HETATM   16  C   UNL     1     -41.140  54.927 -51.100  1.00  0.00     0.129 A 
HETATM   17  N   UNL     1     -41.282  55.543 -49.916  1.00  0.00    -0.243 NA
HETATM   18  C   UNL     1     -40.959  54.857 -48.799  1.00  0.00     0.119 A 
HETATM   19  C   UNL     1     -40.477  53.561 -48.805  1.00  0.00     0.019 A 
HETATM   20  C   UNL     1     -40.325  52.932 -50.033  1.00  0.00     0.005 A 
HETATM   21  C   UNL     1     -40.665  53.621 -51.197  1.00  0.00     0.050 A 
ENDBRANCH  13  16
ENDBRANCH  10  12
BRANCH   9  22
HETATM   22  C   UNL     1     -43.388  58.826 -53.026  1.00  0.00    -0.029 A 
HETATM   23  C   UNL     1     -44.694  59.053 -53.499  1.00  0.00     0.009 A 
HETATM   24  C   UNL     1     -45.619  59.750 -52.720  1.00  0.00     0.001 A 
HETATM   25  C   UNL     1     -45.260  60.220 -51.460  1.00  0.00     0.000 A 
HETATM   26  C   UNL     1     -43.977  59.989 -50.971  1.00  0.00     0.001 A 
HETATM   27  C   UNL     1     -43.048  59.294 -51.745  1.00  0.00     0.009 A 
ENDBRANCH   9  22
TORSDOF 3
ENDMDL
MODEL 8
REMARK VINA RESULT:      -7.2      2.285      2.958
REMARK  3 active torsions:
REMARK  status: ('A' for Active; 'I' for Inactive)
REMARK    1  A    between atoms: C_9  and  C_10 
REMARK    2  A    between atoms: C_16  and  C_17 
REMARK       I    between atoms: C_17  and  N_18 
REMARK    3  A    between atoms: N_18  and  C_19 
ROOT
HETATM    1  C   UNL     1     -40.163  59.340 -50.587  1.00  0.00     0.070 C 
HETATM    2  C   UNL     1     -41.643  59.318 -50.876  1.00  0.00     0.037 C 
HETATM    3  N   UNL     1     -42.398  60.286 -50.220  1.00  0.00    -0.191 N 
HETATM    4  C   UNL     1     -43.746  60.258 -50.181  1.00  0.00     0.735 A 
HETATM    5  N   UNL     1     -44.419  59.330 -50.925  1.00  0.00    -0.092 N 
HETATM    6  N   UNL     1     -45.738  59.414 -50.688  1.00  0.00     0.012 NA
HETATM    7  N   UNL     1     -45.860  60.427 -49.837  1.00  0.00     0.033 NA
HETATM    8  N   UNL     1     -44.626  60.961 -49.512  1.00  0.00     0.030 NA
HETATM    9  C   UNL     1     -43.782  58.351 -51.805  1.00  0.00     0.198 C 
HETATM   10  C   UNL     1     -42.264  58.397 -51.657  1.00  0.00     0.062 C 
HETATM   11  H   UNL     1     -41.910  60.900 -49.570  1.00  0.00     0.184 HD
ENDROOT
BRANCH  10  12
HETATM   12  C   UNL     1     -41.561  57.280 -52.342  1.00  0.00     0.257 C 
HETATM   13  N   UNL     1     -41.891  56.046 -51.832  1.00  0.00    -0.308 N 
HETATM   14  H   UNL     1     -42.521  56.008 -51.045  1.00  0.00     0.170 HD
HETATM   15  O   UNL     1     -40.759  57.558 -53.223  1.00  0.00    -0.267 OA
BRANCH  13  16
HETATM   16  C   UNL     1     -41.424  54.819 -52.319  1.00  0.00     0.129 A 
HETATM   17  N   UNL     1     -40.609  54.050 -51.579  1.00  0.00    -0.243 NA
HETATM   18  C   UNL     1     -40.182  52.884 -52.108  1.00  0.00     0.119 A 
HETATM   19  C   UNL     1     -40.524  52.442 -53.372  1.00  0.00     0.019 A 
HETATM   20  C   UNL     1     -41.360  53.244 -54.135  1.00  0.00     0.005 A 
HETATM   21  C   UNL     1     -41.822  54.447 -53.601  1.00  0.00     0.050 A 
ENDBRANCH  13  16
ENDBRANCH  10  12
BRANCH   9  22
HETATM   22  C   UNL     1     -44.225  58.568 -53.249  1.00  0.00    -0.029 A 
HETATM   23  C   UNL     1     -44.118  59.821 -53.880  1.00  0.00     0.009 A 
HETATM   24  C   UNL     1     -44.534  59.987 -55.203  1.00  0.00     0.001 A 
HETATM   25  C   UNL     1     -45.052  58.907 -55.913  1.00  0.00     0.000 A 
HETATM   26  C   UNL     1     -45.150  57.657 -55.308  1.00  0.00     0.001 A 
HETATM   27  C   UNL     1     -44.735  57.487 -53.986  1.00  0.00     0.009 A 
ENDBRANCH   9  22
TORSDOF 3
ENDMDL
MODEL 9
REMARK VINA RESULT:      -7.2      2.672      4.730
REMARK  3 active torsions:
REMARK  status: ('A' for Active; 'I' for Inactive)
REMARK    1  A    between atoms: C_9  and  C_10 
REMARK    2  A    between atoms: C_16  and  C_17 
REMARK       I    between atoms: C_17  and  N_18 
REMARK    3  A    between atoms: N_18  and  C_19 
ROOT
HETATM    1  C   UNL     1     -43.688  54.781 -54.772  1.00  0.00     0.070 C 
HETATM    2  C   UNL     1     -43.108  56.173 -54.718  1.00  0.00     0.037 C 
HETATM    3  N   UNL     1     -43.701  57.105 -55.564  1.00  0.00    -0.191 N 
HETATM    4  C   UNL     1     -43.159  58.315 -55.812  1.00  0.00     0.735 A 
HETATM    5  N   UNL     1     -42.059  58.714 -55.106  1.00  0.00    -0.092 N 
HETATM    6  N   UNL     1     -41.628  59.905 -55.552  1.00  0.00     0.012 NA
HETATM    7  N   UNL     1     -42.502  60.243 -56.495  1.00  0.00     0.033 NA
HETATM    8  N   UNL     1     -43.460  59.261 -56.667  1.00  0.00     0.030 NA
HETATM    9  C   UNL     1     -41.415  57.925 -54.057  1.00  0.00     0.198 C 
HETATM   10  C   UNL     1     -42.035  56.533 -53.969  1.00  0.00     0.062 C 
HETATM   11  H   UNL     1     -44.443  56.775 -56.179  1.00  0.00     0.184 HD
ENDROOT
BRANCH  10  12
HETATM   12  C   UNL     1     -41.284  55.597 -53.089  1.00  0.00     0.257 C 
HETATM   13  N   UNL     1     -41.761  55.575 -51.800  1.00  0.00    -0.308 N 
HETATM   14  H   UNL     1     -42.517  56.198 -51.560  1.00  0.00     0.170 HD
HETATM   15  O   UNL     1     -40.330  54.998 -53.567  1.00  0.00    -0.267 OA
BRANCH  13  16
HETATM   16  C   UNL     1     -41.283  54.748 -50.775  1.00  0.00     0.129 A 
HETATM   17  N   UNL     1     -40.975  53.463 -51.015  1.00  0.00    -0.243 NA
HETATM   18  C   UNL     1     -40.531  52.712 -49.985  1.00  0.00     0.119 A 
HETATM   19  C   UNL     1     -40.389  53.186 -48.694  1.00  0.00     0.019 A 
HETATM   20  C   UNL     1     -40.717  54.512 -48.450  1.00  0.00     0.005 A 
HETATM   21  C   UNL     1     -41.166  55.307 -49.505  1.00  0.00     0.050 A 
ENDBRANCH  13  16
ENDBRANCH  10  12
BRANCH   9  22
HETATM   22  C   UNL     1     -41.474  58.665 -52.724  1.00  0.00    -0.029 A 
HETATM   23  C   UNL     1     -40.317  58.936 -51.970  1.00  0.00     0.009 A 
HETATM   24  C   UNL     1     -40.406  59.613 -50.752  1.00  0.00     0.001 A 
HETATM   25  C   UNL     1     -41.644  60.036 -50.276  1.00  0.00     0.000 A 
HETATM   26  C   UNL     1     -42.797  59.790 -51.018  1.00  0.00     0.001 A 
HETATM   27  C   UNL     1     -42.713  59.112 -52.235  1.00  0.00     0.009 A 
ENDBRANCH   9  22
TORSDOF 3
ENDMDL
MODEL 10
REMARK VINA RESULT:      -7.2      2.953      5.938
REMARK  3 active torsions:
REMARK  status: ('A' for Active; 'I' for Inactive)
REMARK    1  A    between atoms: C_9  and  C_10 
REMARK    2  A    between atoms: C_16  and  C_17 
REMARK       I    between atoms: C_17  and  N_18 
REMARK    3  A    between atoms: N_18  and  C_19 
ROOT
HETATM    1  C   UNL     1     -42.002  59.461 -50.654  1.00  0.00     0.070 C 
HETATM    2  C   UNL     1     -41.680  58.028 -50.994  1.00  0.00     0.037 C 
HETATM    3  N   UNL     1     -41.777  57.123 -49.941  1.00  0.00    -0.191 N 
HETATM    4  C   UNL     1     -41.301  55.863 -50.015  1.00  0.00     0.735 A 
HETATM    5  N   UNL     1     -40.827  55.394 -51.208  1.00  0.00    -0.092 N 
HETATM    6  N   UNL     1     -40.328  54.157 -51.055  1.00  0.00     0.012 NA
HETATM    7  N   UNL     1     -40.549  53.865 -49.777  1.00  0.00     0.033 NA
HETATM    8  N   UNL     1     -41.153  54.920 -49.117  1.00  0.00     0.030 NA
HETATM    9  C   UNL     1     -40.814  56.159 -52.454  1.00  0.00     0.198 C 
HETATM   10  C   UNL     1     -41.249  57.600 -52.209  1.00  0.00     0.062 C 
HETATM   11  H   UNL     1     -42.013  57.496 -49.023  1.00  0.00     0.184 HD
ENDROOT
BRANCH  10  12
HETATM   12  C   UNL     1     -41.040  58.497 -53.378  1.00  0.00     0.257 C 
HETATM   13  N   UNL     1     -42.112  58.511 -54.239  1.00  0.00    -0.308 N 
HETATM   14  H   UNL     1     -42.895  57.909 -54.037  1.00  0.00     0.170 HD
HETATM   15  O   UNL     1     -39.965  59.073 -53.477  1.00  0.00    -0.267 OA
BRANCH  13  16
HETATM   16  C   UNL     1     -42.214  59.305 -55.389  1.00  0.00     0.129 A 
HETATM   17  N   UNL     1     -42.462  60.621 -55.297  1.00  0.00    -0.243 NA
HETATM   18  C   UNL     1     -42.562  61.331 -56.441  1.00  0.00     0.119 A 
HETATM   19  C   UNL     1     -42.438  60.778 -57.702  1.00  0.00     0.019 A 
HETATM   20  C   UNL     1     -42.189  59.415 -57.791  1.00  0.00     0.005 A 
HETATM   21  C   UNL     1     -42.070  58.667 -56.620  1.00  0.00     0.050 A 
ENDBRANCH  13  16
ENDBRANCH  10  12
BRANCH   9  22
HETATM   22  C   UNL     1     -41.677  55.470 -53.508  1.00  0.00    -0.029 A 
HETATM   23  C   UNL     1     -43.043  55.209 -53.297  1.00  0.00     0.009 A 
HETATM   24  C   UNL     1     -43.804  54.575 -54.282  1.00  0.00     0.001 A 
HETATM   25  C   UNL     1     -43.217  54.203 -55.488  1.00  0.00     0.000 A 
HETATM   26  C   UNL     1     -41.869  54.470 -55.718  1.00  0.00     0.001 A 
HETATM   27  C   UNL     1     -41.104  55.102 -54.737  1.00  0.00     0.009 A 
ENDBRANCH   9  22
TORSDOF 3
ENDMDL
