MODEL 1
REMARK VINA RESULT:      -8.9      0.000      0.000
REMARK  7 active torsions:
REMARK  status: ('A' for Active; 'I' for Inactive)
REMARK    1  A    between atoms: C_2  and  O_3 
REMARK    2  A    between atoms: O_3  and  C_4 
REMARK    3  A    between atoms: C_5  and  C_6 
REMARK    4  A    between atoms: C_9  and  C_10 
REMARK       I    between atoms: C_10  and  N_11 
REMARK    5  A    between atoms: N_11  and  C_12 
REMARK    6  A    between atoms: C_25  and  C_26 
REMARK       I    between atoms: C_26  and  N_27 
REMARK    7  A    between atoms: N_27  and  C_28 
ROOT
HETATM    1  C   UNL     1     -44.185  59.328 -51.800  1.00  0.00     0.188 A 
HETATM    2  N   UNL     1     -43.802  58.130 -52.572  1.00  0.00    -0.239 N 
HETATM    3  C   UNL     1     -42.571  57.511 -52.494  1.00  0.00     0.142 A 
HETATM    4  C   UNL     1     -42.628  56.446 -53.371  1.00  0.00     0.097 A 
HETATM    5  C   UNL     1     -43.928  56.529 -53.932  1.00  0.00     0.160 A 
HETATM    6  N   UNL     1     -44.664  57.511 -53.409  1.00  0.00    -0.181 NA
HETATM    7  N   UNL     1     -41.622  58.033 -51.675  1.00  0.00    -0.343 N 
HETATM    8  C   UNL     1     -41.834  59.184 -50.911  1.00  0.00     0.021 A 
HETATM    9  C   UNL     1     -40.697  59.664 -50.047  1.00  0.00     0.069 C 
HETATM   10  C   UNL     1     -43.028  59.819 -50.954  1.00  0.00     0.061 A 
HETATM   11  H   UNL     1     -40.656  57.711 -51.711  1.00  0.00     0.167 HD
ENDROOT
BRANCH   4  12
HETATM   12  C   UNL     1     -41.640  55.438 -53.705  1.00  0.00     0.261 C 
HETATM   13  N   UNL     1     -41.779  54.264 -52.987  1.00  0.00    -0.323 N 
HETATM   14  H   UNL     1     -42.575  54.222 -52.362  1.00  0.00     0.169 HD
HETATM   15  O   UNL     1     -40.830  55.646 -54.598  1.00  0.00    -0.267 OA
BRANCH  13  16
HETATM   16  C   UNL     1     -41.055  53.066 -53.169  1.00  0.00     0.035 A 
HETATM   17  C   UNL     1     -41.130  52.277 -54.323  1.00  0.00     0.032 A 
HETATM   18  C   UNL     1     -40.411  51.080 -54.414  1.00  0.00     0.044 A 
HETATM   19  C   UNL     1     -39.614  50.675 -53.353  1.00  0.00     0.116 A 
HETATM   20  F   UNL     1     -38.933  49.525 -53.439  1.00  0.00    -0.206 F 
HETATM   21  C   UNL     1     -39.516  51.447 -52.204  1.00  0.00     0.044 A 
HETATM   22  C   UNL     1     -40.236  52.643 -52.113  1.00  0.00     0.032 A 
ENDBRANCH  13  16
ENDBRANCH   4  12
BRANCH   1  23
HETATM   23  C   UNL     1     -44.805  60.370 -52.732  1.00  0.00     0.005 A 
HETATM   24  C   UNL     1     -44.119  60.943 -53.817  1.00  0.00     0.077 A 
HETATM   25  C   UNL     1     -44.740  61.891 -54.636  1.00  0.00     0.037 A 
HETATM   26  C   UNL     1     -46.070  62.245 -54.414  1.00  0.00     0.003 A 
HETATM   27  C   UNL     1     -46.775  61.667 -53.363  1.00  0.00     0.001 A 
HETATM   28  C   UNL     1     -46.149  60.741 -52.528  1.00  0.00     0.012 A 
BRANCH  24  29
HETATM   29  O   UNL     1     -42.782  60.667 -53.969  1.00  0.00    -0.351 OA
BRANCH  29  30
HETATM   30  C   UNL     1     -42.376  60.649 -55.343  1.00  0.00     0.171 C 
HETATM   31  C   UNL     1     -42.446  59.210 -55.823  1.00  0.00     0.034 C 
ENDBRANCH  29  30
ENDBRANCH  24  29
ENDBRANCH   1  23
BRANCH  10  32
HETATM   32  C   UNL     1     -43.301  61.023 -50.136  1.00  0.00     0.256 C 
HETATM   33  N   UNL     1     -44.260  60.779 -49.178  1.00  0.00    -0.323 N 
HETATM   34  H   UNL     1     -44.630  59.832 -49.149  1.00  0.00     0.169 HD
HETATM   35  O   UNL     1     -42.669  62.049 -50.342  1.00  0.00    -0.267 OA
BRANCH  33  36
HETATM   36  C   UNL     1     -44.628  61.607 -48.101  1.00  0.00     0.035 A 
HETATM   37  C   UNL     1     -44.867  62.976 -48.216  1.00  0.00     0.029 A 
HETATM   38  C   UNL     1     -45.188  63.734 -47.085  1.00  0.00     0.002 A 
HETATM   39  C   UNL     1     -45.268  63.129 -45.832  1.00  0.00     0.000 A 
HETATM   40  C   UNL     1     -45.037  61.761 -45.709  1.00  0.00     0.002 A 
HETATM   41  C   UNL     1     -44.724  61.004 -46.840  1.00  0.00     0.029 A 
ENDBRANCH  33  36
ENDBRANCH  10  32
TORSDOF 7
ENDMDL
MODEL 2
REMARK VINA RESULT:      -8.8      4.486      8.443
REMARK  7 active torsions:
REMARK  status: ('A' for Active; 'I' for Inactive)
REMARK    1  A    between atoms: C_2  and  O_3 
REMARK    2  A    between atoms: O_3  and  C_4 
REMARK    3  A    between atoms: C_5  and  C_6 
REMARK    4  A    between atoms: C_9  and  C_10 
REMARK       I    between atoms: C_10  and  N_11 
REMARK    5  A    between atoms: N_11  and  C_12 
REMARK    6  A    between atoms: C_25  and  C_26 
REMARK       I    between atoms: C_26  and  N_27 
REMARK    7  A    between atoms: N_27  and  C_28 
ROOT
HETATM    1  C   UNL     1     -42.603  58.122 -53.695  1.00  0.00     0.188 A 
HETATM    2  N   UNL     1     -42.473  59.016 -54.862  1.00  0.00    -0.239 N 
HETATM    3  C   UNL     1     -42.202  58.589 -56.146  1.00  0.00     0.142 A 
HETATM    4  C   UNL     1     -42.158  59.731 -56.921  1.00  0.00     0.097 A 
HETATM    5  C   UNL     1     -42.398  60.783 -56.002  1.00  0.00     0.160 A 
HETATM    6  N   UNL     1     -42.648  60.353 -54.764  1.00  0.00    -0.181 NA
HETATM    7  N   UNL     1     -42.017  57.263 -56.375  1.00  0.00    -0.343 N 
HETATM    8  C   UNL     1     -42.078  56.306 -55.358  1.00  0.00     0.021 A 
HETATM    9  C   UNL     1     -41.849  54.868 -55.743  1.00  0.00     0.069 C 
HETATM   10  C   UNL     1     -42.346  56.681 -54.085  1.00  0.00     0.061 A 
HETATM   11  H   UNL     1     -41.655  56.924 -57.265  1.00  0.00     0.167 HD
ENDROOT
BRANCH   4  12
HETATM   12  C   UNL     1     -41.923  59.903 -58.342  1.00  0.00     0.261 C 
HETATM   13  N   UNL     1     -41.781  61.225 -58.726  1.00  0.00    -0.323 N 
HETATM   14  H   UNL     1     -41.800  61.905 -57.976  1.00  0.00     0.169 HD
HETATM   15  O   UNL     1     -41.801  58.925 -59.067  1.00  0.00    -0.267 OA
BRANCH  13  16
HETATM   16  C   UNL     1     -41.424  61.705 -60.005  1.00  0.00     0.035 A 
HETATM   17  C   UNL     1     -42.130  61.405 -61.176  1.00  0.00     0.032 A 
HETATM   18  C   UNL     1     -41.692  61.888 -62.414  1.00  0.00     0.044 A 
HETATM   19  C   UNL     1     -40.551  62.674 -62.480  1.00  0.00     0.116 A 
HETATM   20  F   UNL     1     -40.129  63.128 -63.666  1.00  0.00    -0.206 F 
HETATM   21  C   UNL     1     -39.842  62.993 -61.330  1.00  0.00     0.044 A 
HETATM   22  C   UNL     1     -40.279  62.509 -60.093  1.00  0.00     0.032 A 
ENDBRANCH  13  16
ENDBRANCH   4  12
BRANCH   1  23
HETATM   23  C   UNL     1     -41.754  58.650 -52.538  1.00  0.00     0.005 A 
HETATM   24  C   UNL     1     -42.290  59.025 -51.293  1.00  0.00     0.077 A 
HETATM   25  C   UNL     1     -41.461  59.501 -50.272  1.00  0.00     0.037 A 
HETATM   26  C   UNL     1     -40.081  59.563 -50.462  1.00  0.00     0.003 A 
HETATM   27  C   UNL     1     -39.529  59.170 -51.676  1.00  0.00     0.001 A 
HETATM   28  C   UNL     1     -40.357  58.720 -52.706  1.00  0.00     0.012 A 
BRANCH  24  29
HETATM   29  O   UNL     1     -43.654  59.056 -51.148  1.00  0.00    -0.351 OA
BRANCH  29  30
HETATM   30  C   UNL     1     -44.186  60.385 -51.218  1.00  0.00     0.171 C 
HETATM   31  C   UNL     1     -45.293  60.382 -52.256  1.00  0.00     0.034 C 
ENDBRANCH  29  30
ENDBRANCH  24  29
ENDBRANCH   1  23
BRANCH  10  32
HETATM   32  C   UNL     1     -42.449  55.693 -52.986  1.00  0.00     0.256 C 
HETATM   33  N   UNL     1     -41.227  55.464 -52.394  1.00  0.00    -0.323 N 
HETATM   34  H   UNL     1     -40.445  55.997 -52.766  1.00  0.00     0.169 HD
HETATM   35  O   UNL     1     -43.541  55.227 -52.695  1.00  0.00    -0.267 OA
BRANCH  33  36
HETATM   36  C   UNL     1     -40.968  54.756 -51.205  1.00  0.00     0.035 A 
HETATM   37  C   UNL     1     -40.579  53.418 -51.164  1.00  0.00     0.029 A 
HETATM   38  C   UNL     1     -40.382  52.779 -49.935  1.00  0.00     0.002 A 
HETATM   39  C   UNL     1     -40.577  53.471 -48.741  1.00  0.00     0.000 A 
HETATM   40  C   UNL     1     -40.961  54.809 -48.774  1.00  0.00     0.002 A 
HETATM   41  C   UNL     1     -41.150  55.449 -50.001  1.00  0.00     0.029 A 
ENDBRANCH  33  36
ENDBRANCH  10  32
TORSDOF 7
ENDMDL
MODEL 3
REMARK VINA RESULT:      -8.8      0.946      2.098
REMARK  7 active torsions:
REMARK  status: ('A' for Active; 'I' for Inactive)
REMARK    1  A    between atoms: C_2  and  O_3 
REMARK    2  A    between atoms: O_3  and  C_4 
REMARK    3  A    between atoms: C_5  and  C_6 
REMARK    4  A    between atoms: C_9  and  C_10 
REMARK       I    between atoms: C_10  and  N_11 
REMARK    5  A    between atoms: N_11  and  C_12 
REMARK    6  A    between atoms: C_25  and  C_26 
REMARK       I    between atoms: C_26  and  N_27 
REMARK    7  A    between atoms: N_27  and  C_28 
ROOT
HETATM    1  C   UNL     1     -43.826  59.469 -52.382  1.00  0.00     0.188 A 
HETATM    2  N   UNL     1     -43.379  58.247 -53.078  1.00  0.00    -0.239 N 
HETATM    3  C   UNL     1     -42.244  57.534 -52.752  1.00  0.00     0.142 A 
HETATM    4  C   UNL     1     -42.193  56.479 -53.643  1.00  0.00     0.097 A 
HETATM    5  C   UNL     1     -43.332  56.665 -54.465  1.00  0.00     0.160 A 
HETATM    6  N   UNL     1     -44.087  57.700 -54.092  1.00  0.00    -0.181 NA
HETATM    7  N   UNL     1     -41.454  57.977 -51.740  1.00  0.00    -0.343 N 
HETATM    8  C   UNL     1     -41.737  59.138 -51.017  1.00  0.00     0.021 A 
HETATM    9  C   UNL     1     -40.778  59.525 -49.921  1.00  0.00     0.069 C 
HETATM   10  C   UNL     1     -42.843  59.865 -51.300  1.00  0.00     0.061 A 
HETATM   11  H   UNL     1     -40.530  57.581 -51.576  1.00  0.00     0.167 HD
ENDROOT
BRANCH   4  12
HETATM   12  C   UNL     1     -41.235  55.398 -53.778  1.00  0.00     0.261 C 
HETATM   13  N   UNL     1     -41.574  54.262 -53.065  1.00  0.00    -0.323 N 
HETATM   14  H   UNL     1     -42.465  54.294 -52.583  1.00  0.00     0.169 HD
HETATM   15  O   UNL     1     -40.274  55.520 -54.526  1.00  0.00    -0.267 OA
BRANCH  13  16
HETATM   16  C   UNL     1     -40.916  53.013 -53.091  1.00  0.00     0.035 A 
HETATM   17  C   UNL     1     -40.117  52.530 -52.049  1.00  0.00     0.032 A 
HETATM   18  C   UNL     1     -39.464  51.297 -52.166  1.00  0.00     0.044 A 
HETATM   19  C   UNL     1     -39.617  50.547 -53.323  1.00  0.00     0.116 A 
HETATM   20  F   UNL     1     -38.985  49.372 -53.436  1.00  0.00    -0.206 F 
HETATM   21  C   UNL     1     -40.413  51.002 -54.364  1.00  0.00     0.044 A 
HETATM   22  C   UNL     1     -41.064  52.234 -54.248  1.00  0.00     0.032 A 
ENDBRANCH  13  16
ENDBRANCH   4  12
BRANCH   1  23
HETATM   23  C   UNL     1     -44.152  60.559 -53.404  1.00  0.00     0.005 A 
HETATM   24  C   UNL     1     -45.398  61.207 -53.474  1.00  0.00     0.077 A 
HETATM   25  C   UNL     1     -45.637  62.197 -54.431  1.00  0.00     0.037 A 
HETATM   26  C   UNL     1     -44.620  62.591 -55.300  1.00  0.00     0.003 A 
HETATM   27  C   UNL     1     -43.371  61.983 -55.227  1.00  0.00     0.001 A 
HETATM   28  C   UNL     1     -43.139  60.975 -54.291  1.00  0.00     0.012 A 
BRANCH  24  29
HETATM   29  O   UNL     1     -46.423  60.746 -52.685  1.00  0.00    -0.351 OA
BRANCH  29  30
HETATM   30  C   UNL     1     -47.442  61.731 -52.474  1.00  0.00     0.171 C 
HETATM   31  C   UNL     1     -47.137  62.432 -51.162  1.00  0.00     0.034 C 
ENDBRANCH  29  30
ENDBRANCH  24  29
ENDBRANCH   1  23
BRANCH  10  32
HETATM   32  C   UNL     1     -43.192  61.085 -50.535  1.00  0.00     0.256 C 
HETATM   33  N   UNL     1     -44.105  60.815 -49.540  1.00  0.00    -0.323 N 
HETATM   34  H   UNL     1     -44.397  59.845 -49.455  1.00  0.00     0.169 HD
HETATM   35  O   UNL     1     -42.649  62.145 -50.809  1.00  0.00    -0.267 OA
BRANCH  33  36
HETATM   36  C   UNL     1     -44.513  61.666 -48.496  1.00  0.00     0.035 A 
HETATM   37  C   UNL     1     -44.509  63.058 -48.578  1.00  0.00     0.029 A 
HETATM   38  C   UNL     1     -44.892  63.830 -47.475  1.00  0.00     0.002 A 
HETATM   39  C   UNL     1     -45.276  63.217 -46.284  1.00  0.00     0.000 A 
HETATM   40  C   UNL     1     -45.288  61.827 -46.197  1.00  0.00     0.002 A 
HETATM   41  C   UNL     1     -44.914  61.056 -47.300  1.00  0.00     0.029 A 
ENDBRANCH  33  36
ENDBRANCH  10  32
TORSDOF 7
ENDMDL
MODEL 4
REMARK VINA RESULT:      -8.6      3.592      6.796
REMARK  7 active torsions:
REMARK  status: ('A' for Active; 'I' for Inactive)
REMARK    1  A    between atoms: C_2  and  O_3 
REMARK    2  A    between atoms: O_3  and  C_4 
REMARK    3  A    between atoms: C_5  and  C_6 
REMARK    4  A    between atoms: C_9  and  C_10 
REMARK       I    between atoms: C_10  and  N_11 
REMARK    5  A    between atoms: N_11  and  C_12 
REMARK    6  A    between atoms: C_25  and  C_26 
REMARK       I    between atoms: C_26  and  N_27 
REMARK    7  A    between atoms: N_27  and  C_28 
ROOT
HETATM    1  C   UNL     1     -42.195  59.446 -55.437  1.00  0.00     0.188 A 
HETATM    2  N   UNL     1     -42.114  58.262 -54.559  1.00  0.00    -0.239 N 
HETATM    3  C   UNL     1     -42.123  56.957 -55.006  1.00  0.00     0.142 A 
HETATM    4  C   UNL     1     -42.037  56.171 -53.873  1.00  0.00     0.097 A 
HETATM    5  C   UNL     1     -41.999  57.103 -52.807  1.00  0.00     0.160 A 
HETATM    6  N   UNL     1     -41.987  58.372 -53.217  1.00  0.00    -0.181 NA
HETATM    7  N   UNL     1     -42.234  56.716 -56.338  1.00  0.00    -0.343 N 
HETATM    8  C   UNL     1     -42.354  57.740 -57.281  1.00  0.00     0.021 A 
HETATM    9  C   UNL     1     -42.477  57.339 -58.729  1.00  0.00     0.069 C 
HETATM   10  C   UNL     1     -42.345  59.034 -56.887  1.00  0.00     0.061 A 
HETATM   11  H   UNL     1     -42.410  55.778 -56.694  1.00  0.00     0.167 HD
ENDROOT
BRANCH   4  12
HETATM   12  C   UNL     1     -41.995  54.729 -53.721  1.00  0.00     0.261 C 
HETATM   13  N   UNL     1     -40.714  54.218 -53.609  1.00  0.00    -0.323 N 
HETATM   14  H   UNL     1     -39.968  54.903 -53.589  1.00  0.00     0.169 HD
HETATM   15  O   UNL     1     -43.036  54.090 -53.637  1.00  0.00    -0.267 OA
BRANCH  13  16
HETATM   16  C   UNL     1     -40.353  52.882 -53.329  1.00  0.00     0.035 A 
HETATM   17  C   UNL     1     -39.950  52.430 -52.068  1.00  0.00     0.032 A 
HETATM   18  C   UNL     1     -39.570  51.097 -51.878  1.00  0.00     0.044 A 
HETATM   19  C   UNL     1     -39.598  50.215 -52.949  1.00  0.00     0.116 A 
HETATM   20  F   UNL     1     -39.226  48.942 -52.767  1.00  0.00    -0.206 F 
HETATM   21  C   UNL     1     -40.005  50.639 -54.206  1.00  0.00     0.044 A 
HETATM   22  C   UNL     1     -40.384  51.972 -54.396  1.00  0.00     0.032 A 
ENDBRANCH  13  16
ENDBRANCH   4  12
BRANCH   1  23
HETATM   23  C   UNL     1     -43.263  60.408 -54.914  1.00  0.00     0.005 A 
HETATM   24  C   UNL     1     -44.637  60.108 -54.906  1.00  0.00     0.077 A 
HETATM   25  C   UNL     1     -45.567  61.029 -54.414  1.00  0.00     0.037 A 
HETATM   26  C   UNL     1     -45.136  62.241 -53.877  1.00  0.00     0.003 A 
HETATM   27  C   UNL     1     -43.779  62.544 -53.849  1.00  0.00     0.001 A 
HETATM   28  C   UNL     1     -42.851  61.638 -54.365  1.00  0.00     0.012 A 
BRANCH  24  29
HETATM   29  O   UNL     1     -45.063  58.959 -55.527  1.00  0.00    -0.351 OA
BRANCH  29  30
HETATM   30  C   UNL     1     -46.080  59.206 -56.504  1.00  0.00     0.171 C 
HETATM   31  C   UNL     1     -46.010  58.089 -57.530  1.00  0.00     0.034 C 
ENDBRANCH  29  30
ENDBRANCH  24  29
ENDBRANCH   1  23
BRANCH  10  32
HETATM   32  C   UNL     1     -42.438  60.147 -57.860  1.00  0.00     0.256 C 
HETATM   33  N   UNL     1     -41.200  60.675 -58.147  1.00  0.00    -0.323 N 
HETATM   34  H   UNL     1     -40.410  60.237 -57.681  1.00  0.00     0.169 HD
HETATM   35  O   UNL     1     -43.528  60.455 -58.322  1.00  0.00    -0.267 OA
BRANCH  33  36
HETATM   36  C   UNL     1     -40.871  61.593 -59.163  1.00  0.00     0.035 A 
HETATM   37  C   UNL     1     -41.391  61.542 -60.456  1.00  0.00     0.029 A 
HETATM   38  C   UNL     1     -40.978  62.470 -61.418  1.00  0.00     0.002 A 
HETATM   39  C   UNL     1     -40.042  63.451 -61.096  1.00  0.00     0.000 A 
HETATM   40  C   UNL     1     -39.522  63.511 -59.805  1.00  0.00     0.002 A 
HETATM   41  C   UNL     1     -39.940  62.589 -58.843  1.00  0.00     0.029 A 
ENDBRANCH  33  36
ENDBRANCH  10  32
TORSDOF 7
ENDMDL
MODEL 5
REMARK VINA RESULT:      -8.6      3.318      8.994
REMARK  7 active torsions:
REMARK  status: ('A' for Active; 'I' for Inactive)
REMARK    1  A    between atoms: C_2  and  O_3 
REMARK    2  A    between atoms: O_3  and  C_4 
REMARK    3  A    between atoms: C_5  and  C_6 
REMARK    4  A    between atoms: C_9  and  C_10 
REMARK       I    between atoms: C_10  and  N_11 
REMARK    5  A    between atoms: N_11  and  C_12 
REMARK    6  A    between atoms: C_25  and  C_26 
REMARK       I    between atoms: C_26  and  N_27 
REMARK    7  A    between atoms: N_27  and  C_28 
ROOT
HETATM    1  C   UNL     1     -42.127  57.534 -53.561  1.00  0.00     0.188 A 
HETATM    2  N   UNL     1     -42.346  58.876 -52.987  1.00  0.00    -0.239 N 
HETATM    3  C   UNL     1     -42.849  59.112 -51.725  1.00  0.00     0.142 A 
HETATM    4  C   UNL     1     -42.900  60.486 -51.590  1.00  0.00     0.097 A 
HETATM    5  C   UNL     1     -42.421  60.973 -52.832  1.00  0.00     0.160 A 
HETATM    6  N   UNL     1     -42.029  60.004 -53.661  1.00  0.00    -0.181 NA
HETATM    7  N   UNL     1     -43.195  58.056 -50.944  1.00  0.00    -0.343 N 
HETATM    8  C   UNL     1     -43.073  56.731 -51.371  1.00  0.00     0.021 A 
HETATM    9  C   UNL     1     -43.497  55.650 -50.411  1.00  0.00     0.069 C 
HETATM   10  C   UNL     1     -42.579  56.455 -52.600  1.00  0.00     0.061 A 
HETATM   11  H   UNL     1     -43.719  58.184 -50.080  1.00  0.00     0.167 HD
ENDROOT
BRANCH   4  12
HETATM   12  C   UNL     1     -43.330  61.315 -50.480  1.00  0.00     0.261 C 
HETATM   13  N   UNL     1     -44.525  60.909 -49.913  1.00  0.00    -0.323 N 
HETATM   14  H   UNL     1     -44.927  60.061 -50.294  1.00  0.00     0.169 HD
HETATM   15  O   UNL     1     -42.620  62.231 -50.087  1.00  0.00    -0.267 OA
BRANCH  13  16
HETATM   16  C   UNL     1     -45.136  61.431 -48.752  1.00  0.00     0.035 A 
HETATM   17  C   UNL     1     -44.674  61.191 -47.453  1.00  0.00     0.032 A 
HETATM   18  C   UNL     1     -45.357  61.712 -46.348  1.00  0.00     0.044 A 
HETATM   19  C   UNL     1     -46.498  62.477 -46.544  1.00  0.00     0.116 A 
HETATM   20  F   UNL     1     -47.154  62.968 -45.486  1.00  0.00    -0.206 F 
HETATM   21  C   UNL     1     -46.967  62.737 -47.824  1.00  0.00     0.044 A 
HETATM   22  C   UNL     1     -46.285  62.215 -48.928  1.00  0.00     0.032 A 
ENDBRANCH  13  16
ENDBRANCH   4  12
BRANCH   1  23
HETATM   23  C   UNL     1     -42.735  57.463 -54.962  1.00  0.00     0.005 A 
HETATM   24  C   UNL     1     -44.017  57.950 -55.275  1.00  0.00     0.077 A 
HETATM   25  C   UNL     1     -44.519  57.857 -56.577  1.00  0.00     0.037 A 
HETATM   26  C   UNL     1     -43.732  57.322 -57.595  1.00  0.00     0.003 A 
HETATM   27  C   UNL     1     -42.451  56.861 -57.312  1.00  0.00     0.001 A 
HETATM   28  C   UNL     1     -41.957  56.928 -56.008  1.00  0.00     0.012 A 
BRANCH  24  29
HETATM   29  O   UNL     1     -44.823  58.383 -54.251  1.00  0.00    -0.351 OA
BRANCH  29  30
HETATM   30  C   UNL     1     -45.490  59.613 -54.557  1.00  0.00     0.171 C 
HETATM   31  C   UNL     1     -45.949  60.224 -53.246  1.00  0.00     0.034 C 
ENDBRANCH  29  30
ENDBRANCH  24  29
ENDBRANCH   1  23
BRANCH  10  32
HETATM   32  C   UNL     1     -42.407  55.062 -53.076  1.00  0.00     0.256 C 
HETATM   33  N   UNL     1     -41.104  54.638 -52.940  1.00  0.00    -0.323 N 
HETATM   34  H   UNL     1     -40.458  55.307 -52.531  1.00  0.00     0.169 HD
HETATM   35  O   UNL     1     -43.376  54.440 -53.485  1.00  0.00    -0.267 OA
BRANCH  33  36
HETATM   36  C   UNL     1     -40.607  53.329 -53.092  1.00  0.00     0.035 A 
HETATM   37  C   UNL     1     -40.648  52.614 -54.288  1.00  0.00     0.029 A 
HETATM   38  C   UNL     1     -40.168  51.300 -54.340  1.00  0.00     0.002 A 
HETATM   39  C   UNL     1     -39.649  50.694 -53.198  1.00  0.00     0.000 A 
HETATM   40  C   UNL     1     -39.600  51.404 -52.001  1.00  0.00     0.002 A 
HETATM   41  C   UNL     1     -40.072  52.717 -51.951  1.00  0.00     0.029 A 
ENDBRANCH  33  36
ENDBRANCH  10  32
TORSDOF 7
ENDMDL
MODEL 6
REMARK VINA RESULT:      -8.5      5.170      7.955
REMARK  7 active torsions:
REMARK  status: ('A' for Active; 'I' for Inactive)
REMARK    1  A    between atoms: C_2  and  O_3 
REMARK    2  A    between atoms: O_3  and  C_4 
REMARK    3  A    between atoms: C_5  and  C_6 
REMARK    4  A    between atoms: C_9  and  C_10 
REMARK       I    between atoms: C_10  and  N_11 
REMARK    5  A    between atoms: N_11  and  C_12 
REMARK    6  A    between atoms: C_25  and  C_26 
REMARK       I    between atoms: C_26  and  N_27 
REMARK    7  A    between atoms: N_27  and  C_28 
ROOT
HETATM    1  C   UNL     1     -43.784  58.964 -57.468  1.00  0.00     0.188 A 
HETATM    2  N   UNL     1     -43.692  57.930 -56.419  1.00  0.00    -0.239 N 
HETATM    3  C   UNL     1     -43.055  56.716 -56.574  1.00  0.00     0.142 A 
HETATM    4  C   UNL     1     -43.206  56.055 -55.371  1.00  0.00     0.097 A 
HETATM    5  C   UNL     1     -43.961  56.953 -54.575  1.00  0.00     0.160 A 
HETATM    6  N   UNL     1     -44.208  58.114 -55.183  1.00  0.00    -0.181 NA
HETATM    7  N   UNL     1     -42.485  56.418 -57.770  1.00  0.00    -0.343 N 
HETATM    8  C   UNL     1     -42.525  57.289 -58.862  1.00  0.00     0.021 A 
HETATM    9  C   UNL     1     -41.859  56.837 -60.136  1.00  0.00     0.069 C 
HETATM   10  C   UNL     1     -43.135  58.491 -58.752  1.00  0.00     0.061 A 
HETATM   11  H   UNL     1     -42.153  55.478 -57.980  1.00  0.00     0.167 HD
ENDROOT
BRANCH   4  12
HETATM   12  C   UNL     1     -42.741  54.750 -54.941  1.00  0.00     0.261 C 
HETATM   13  N   UNL     1     -41.520  54.780 -54.291  1.00  0.00    -0.323 N 
HETATM   14  H   UNL     1     -41.124  55.701 -54.142  1.00  0.00     0.169 HD
HETATM   15  O   UNL     1     -43.445  53.762 -55.106  1.00  0.00    -0.267 OA
BRANCH  13  16
HETATM   16  C   UNL     1     -40.870  53.702 -53.653  1.00  0.00     0.035 A 
HETATM   17  C   UNL     1     -40.281  52.631 -54.335  1.00  0.00     0.032 A 
HETATM   18  C   UNL     1     -39.688  51.578 -53.630  1.00  0.00     0.044 A 
HETATM   19  C   UNL     1     -39.679  51.600 -52.243  1.00  0.00     0.116 A 
HETATM   20  F   UNL     1     -39.118  50.587 -51.570  1.00  0.00    -0.206 F 
HETATM   21  C   UNL     1     -40.246  52.657 -51.546  1.00  0.00     0.044 A 
HETATM   22  C   UNL     1     -40.840  53.709 -52.251  1.00  0.00     0.032 A 
ENDBRANCH  13  16
ENDBRANCH   4  12
BRANCH   1  23
HETATM   23  C   UNL     1     -45.231  59.441 -57.600  1.00  0.00     0.005 A 
HETATM   24  C   UNL     1     -46.286  58.607 -58.010  1.00  0.00     0.077 A 
HETATM   25  C   UNL     1     -47.591  59.100 -58.112  1.00  0.00     0.037 A 
HETATM   26  C   UNL     1     -47.869  60.420 -57.758  1.00  0.00     0.003 A 
HETATM   27  C   UNL     1     -46.845  61.253 -57.322  1.00  0.00     0.001 A 
HETATM   28  C   UNL     1     -45.537  60.770 -57.246  1.00  0.00     0.012 A 
BRANCH  24  29
HETATM   29  O   UNL     1     -45.989  57.341 -58.452  1.00  0.00    -0.351 OA
BRANCH  29  30
HETATM   30  C   UNL     1     -46.609  57.036 -59.707  1.00  0.00     0.171 C 
HETATM   31  C   UNL     1     -45.716  56.044 -60.431  1.00  0.00     0.034 C 
ENDBRANCH  29  30
ENDBRANCH  24  29
ENDBRANCH   1  23
BRANCH  10  32
HETATM   32  C   UNL     1     -43.172  59.454 -59.878  1.00  0.00     0.256 C 
HETATM   33  N   UNL     1     -42.129  60.350 -59.813  1.00  0.00    -0.323 N 
HETATM   34  H   UNL     1     -41.484  60.228 -59.036  1.00  0.00     0.169 HD
HETATM   35  O   UNL     1     -44.043  59.352 -60.730  1.00  0.00    -0.267 OA
BRANCH  33  36
HETATM   36  C   UNL     1     -41.723  61.268 -60.800  1.00  0.00     0.035 A 
HETATM   37  C   UNL     1     -42.200  61.265 -62.110  1.00  0.00     0.029 A 
HETATM   38  C   UNL     1     -41.710  62.188 -63.041  1.00  0.00     0.002 A 
HETATM   39  C   UNL     1     -40.739  63.115 -62.669  1.00  0.00     0.000 A 
HETATM   40  C   UNL     1     -40.261  63.128 -61.361  1.00  0.00     0.002 A 
HETATM   41  C   UNL     1     -40.756  62.211 -60.431  1.00  0.00     0.029 A 
ENDBRANCH  33  36
ENDBRANCH  10  32
TORSDOF 7
ENDMDL
MODEL 7
REMARK VINA RESULT:      -8.4      3.722      9.013
REMARK  7 active torsions:
REMARK  status: ('A' for Active; 'I' for Inactive)
REMARK    1  A    between atoms: C_2  and  O_3 
REMARK    2  A    between atoms: O_3  and  C_4 
REMARK    3  A    between atoms: C_5  and  C_6 
REMARK    4  A    between atoms: C_9  and  C_10 
REMARK       I    between atoms: C_10  and  N_11 
REMARK    5  A    between atoms: N_11  and  C_12 
REMARK    6  A    between atoms: C_25  and  C_26 
REMARK       I    between atoms: C_26  and  N_27 
REMARK    7  A    between atoms: N_27  and  C_28 
ROOT
HETATM    1  C   UNL     1     -42.309  60.312 -53.442  1.00  0.00     0.188 A 
HETATM    2  N   UNL     1     -43.119  61.390 -52.842  1.00  0.00    -0.239 N 
HETATM    3  C   UNL     1     -43.208  61.638 -51.488  1.00  0.00     0.142 A 
HETATM    4  C   UNL     1     -44.063  62.715 -51.358  1.00  0.00     0.097 A 
HETATM    5  C   UNL     1     -44.439  63.021 -52.689  1.00  0.00     0.160 A 
HETATM    6  N   UNL     1     -43.826  62.260 -53.597  1.00  0.00    -0.181 NA
HETATM    7  N   UNL     1     -42.531  60.837 -50.624  1.00  0.00    -0.343 N 
HETATM    8  C   UNL     1     -41.753  59.758 -51.050  1.00  0.00     0.021 A 
HETATM    9  C   UNL     1     -41.057  58.943 -49.991  1.00  0.00     0.069 C 
HETATM   10  C   UNL     1     -41.635  59.482 -52.370  1.00  0.00     0.061 A 
HETATM   11  H   UNL     1     -42.698  60.880 -49.620  1.00  0.00     0.167 HD
ENDROOT
BRANCH   4  12
HETATM   12  C   UNL     1     -44.523  63.423 -50.178  1.00  0.00     0.261 C 
HETATM   13  N   UNL     1     -45.359  62.674 -49.370  1.00  0.00    -0.323 N 
HETATM   14  H   UNL     1     -45.506  61.714 -49.659  1.00  0.00     0.169 HD
HETATM   15  O   UNL     1     -44.115  64.553 -49.943  1.00  0.00    -0.267 OA
BRANCH  13  16
HETATM   16  C   UNL     1     -45.866  63.036 -48.103  1.00  0.00     0.035 A 
HETATM   17  C   UNL     1     -45.200  62.790 -46.897  1.00  0.00     0.032 A 
HETATM   18  C   UNL     1     -45.786  63.145 -45.676  1.00  0.00     0.044 A 
HETATM   19  C   UNL     1     -47.034  63.751 -45.664  1.00  0.00     0.116 A 
HETATM   20  F   UNL     1     -47.596  64.082 -44.494  1.00  0.00    -0.206 F 
HETATM   21  C   UNL     1     -47.706  64.015 -46.848  1.00  0.00     0.044 A 
HETATM   22  C   UNL     1     -47.122  63.659 -48.068  1.00  0.00     0.032 A 
ENDBRANCH  13  16
ENDBRANCH   4  12
BRANCH   1  23
HETATM   23  C   UNL     1     -43.154  59.526 -54.446  1.00  0.00     0.005 A 
HETATM   24  C   UNL     1     -42.787  59.345 -55.792  1.00  0.00     0.077 A 
HETATM   25  C   UNL     1     -43.601  58.615 -56.663  1.00  0.00     0.037 A 
HETATM   26  C   UNL     1     -44.767  58.012 -56.193  1.00  0.00     0.003 A 
HETATM   27  C   UNL     1     -45.132  58.155 -54.859  1.00  0.00     0.001 A 
HETATM   28  C   UNL     1     -44.335  58.906 -53.993  1.00  0.00     0.012 A 
BRANCH  24  29
HETATM   29  O   UNL     1     -41.693  60.023 -56.271  1.00  0.00    -0.351 OA
BRANCH  29  30
HETATM   30  C   UNL     1     -41.680  60.106 -57.701  1.00  0.00     0.171 C 
HETATM   31  C   UNL     1     -41.256  61.515 -58.074  1.00  0.00     0.034 C 
ENDBRANCH  29  30
ENDBRANCH  24  29
ENDBRANCH   1  23
BRANCH  10  32
HETATM   32  C   UNL     1     -40.794  58.365 -52.861  1.00  0.00     0.256 C 
HETATM   33  N   UNL     1     -41.447  57.157 -52.759  1.00  0.00    -0.323 N 
HETATM   34  H   UNL     1     -42.393  57.191 -52.388  1.00  0.00     0.169 HD
HETATM   35  O   UNL     1     -39.685  58.600 -53.317  1.00  0.00    -0.267 OA
BRANCH  33  36
HETATM   36  C   UNL     1     -41.054  55.920 -53.305  1.00  0.00     0.035 A 
HETATM   37  C   UNL     1     -40.759  55.722 -54.653  1.00  0.00     0.029 A 
HETATM   38  C   UNL     1     -40.417  54.448 -55.120  1.00  0.00     0.002 A 
HETATM   39  C   UNL     1     -40.371  53.365 -54.244  1.00  0.00     0.000 A 
HETATM   40  C   UNL     1     -40.659  53.556 -52.895  1.00  0.00     0.002 A 
HETATM   41  C   UNL     1     -40.994  54.829 -52.428  1.00  0.00     0.029 A 
ENDBRANCH  33  36
ENDBRANCH  10  32
TORSDOF 7
ENDMDL
MODEL 8
REMARK VINA RESULT:      -8.2      4.720      9.299
REMARK  7 active torsions:
REMARK  status: ('A' for Active; 'I' for Inactive)
REMARK    1  A    between atoms: C_2  and  O_3 
REMARK    2  A    between atoms: O_3  and  C_4 
REMARK    3  A    between atoms: C_5  and  C_6 
REMARK    4  A    between atoms: C_9  and  C_10 
REMARK       I    between atoms: C_10  and  N_11 
REMARK    5  A    between atoms: N_11  and  C_12 
REMARK    6  A    between atoms: C_25  and  C_26 
REMARK       I    between atoms: C_26  and  N_27 
REMARK    7  A    between atoms: N_27  and  C_28 
ROOT
HETATM    1  C   UNL     1     -43.348  57.700 -54.524  1.00  0.00     0.188 A 
HETATM    2  N   UNL     1     -43.511  58.956 -55.283  1.00  0.00    -0.239 N 
HETATM    3  C   UNL     1     -43.429  59.053 -56.657  1.00  0.00     0.142 A 
HETATM    4  C   UNL     1     -43.633  60.387 -56.953  1.00  0.00     0.097 A 
HETATM    5  C   UNL     1     -43.810  60.999 -55.686  1.00  0.00     0.160 A 
HETATM    6  N   UNL     1     -43.795  60.129 -54.675  1.00  0.00    -0.181 NA
HETATM    7  N   UNL     1     -43.160  57.937 -57.383  1.00  0.00    -0.343 N 
HETATM    8  C   UNL     1     -42.949  56.688 -56.793  1.00  0.00     0.021 A 
HETATM    9  C   UNL     1     -42.652  55.529 -57.710  1.00  0.00     0.069 C 
HETATM   10  C   UNL     1     -43.024  56.547 -55.450  1.00  0.00     0.061 A 
HETATM   11  H   UNL     1     -42.928  57.992 -58.373  1.00  0.00     0.167 HD
ENDROOT
BRANCH   4  12
HETATM   12  C   UNL     1     -43.669  61.081 -58.226  1.00  0.00     0.261 C 
HETATM   13  N   UNL     1     -42.504  60.954 -58.962  1.00  0.00    -0.323 N 
HETATM   14  H   UNL     1     -41.793  60.355 -58.560  1.00  0.00     0.169 HD
HETATM   15  O   UNL     1     -44.692  61.648 -58.587  1.00  0.00    -0.267 OA
BRANCH  13  16
HETATM   16  C   UNL     1     -42.278  61.406 -60.280  1.00  0.00     0.035 A 
HETATM   17  C   UNL     1     -43.006  60.967 -61.391  1.00  0.00     0.032 A 
HETATM   18  C   UNL     1     -42.697  61.433 -62.674  1.00  0.00     0.044 A 
HETATM   19  C   UNL     1     -41.663  62.342 -62.843  1.00  0.00     0.116 A 
HETATM   20  F   UNL     1     -41.363  62.780 -64.072  1.00  0.00    -0.206 F 
HETATM   21  C   UNL     1     -40.935  62.800 -61.754  1.00  0.00     0.044 A 
HETATM   22  C   UNL     1     -41.243  62.333 -60.472  1.00  0.00     0.032 A 
ENDBRANCH  13  16
ENDBRANCH   4  12
BRANCH   1  23
HETATM   23  C   UNL     1     -42.364  57.914 -53.373  1.00  0.00     0.005 A 
HETATM   24  C   UNL     1     -42.543  57.365 -52.090  1.00  0.00     0.077 A 
HETATM   25  C   UNL     1     -41.607  57.596 -51.077  1.00  0.00     0.037 A 
HETATM   26  C   UNL     1     -40.455  58.335 -51.343  1.00  0.00     0.003 A 
HETATM   27  C   UNL     1     -40.246  58.861 -52.613  1.00  0.00     0.001 A 
HETATM   28  C   UNL     1     -41.192  58.656 -53.618  1.00  0.00     0.012 A 
BRANCH  24  29
HETATM   29  O   UNL     1     -43.724  56.725 -51.808  1.00  0.00    -0.351 OA
BRANCH  29  30
HETATM   30  C   UNL     1     -43.668  55.976 -50.589  1.00  0.00     0.171 C 
HETATM   31  C   UNL     1     -43.867  54.512 -50.940  1.00  0.00     0.034 C 
ENDBRANCH  29  30
ENDBRANCH  24  29
ENDBRANCH   1  23
BRANCH  10  32
HETATM   32  C   UNL     1     -42.837  55.233 -54.792  1.00  0.00     0.256 C 
HETATM   33  N   UNL     1     -41.504  54.955 -54.585  1.00  0.00    -0.323 N 
HETATM   34  H   UNL     1     -40.848  55.671 -54.886  1.00  0.00     0.169 HD
HETATM   35  O   UNL     1     -43.815  54.570 -54.477  1.00  0.00    -0.267 OA
BRANCH  33  36
HETATM   36  C   UNL     1     -40.954  53.912 -53.816  1.00  0.00     0.035 A 
HETATM   37  C   UNL     1     -40.712  53.999 -52.445  1.00  0.00     0.029 A 
HETATM   38  C   UNL     1     -40.121  52.929 -51.765  1.00  0.00     0.002 A 
HETATM   39  C   UNL     1     -39.766  51.768 -52.449  1.00  0.00     0.000 A 
HETATM   40  C   UNL     1     -40.010  51.672 -53.817  1.00  0.00     0.002 A 
HETATM   41  C   UNL     1     -40.606  52.737 -54.495  1.00  0.00     0.029 A 
ENDBRANCH  33  36
ENDBRANCH  10  32
TORSDOF 7
ENDMDL
MODEL 9
REMARK VINA RESULT:      -8.2      3.694      9.090
REMARK  7 active torsions:
REMARK  status: ('A' for Active; 'I' for Inactive)
REMARK    1  A    between atoms: C_2  and  O_3 
REMARK    2  A    between atoms: O_3  and  C_4 
REMARK    3  A    between atoms: C_5  and  C_6 
REMARK    4  A    between atoms: C_9  and  C_10 
REMARK       I    between atoms: C_10  and  N_11 
REMARK    5  A    between atoms: N_11  and  C_12 
REMARK    6  A    between atoms: C_25  and  C_26 
REMARK       I    between atoms: C_26  and  N_27 
REMARK    7  A    between atoms: N_27  and  C_28 
ROOT
HETATM    1  C   UNL     1     -42.130  60.314 -53.533  1.00  0.00     0.188 A 
HETATM    2  N   UNL     1     -42.946  61.405 -52.965  1.00  0.00    -0.239 N 
HETATM    3  C   UNL     1     -43.111  61.635 -51.615  1.00  0.00     0.142 A 
HETATM    4  C   UNL     1     -43.942  62.734 -51.518  1.00  0.00     0.097 A 
HETATM    5  C   UNL     1     -44.228  63.071 -52.865  1.00  0.00     0.160 A 
HETATM    6  N   UNL     1     -43.581  62.307 -53.747  1.00  0.00    -0.181 NA
HETATM    7  N   UNL     1     -42.510  60.802 -50.726  1.00  0.00    -0.343 N 
HETATM    8  C   UNL     1     -41.737  59.707 -51.122  1.00  0.00     0.021 A 
HETATM    9  C   UNL     1     -41.130  58.857 -50.036  1.00  0.00     0.069 C 
HETATM   10  C   UNL     1     -41.546  59.449 -52.436  1.00  0.00     0.061 A 
HETATM   11  H   UNL     1     -42.737  60.833 -49.733  1.00  0.00     0.167 HD
ENDROOT
BRANCH   4  12
HETATM   12  C   UNL     1     -44.454  63.436 -50.357  1.00  0.00     0.261 C 
HETATM   13  N   UNL     1     -45.286  62.667 -49.563  1.00  0.00    -0.323 N 
HETATM   14  H   UNL     1     -45.396  61.700 -49.848  1.00  0.00     0.169 HD
HETATM   15  O   UNL     1     -44.088  64.580 -50.121  1.00  0.00    -0.267 OA
BRANCH  13  16
HETATM   16  C   UNL     1     -45.836  63.022 -48.313  1.00  0.00     0.035 A 
HETATM   17  C   UNL     1     -45.207  62.781 -47.086  1.00  0.00     0.032 A 
HETATM   18  C   UNL     1     -45.834  63.129 -45.884  1.00  0.00     0.044 A 
HETATM   19  C   UNL     1     -47.088  63.722 -45.911  1.00  0.00     0.116 A 
HETATM   20  F   UNL     1     -47.690  64.047 -44.760  1.00  0.00    -0.206 F 
HETATM   21  C   UNL     1     -47.725  63.982 -47.116  1.00  0.00     0.044 A 
HETATM   22  C   UNL     1     -47.099  63.633 -48.317  1.00  0.00     0.032 A 
ENDBRANCH  13  16
ENDBRANCH   4  12
BRANCH   1  23
HETATM   23  C   UNL     1     -42.933  59.568 -54.600  1.00  0.00     0.005 A 
HETATM   24  C   UNL     1     -44.185  58.977 -54.354  1.00  0.00     0.077 A 
HETATM   25  C   UNL     1     -44.872  58.308 -55.372  1.00  0.00     0.037 A 
HETATM   26  C   UNL     1     -44.343  58.262 -56.661  1.00  0.00     0.003 A 
HETATM   27  C   UNL     1     -43.120  58.865 -56.931  1.00  0.00     0.001 A 
HETATM   28  C   UNL     1     -42.419  59.510 -55.911  1.00  0.00     0.012 A 
BRANCH  24  29
HETATM   29  O   UNL     1     -44.652  58.939 -53.064  1.00  0.00    -0.351 OA
BRANCH  29  30
HETATM   30  C   UNL     1     -44.779  57.603 -52.563  1.00  0.00     0.171 C 
HETATM   31  C   UNL     1     -44.792  57.681 -51.047  1.00  0.00     0.034 C 
ENDBRANCH  29  30
ENDBRANCH  24  29
ENDBRANCH   1  23
BRANCH  10  32
HETATM   32  C   UNL     1     -40.708  58.316 -52.894  1.00  0.00     0.256 C 
HETATM   33  N   UNL     1     -41.387  57.121 -52.823  1.00  0.00    -0.323 N 
HETATM   34  H   UNL     1     -42.347  57.173 -52.491  1.00  0.00     0.169 HD
HETATM   35  O   UNL     1     -39.576  58.531 -53.304  1.00  0.00    -0.267 OA
BRANCH  33  36
HETATM   36  C   UNL     1     -40.996  55.878 -53.354  1.00  0.00     0.035 A 
HETATM   37  C   UNL     1     -40.666  55.672 -54.693  1.00  0.00     0.029 A 
HETATM   38  C   UNL     1     -40.329  54.392 -55.148  1.00  0.00     0.002 A 
HETATM   39  C   UNL     1     -40.323  53.311 -54.269  1.00  0.00     0.000 A 
HETATM   40  C   UNL     1     -40.645  53.510 -52.929  1.00  0.00     0.002 A 
HETATM   41  C   UNL     1     -40.975  54.788 -52.474  1.00  0.00     0.029 A 
ENDBRANCH  33  36
ENDBRANCH  10  32
TORSDOF 7
ENDMDL
MODEL 10
REMARK VINA RESULT:      -8.2      4.379      7.625
REMARK  7 active torsions:
REMARK  status: ('A' for Active; 'I' for Inactive)
REMARK    1  A    between atoms: C_2  and  O_3 
REMARK    2  A    between atoms: O_3  and  C_4 
REMARK    3  A    between atoms: C_5  and  C_6 
REMARK    4  A    between atoms: C_9  and  C_10 
REMARK       I    between atoms: C_10  and  N_11 
REMARK    5  A    between atoms: N_11  and  C_12 
REMARK    6  A    between atoms: C_25  and  C_26 
REMARK       I    between atoms: C_26  and  N_27 
REMARK    7  A    between atoms: N_27  and  C_28 
ROOT
HETATM    1  C   UNL     1     -42.829  58.704 -56.819  1.00  0.00     0.188 A 
HETATM    2  N   UNL     1     -42.227  58.799 -55.475  1.00  0.00    -0.239 N 
HETATM    3  C   UNL     1     -42.023  57.724 -54.633  1.00  0.00     0.142 A 
HETATM    4  C   UNL     1     -41.450  58.245 -53.489  1.00  0.00     0.097 A 
HETATM    5  C   UNL     1     -41.371  59.637 -53.745  1.00  0.00     0.160 A 
HETATM    6  N   UNL     1     -41.785  59.972 -54.968  1.00  0.00    -0.181 NA
HETATM    7  N   UNL     1     -42.415  56.488 -55.035  1.00  0.00    -0.343 N 
HETATM    8  C   UNL     1     -43.030  56.256 -56.268  1.00  0.00     0.021 A 
HETATM    9  C   UNL     1     -43.422  54.837 -56.593  1.00  0.00     0.069 C 
HETATM   10  C   UNL     1     -43.244  57.280 -57.126  1.00  0.00     0.061 A 
HETATM   11  H   UNL     1     -42.436  55.701 -54.388  1.00  0.00     0.167 HD
ENDROOT
BRANCH   4  12
HETATM   12  C   UNL     1     -41.009  57.596 -52.270  1.00  0.00     0.261 C 
HETATM   13  N   UNL     1     -41.489  56.307 -52.121  1.00  0.00    -0.323 N 
HETATM   14  H   UNL     1     -42.037  55.949 -52.894  1.00  0.00     0.169 HD
HETATM   15  O   UNL     1     -40.228  58.166 -51.520  1.00  0.00    -0.267 OA
BRANCH  13  16
HETATM   16  C   UNL     1     -41.142  55.382 -51.112  1.00  0.00     0.035 A 
HETATM   17  C   UNL     1     -40.593  54.120 -51.366  1.00  0.00     0.032 A 
HETATM   18  C   UNL     1     -40.311  53.242 -50.313  1.00  0.00     0.044 A 
HETATM   19  C   UNL     1     -40.573  53.629 -49.007  1.00  0.00     0.116 A 
HETATM   20  F   UNL     1     -40.310  52.785 -48.002  1.00  0.00    -0.206 F 
HETATM   21  C   UNL     1     -41.106  54.881 -48.732  1.00  0.00     0.044 A 
HETATM   22  C   UNL     1     -41.389  55.758 -49.784  1.00  0.00     0.032 A 
ENDBRANCH  13  16
ENDBRANCH   4  12
BRANCH   1  23
HETATM   23  C   UNL     1     -43.929  59.755 -56.970  1.00  0.00     0.005 A 
HETATM   24  C   UNL     1     -43.966  60.691 -58.018  1.00  0.00     0.077 A 
HETATM   25  C   UNL     1     -45.000  61.629 -58.104  1.00  0.00     0.037 A 
HETATM   26  C   UNL     1     -46.038  61.614 -57.173  1.00  0.00     0.003 A 
HETATM   27  C   UNL     1     -46.035  60.677 -56.146  1.00  0.00     0.001 A 
HETATM   28  C   UNL     1     -44.990  59.758 -56.042  1.00  0.00     0.012 A 
BRANCH  24  29
HETATM   29  O   UNL     1     -42.892  60.766 -58.871  1.00  0.00    -0.351 OA
BRANCH  29  30
HETATM   30  C   UNL     1     -43.266  61.169 -60.194  1.00  0.00     0.171 C 
HETATM   31  C   UNL     1     -43.376  59.914 -61.041  1.00  0.00     0.034 C 
ENDBRANCH  29  30
ENDBRANCH  24  29
ENDBRANCH   1  23
BRANCH  10  32
HETATM   32  C   UNL     1     -43.865  57.068 -58.455  1.00  0.00     0.256 C 
HETATM   33  N   UNL     1     -45.236  57.186 -58.398  1.00  0.00    -0.323 N 
HETATM   34  H   UNL     1     -45.626  57.411 -57.487  1.00  0.00     0.169 HD
HETATM   35  O   UNL     1     -43.154  56.859 -59.427  1.00  0.00    -0.267 OA
BRANCH  33  36
HETATM   36  C   UNL     1     -46.137  57.252 -59.477  1.00  0.00     0.035 A 
HETATM   37  C   UNL     1     -46.538  56.147 -60.226  1.00  0.00     0.029 A 
HETATM   38  C   UNL     1     -47.407  56.308 -61.311  1.00  0.00     0.002 A 
HETATM   39  C   UNL     1     -47.877  57.574 -61.656  1.00  0.00     0.000 A 
HETATM   40  C   UNL     1     -47.485  58.682 -60.909  1.00  0.00     0.002 A 
HETATM   41  C   UNL     1     -46.624  58.520 -59.822  1.00  0.00     0.029 A 
ENDBRANCH  33  36
ENDBRANCH  10  32
TORSDOF 7
ENDMDL
