MODEL 1
REMARK VINA RESULT:      -7.7      0.000      0.000
REMARK  3 active torsions:
REMARK  status: ('A' for Active; 'I' for Inactive)
REMARK    1  A    between atoms: C_6  and  N_7 
REMARK       I    between atoms: N_7  and  C_8 
REMARK    2  A    between atoms: C_8  and  C_9 
REMARK    3  A    between atoms: C_9  and  C_10 
ROOT
HETATM    1  C   UNL     1     -43.450  56.797 -51.596  1.00  0.00     0.286 C 
HETATM    2  N   UNL     1     -43.791  55.692 -52.603  1.00  0.00    -0.056 N 
HETATM    3  H   UNL     1     -43.616  54.768 -52.185  1.00  0.00     0.278 HD
HETATM    4  H   UNL     1     -44.802  55.737 -52.788  1.00  0.00     0.278 HD
HETATM    5  C   UNL     1     -43.057  55.790 -53.913  1.00  0.00     0.209 C 
HETATM    6  C   UNL     1     -43.238  57.205 -54.501  1.00  0.00     0.115 C 
HETATM    7  N   UNL     1     -42.904  58.252 -53.550  1.00  0.00    -0.353 N 
HETATM    8  C   UNL     1     -43.234  58.190 -52.221  1.00  0.00     0.249 C 
HETATM    9  O   UNL     1     -43.245  59.204 -51.528  1.00  0.00    -0.271 OA
HETATM   10  C   UNL     1     -43.583  54.737 -54.884  1.00  0.00     0.035 C 
HETATM   11  C   UNL     1     -42.827  54.832 -56.212  1.00  0.00     0.002 C 
HETATM   12  C   UNL     1     -42.850  56.245 -56.800  1.00  0.00     0.002 C 
HETATM   13  C   UNL     1     -42.424  57.316 -55.792  1.00  0.00     0.027 C 
HETATM   14  H   UNL     1     -42.789  59.204 -53.895  1.00  0.00     0.163 HD
ENDROOT
BRANCH   1  15
HETATM   15  C   UNL     1     -42.285  56.407 -50.677  1.00  0.00     0.146 C 
BRANCH  15  16
HETATM   16  C   UNL     1     -41.958  54.933 -50.786  1.00  0.00     0.224 C 
HETATM   17  N   UNL     1     -40.765  54.670 -51.425  1.00  0.00    -0.327 N 
HETATM   18  H   UNL     1     -40.110  55.436 -51.563  1.00  0.00     0.169 HD
HETATM   19  O   UNL     1     -42.789  54.116 -50.408  1.00  0.00    -0.273 OA
BRANCH  17  20
HETATM   20  C   UNL     1     -40.357  53.442 -51.993  1.00  0.00     0.036 A 
HETATM   21  C   UNL     1     -39.951  52.335 -51.245  1.00  0.00     0.053 A 
HETATM   22  C   UNL     1     -39.647  51.132 -51.889  1.00  0.00     0.036 A 
HETATM   23  C   UNL     1     -39.728  51.023 -53.275  1.00  0.00     0.024 A 
HETATM   24 CL   UNL     1     -39.197  49.760 -50.950  1.00  0.00    -0.084 Cl
HETATM   25  C   UNL     1     -40.119  52.127 -54.027  1.00  0.00     0.004 A 
HETATM   26  C   UNL     1     -40.437  53.328 -53.388  1.00  0.00     0.029 A 
ENDBRANCH  17  20
ENDBRANCH  15  16
ENDBRANCH   1  15
TORSDOF 3
ENDMDL
MODEL 2
REMARK VINA RESULT:      -7.5      2.526      3.354
REMARK  3 active torsions:
REMARK  status: ('A' for Active; 'I' for Inactive)
REMARK    1  A    between atoms: C_6  and  N_7 
REMARK       I    between atoms: N_7  and  C_8 
REMARK    2  A    between atoms: C_8  and  C_9 
REMARK    3  A    between atoms: C_9  and  C_10 
ROOT
HETATM    1  C   UNL     1     -43.707  56.435 -55.102  1.00  0.00     0.286 C 
HETATM    2  N   UNL     1     -43.417  55.721 -56.428  1.00  0.00    -0.056 N 
HETATM    3  H   UNL     1     -42.644  55.053 -56.307  1.00  0.00     0.278 HD
HETATM    4  H   UNL     1     -44.245  55.161 -56.671  1.00  0.00     0.278 HD
HETATM    5  C   UNL     1     -43.103  56.639 -57.578  1.00  0.00     0.209 C 
HETATM    6  C   UNL     1     -44.212  57.703 -57.707  1.00  0.00     0.115 C 
HETATM    7  N   UNL     1     -44.479  58.387 -56.453  1.00  0.00    -0.353 N 
HETATM    8  C   UNL     1     -44.504  57.747 -55.241  1.00  0.00     0.249 C 
HETATM    9  O   UNL     1     -45.051  58.262 -54.269  1.00  0.00    -0.271 OA
HETATM   10  C   UNL     1     -42.983  55.834 -58.869  1.00  0.00     0.035 C 
HETATM   11  C   UNL     1     -42.651  56.769 -60.035  1.00  0.00     0.002 C 
HETATM   12  C   UNL     1     -43.639  57.932 -60.151  1.00  0.00     0.002 C 
HETATM   13  C   UNL     1     -43.842  58.676 -58.829  1.00  0.00     0.027 C 
HETATM   14  H   UNL     1     -45.038  59.239 -56.473  1.00  0.00     0.163 HD
ENDROOT
BRANCH   1  15
HETATM   15  C   UNL     1     -42.440  56.634 -54.260  1.00  0.00     0.146 C 
BRANCH  15  16
HETATM   16  C   UNL     1     -41.517  55.437 -54.349  1.00  0.00     0.224 C 
HETATM   17  N   UNL     1     -41.917  54.364 -53.581  1.00  0.00    -0.327 N 
HETATM   18  H   UNL     1     -42.865  54.357 -53.214  1.00  0.00     0.169 HD
HETATM   19  O   UNL     1     -40.475  55.543 -54.985  1.00  0.00    -0.273 OA
BRANCH  17  20
HETATM   20  C   UNL     1     -41.122  53.270 -53.168  1.00  0.00     0.036 A 
HETATM   21  C   UNL     1     -40.772  52.205 -53.999  1.00  0.00     0.053 A 
HETATM   22  C   UNL     1     -39.910  51.209 -53.532  1.00  0.00     0.036 A 
HETATM   23  C   UNL     1     -39.402  51.255 -52.236  1.00  0.00     0.024 A 
HETATM   24 CL   UNL     1     -39.446  49.928 -54.584  1.00  0.00    -0.084 Cl
HETATM   25  C   UNL     1     -39.759  52.307 -51.397  1.00  0.00     0.004 A 
HETATM   26  C   UNL     1     -40.610  53.313 -51.864  1.00  0.00     0.029 A 
ENDBRANCH  17  20
ENDBRANCH  15  16
ENDBRANCH   1  15
TORSDOF 3
ENDMDL
MODEL 3
REMARK VINA RESULT:      -7.4      3.053      6.376
REMARK  3 active torsions:
REMARK  status: ('A' for Active; 'I' for Inactive)
REMARK    1  A    between atoms: C_6  and  N_7 
REMARK       I    between atoms: N_7  and  C_8 
REMARK    2  A    between atoms: C_8  and  C_9 
REMARK    3  A    between atoms: C_9  and  C_10 
ROOT
HETATM    1  C   UNL     1     -40.922  53.990 -51.122  1.00  0.00     0.286 C 
HETATM    2  N   UNL     1     -40.442  53.589 -52.521  1.00  0.00    -0.056 N 
HETATM    3  H   UNL     1     -40.996  54.077 -53.237  1.00  0.00     0.278 HD
HETATM    4  H   UNL     1     -39.474  53.923 -52.629  1.00  0.00     0.278 HD
HETATM    5  C   UNL     1     -40.472  52.109 -52.794  1.00  0.00     0.209 C 
HETATM    6  C   UNL     1     -39.721  51.362 -51.673  1.00  0.00     0.115 C 
HETATM    7  N   UNL     1     -40.184  51.735 -50.345  1.00  0.00    -0.353 N 
HETATM    8  C   UNL     1     -40.503  53.022 -49.997  1.00  0.00     0.249 C 
HETATM    9  O   UNL     1     -40.561  53.357 -48.817  1.00  0.00    -0.271 OA
HETATM   10  C   UNL     1     -39.834  51.817 -54.149  1.00  0.00     0.035 C 
HETATM   11  C   UNL     1     -39.877  50.312 -54.429  1.00  0.00     0.002 C 
HETATM   12  C   UNL     1     -39.264  49.487 -53.295  1.00  0.00     0.002 C 
HETATM   13  C   UNL     1     -39.826  49.856 -51.919  1.00  0.00     0.027 C 
HETATM   14  H   UNL     1     -39.906  51.157 -49.554  1.00  0.00     0.163 HD
ENDROOT
BRANCH   1  15
HETATM   15  C   UNL     1     -42.429  54.276 -51.083  1.00  0.00     0.146 C 
BRANCH  15  16
HETATM   16  C   UNL     1     -42.804  55.414 -52.008  1.00  0.00     0.224 C 
HETATM   17  N   UNL     1     -43.481  55.015 -53.141  1.00  0.00    -0.327 N 
HETATM   18  H   UNL     1     -43.869  54.075 -53.168  1.00  0.00     0.169 HD
HETATM   19  O   UNL     1     -42.405  56.542 -51.745  1.00  0.00    -0.273 OA
BRANCH  17  20
HETATM   20  C   UNL     1     -43.649  55.752 -54.336  1.00  0.00     0.036 A 
HETATM   21  C   UNL     1     -44.447  56.892 -54.442  1.00  0.00     0.053 A 
HETATM   22  C   UNL     1     -44.484  57.608 -55.643  1.00  0.00     0.036 A 
HETATM   23  C   UNL     1     -43.745  57.190 -56.746  1.00  0.00     0.024 A 
HETATM   24 CL   UNL     1     -45.434  59.040 -55.744  1.00  0.00    -0.084 Cl
HETATM   25  C   UNL     1     -42.959  56.046 -56.651  1.00  0.00     0.004 A 
HETATM   26  C   UNL     1     -42.906  55.334 -55.449  1.00  0.00     0.029 A 
ENDBRANCH  17  20
ENDBRANCH  15  16
ENDBRANCH   1  15
TORSDOF 3
ENDMDL
MODEL 4
REMARK VINA RESULT:      -7.3      3.715      6.717
REMARK  3 active torsions:
REMARK  status: ('A' for Active; 'I' for Inactive)
REMARK    1  A    between atoms: C_6  and  N_7 
REMARK       I    between atoms: N_7  and  C_8 
REMARK    2  A    between atoms: C_8  and  C_9 
REMARK    3  A    between atoms: C_9  and  C_10 
ROOT
HETATM    1  C   UNL     1     -41.097  53.929 -51.532  1.00  0.00     0.286 C 
HETATM    2  N   UNL     1     -40.636  53.429 -52.905  1.00  0.00    -0.056 N 
HETATM    3  H   UNL     1     -41.257  53.794 -53.640  1.00  0.00     0.278 HD
HETATM    4  H   UNL     1     -39.706  53.831 -53.090  1.00  0.00     0.278 HD
HETATM    5  C   UNL     1     -40.547  51.932 -53.030  1.00  0.00     0.209 C 
HETATM    6  C   UNL     1     -39.692  51.368 -51.876  1.00  0.00     0.115 C 
HETATM    7  N   UNL     1     -40.136  51.834 -50.572  1.00  0.00    -0.353 N 
HETATM    8  C   UNL     1     -40.553  53.119 -50.338  1.00  0.00     0.249 C 
HETATM    9  O   UNL     1     -40.597  53.567 -49.195  1.00  0.00    -0.271 OA
HETATM   10  C   UNL     1     -39.937  51.557 -54.378  1.00  0.00     0.035 C 
HETATM   11  C   UNL     1     -39.858  50.034 -54.506  1.00  0.00     0.002 C 
HETATM   12  C   UNL     1     -39.133  49.383 -53.325  1.00  0.00     0.002 C 
HETATM   13  C   UNL     1     -39.673  49.841 -51.968  1.00  0.00     0.027 C 
HETATM   14  H   UNL     1     -39.779  51.366 -49.741  1.00  0.00     0.163 HD
ENDROOT
BRANCH   1  15
HETATM   15  C   UNL     1     -42.621  54.091 -51.453  1.00  0.00     0.146 C 
BRANCH  15  16
HETATM   16  C   UNL     1     -43.018  55.535 -51.231  1.00  0.00     0.224 C 
HETATM   17  N   UNL     1     -42.106  56.447 -51.719  1.00  0.00    -0.327 N 
HETATM   18  H   UNL     1     -41.390  56.120 -52.362  1.00  0.00     0.169 HD
HETATM   19  O   UNL     1     -44.023  55.774 -50.573  1.00  0.00    -0.273 OA
BRANCH  17  20
HETATM   20  C   UNL     1     -41.999  57.812 -51.368  1.00  0.00     0.036 A 
HETATM   21  C   UNL     1     -42.877  58.802 -51.812  1.00  0.00     0.053 A 
HETATM   22  C   UNL     1     -42.746  60.113 -51.344  1.00  0.00     0.036 A 
HETATM   23  C   UNL     1     -41.737  60.453 -50.447  1.00  0.00     0.024 A 
HETATM   24 CL   UNL     1     -43.867  61.312 -51.862  1.00  0.00    -0.084 Cl
HETATM   25  C   UNL     1     -40.849  59.473 -50.011  1.00  0.00     0.004 A 
HETATM   26  C   UNL     1     -40.984  58.159 -50.465  1.00  0.00     0.029 A 
ENDBRANCH  17  20
ENDBRANCH  15  16
ENDBRANCH   1  15
TORSDOF 3
ENDMDL
MODEL 5
REMARK VINA RESULT:      -7.3      3.585      6.902
REMARK  3 active torsions:
REMARK  status: ('A' for Active; 'I' for Inactive)
REMARK    1  A    between atoms: C_6  and  N_7 
REMARK       I    between atoms: N_7  and  C_8 
REMARK    2  A    between atoms: C_8  and  C_9 
REMARK    3  A    between atoms: C_9  and  C_10 
ROOT
HETATM    1  C   UNL     1     -40.883  54.110 -50.915  1.00  0.00     0.286 C 
HETATM    2  N   UNL     1     -40.447  53.794 -52.350  1.00  0.00    -0.056 N 
HETATM    3  H   UNL     1     -41.011  54.338 -53.018  1.00  0.00     0.278 HD
HETATM    4  H   UNL     1     -39.477  54.117 -52.463  1.00  0.00     0.278 HD
HETATM    5  C   UNL     1     -40.514  52.336 -52.719  1.00  0.00     0.209 C 
HETATM    6  C   UNL     1     -39.749  51.503 -51.670  1.00  0.00     0.115 C 
HETATM    7  N   UNL     1     -40.170  51.796 -50.309  1.00  0.00    -0.353 N 
HETATM    8  C   UNL     1     -40.454  53.062 -49.869  1.00  0.00     0.249 C 
HETATM    9  O   UNL     1     -40.475  53.320 -48.668  1.00  0.00    -0.271 OA
HETATM   10  C   UNL     1     -39.919  52.122 -54.107  1.00  0.00     0.035 C 
HETATM   11  C   UNL     1     -39.999  50.641 -54.484  1.00  0.00     0.002 C 
HETATM   12  C   UNL     1     -39.372  49.732 -53.424  1.00  0.00     0.002 C 
HETATM   13  C   UNL     1     -39.890  50.019 -52.012  1.00  0.00     0.027 C 
HETATM   14  H   UNL     1     -39.882  51.162 -49.565  1.00  0.00     0.163 HD
ENDROOT
BRANCH   1  15
HETATM   15  C   UNL     1     -42.382  54.420 -50.817  1.00  0.00     0.146 C 
BRANCH  15  16
HETATM   16  C   UNL     1     -42.661  55.894 -51.020  1.00  0.00     0.224 C 
HETATM   17  N   UNL     1     -43.995  56.190 -51.208  1.00  0.00    -0.327 N 
HETATM   18  H   UNL     1     -44.686  55.480 -50.978  1.00  0.00     0.169 HD
HETATM   19  O   UNL     1     -41.714  56.667 -51.103  1.00  0.00    -0.273 OA
BRANCH  17  20
HETATM   20  C   UNL     1     -44.533  57.372 -51.766  1.00  0.00     0.036 A 
HETATM   21  C   UNL     1     -45.059  58.421 -51.009  1.00  0.00     0.053 A 
HETATM   22  C   UNL     1     -45.491  59.590 -51.643  1.00  0.00     0.036 A 
HETATM   23  C   UNL     1     -45.419  59.721 -53.027  1.00  0.00     0.024 A 
HETATM   24 CL   UNL     1     -46.090  60.895 -50.693  1.00  0.00    -0.084 Cl
HETATM   25  C   UNL     1     -44.909  58.673 -53.788  1.00  0.00     0.004 A 
HETATM   26  C   UNL     1     -44.463  57.507 -53.159  1.00  0.00     0.029 A 
ENDBRANCH  17  20
ENDBRANCH  15  16
ENDBRANCH   1  15
TORSDOF 3
ENDMDL
MODEL 6
REMARK VINA RESULT:      -7.2      3.846      7.292
REMARK  3 active torsions:
REMARK  status: ('A' for Active; 'I' for Inactive)
REMARK    1  A    between atoms: C_6  and  N_7 
REMARK       I    between atoms: N_7  and  C_8 
REMARK    2  A    between atoms: C_8  and  C_9 
REMARK    3  A    between atoms: C_9  and  C_10 
ROOT
HETATM    1  C   UNL     1     -41.768  53.561 -53.856  1.00  0.00     0.286 C 
HETATM    2  N   UNL     1     -42.449  54.141 -52.612  1.00  0.00    -0.056 N 
HETATM    3  H   UNL     1     -43.002  54.971 -52.867  1.00  0.00     0.278 HD
HETATM    4  H   UNL     1     -43.123  53.443 -52.268  1.00  0.00     0.278 HD
HETATM    5  C   UNL     1     -41.511  54.497 -51.491  1.00  0.00     0.209 C 
HETATM    6  C   UNL     1     -40.614  53.285 -51.165  1.00  0.00     0.115 C 
HETATM    7  N   UNL     1     -39.959  52.741 -52.344  1.00  0.00    -0.353 N 
HETATM    8  C   UNL     1     -40.582  52.622 -53.559  1.00  0.00     0.249 C 
HETATM    9  O   UNL     1     -40.136  51.871 -54.422  1.00  0.00    -0.271 OA
HETATM   10  C   UNL     1     -42.306  54.918 -50.259  1.00  0.00     0.035 C 
HETATM   11  C   UNL     1     -41.348  55.291 -49.124  1.00  0.00     0.002 C 
HETATM   12  C   UNL     1     -40.336  54.182 -48.825  1.00  0.00     0.002 C 
HETATM   13  C   UNL     1     -39.612  53.683 -50.079  1.00  0.00     0.027 C 
HETATM   14  H   UNL     1     -39.193  52.082 -52.213  1.00  0.00     0.163 HD
ENDROOT
BRANCH   1  15
HETATM   15  C   UNL     1     -41.383  54.648 -54.868  1.00  0.00     0.146 C 
BRANCH  15  16
HETATM   16  C   UNL     1     -42.569  55.073 -55.708  1.00  0.00     0.224 C 
HETATM   17  N   UNL     1     -42.283  55.219 -57.049  1.00  0.00    -0.327 N 
HETATM   18  H   UNL     1     -41.413  54.828 -57.403  1.00  0.00     0.169 HD
HETATM   19  O   UNL     1     -43.622  55.345 -55.143  1.00  0.00    -0.273 OA
BRANCH  17  20
HETATM   20  C   UNL     1     -43.041  55.927 -58.008  1.00  0.00     0.036 A 
HETATM   21  C   UNL     1     -43.706  55.323 -59.076  1.00  0.00     0.053 A 
HETATM   22  C   UNL     1     -44.505  56.093 -59.927  1.00  0.00     0.036 A 
HETATM   23  C   UNL     1     -44.636  57.465 -59.734  1.00  0.00     0.024 A 
HETATM   24 CL   UNL     1     -45.359  55.326 -61.209  1.00  0.00    -0.084 Cl
HETATM   25  C   UNL     1     -43.964  58.077 -58.680  1.00  0.00     0.004 A 
HETATM   26  C   UNL     1     -43.175  57.309 -57.818  1.00  0.00     0.029 A 
ENDBRANCH  17  20
ENDBRANCH  15  16
ENDBRANCH   1  15
TORSDOF 3
ENDMDL
MODEL 7
REMARK VINA RESULT:      -7.1      2.747      3.803
REMARK  3 active torsions:
REMARK  status: ('A' for Active; 'I' for Inactive)
REMARK    1  A    between atoms: C_6  and  N_7 
REMARK       I    between atoms: N_7  and  C_8 
REMARK    2  A    between atoms: C_8  and  C_9 
REMARK    3  A    between atoms: C_9  and  C_10 
ROOT
HETATM    1  C   UNL     1     -41.860  55.966 -51.457  1.00  0.00     0.286 C 
HETATM    2  N   UNL     1     -41.801  57.421 -51.935  1.00  0.00    -0.056 N 
HETATM    3  H   UNL     1     -40.875  57.821 -51.731  1.00  0.00     0.278 HD
HETATM    4  H   UNL     1     -41.894  57.419 -52.960  1.00  0.00     0.278 HD
HETATM    5  C   UNL     1     -42.865  58.314 -51.357  1.00  0.00     0.209 C 
HETATM    6  C   UNL     1     -44.251  57.674 -51.577  1.00  0.00     0.115 C 
HETATM    7  N   UNL     1     -44.311  56.297 -51.114  1.00  0.00    -0.353 N 
HETATM    8  C   UNL     1     -43.286  55.403 -51.288  1.00  0.00     0.249 C 
HETATM    9  O   UNL     1     -43.484  54.195 -51.198  1.00  0.00    -0.271 OA
HETATM   10  C   UNL     1     -42.803  59.690 -52.014  1.00  0.00     0.035 C 
HETATM   11  C   UNL     1     -43.879  60.600 -51.416  1.00  0.00     0.002 C 
HETATM   12  C   UNL     1     -45.276  59.975 -51.479  1.00  0.00     0.002 C 
HETATM   13  C   UNL     1     -45.317  58.551 -50.917  1.00  0.00     0.027 C 
HETATM   14  H   UNL     1     -45.224  55.854 -51.021  1.00  0.00     0.163 HD
ENDROOT
BRANCH   1  15
HETATM   15  C   UNL     1     -41.012  55.731 -50.201  1.00  0.00     0.146 C 
BRANCH  15  16
HETATM   16  C   UNL     1     -40.310  54.390 -50.245  1.00  0.00     0.224 C 
HETATM   17  N   UNL     1     -40.401  53.750 -51.463  1.00  0.00    -0.327 N 
HETATM   18  H   UNL     1     -40.707  54.287 -52.270  1.00  0.00     0.169 HD
HETATM   19  O   UNL     1     -39.825  53.945 -49.211  1.00  0.00    -0.273 OA
BRANCH  17  20
HETATM   20  C   UNL     1     -40.179  52.378 -51.721  1.00  0.00     0.036 A 
HETATM   21  C   UNL     1     -39.976  51.849 -52.997  1.00  0.00     0.053 A 
HETATM   22  C   UNL     1     -39.678  50.492 -53.150  1.00  0.00     0.036 A 
HETATM   23  C   UNL     1     -39.594  49.650 -52.044  1.00  0.00     0.024 A 
HETATM   24 CL   UNL     1     -39.380  49.863 -54.725  1.00  0.00    -0.084 Cl
HETATM   25  C   UNL     1     -39.810  50.168 -50.770  1.00  0.00     0.004 A 
HETATM   26  C   UNL     1     -40.095  51.527 -50.610  1.00  0.00     0.029 A 
ENDBRANCH  17  20
ENDBRANCH  15  16
ENDBRANCH   1  15
TORSDOF 3
ENDMDL
MODEL 8
REMARK VINA RESULT:      -7.1      2.999      6.398
REMARK  3 active torsions:
REMARK  status: ('A' for Active; 'I' for Inactive)
REMARK    1  A    between atoms: C_6  and  N_7 
REMARK       I    between atoms: N_7  and  C_8 
REMARK    2  A    between atoms: C_8  and  C_9 
REMARK    3  A    between atoms: C_9  and  C_10 
ROOT
HETATM    1  C   UNL     1     -41.367  55.557 -52.265  1.00  0.00     0.286 C 
HETATM    2  N   UNL     1     -40.709  54.561 -53.226  1.00  0.00    -0.056 N 
HETATM    3  H   UNL     1     -41.174  54.597 -54.144  1.00  0.00     0.278 HD
HETATM    4  H   UNL     1     -39.740  54.868 -53.382  1.00  0.00     0.278 HD
HETATM    5  C   UNL     1     -40.690  53.137 -52.737  1.00  0.00     0.209 C 
HETATM    6  C   UNL     1     -40.080  53.087 -51.321  1.00  0.00     0.115 C 
HETATM    7  N   UNL     1     -40.711  54.025 -50.406  1.00  0.00    -0.353 N 
HETATM    8  C   UNL     1     -41.085  55.292 -50.773  1.00  0.00     0.249 C 
HETATM    9  O   UNL     1     -41.296  56.154 -49.924  1.00  0.00    -0.271 OA
HETATM   10  C   UNL     1     -39.882  52.268 -53.697  1.00  0.00     0.035 C 
HETATM   11  C   UNL     1     -39.874  50.819 -53.203  1.00  0.00     0.002 C 
HETATM   12  C   UNL     1     -39.401  50.698 -51.752  1.00  0.00     0.002 C 
HETATM   13  C   UNL     1     -40.137  51.648 -50.804  1.00  0.00     0.027 C 
HETATM   14  H   UNL     1     -40.530  53.927 -49.409  1.00  0.00     0.163 HD
ENDROOT
BRANCH   1  15
HETATM   15  C   UNL     1     -42.870  55.717 -52.532  1.00  0.00     0.146 C 
BRANCH  15  16
HETATM   16  C   UNL     1     -43.198  55.535 -53.998  1.00  0.00     0.224 C 
HETATM   17  N   UNL     1     -42.959  56.653 -54.769  1.00  0.00    -0.327 N 
HETATM   18  H   UNL     1     -42.393  57.401 -54.374  1.00  0.00     0.169 HD
HETATM   19  O   UNL     1     -43.727  54.490 -54.358  1.00  0.00    -0.273 OA
BRANCH  17  20
HETATM   20  C   UNL     1     -43.479  56.928 -56.054  1.00  0.00     0.036 A 
HETATM   21  C   UNL     1     -43.050  56.292 -57.219  1.00  0.00     0.053 A 
HETATM   22  C   UNL     1     -43.682  56.564 -58.436  1.00  0.00     0.036 A 
HETATM   23  C   UNL     1     -44.729  57.479 -58.508  1.00  0.00     0.024 A 
HETATM   24 CL   UNL     1     -43.176  55.734 -59.857  1.00  0.00    -0.084 Cl
HETATM   25  C   UNL     1     -45.152  58.128 -57.351  1.00  0.00     0.004 A 
HETATM   26  C   UNL     1     -44.533  57.849 -56.130  1.00  0.00     0.029 A 
ENDBRANCH  17  20
ENDBRANCH  15  16
ENDBRANCH   1  15
TORSDOF 3
ENDMDL
MODEL 9
REMARK VINA RESULT:      -6.9      4.518      7.619
REMARK  3 active torsions:
REMARK  status: ('A' for Active; 'I' for Inactive)
REMARK    1  A    between atoms: C_6  and  N_7 
REMARK       I    between atoms: N_7  and  C_8 
REMARK    2  A    between atoms: C_8  and  C_9 
REMARK    3  A    between atoms: C_9  and  C_10 
ROOT
HETATM    1  C   UNL     1     -41.708  55.967 -55.655  1.00  0.00     0.286 C 
HETATM    2  N   UNL     1     -40.771  54.754 -55.650  1.00  0.00    -0.056 N 
HETATM    3  H   UNL     1     -40.875  54.224 -56.526  1.00  0.00     0.278 HD
HETATM    4  H   UNL     1     -39.803  55.104 -55.640  1.00  0.00     0.278 HD
HETATM    5  C   UNL     1     -40.957  53.823 -54.482  1.00  0.00     0.209 C 
HETATM    6  C   UNL     1     -40.895  54.626 -53.167  1.00  0.00     0.115 C 
HETATM    7  N   UNL     1     -41.792  55.771 -53.168  1.00  0.00    -0.353 N 
HETATM    8  C   UNL     1     -41.983  56.572 -54.264  1.00  0.00     0.249 C 
HETATM    9  O   UNL     1     -42.465  57.695 -54.145  1.00  0.00    -0.271 OA
HETATM   10  C   UNL     1     -39.879  52.744 -54.500  1.00  0.00     0.035 C 
HETATM   11  C   UNL     1     -40.078  51.791 -53.317  1.00  0.00     0.002 C 
HETATM   12  C   UNL     1     -40.158  52.529 -51.978  1.00  0.00     0.002 C 
HETATM   13  C   UNL     1     -41.164  53.683 -51.993  1.00  0.00     0.027 C 
HETATM   14  H   UNL     1     -41.981  56.240 -52.284  1.00  0.00     0.163 HD
ENDROOT
BRANCH   1  15
HETATM   15  C   UNL     1     -43.012  55.692 -56.415  1.00  0.00     0.146 C 
BRANCH  15  16
HETATM   16  C   UNL     1     -43.256  56.723 -57.496  1.00  0.00     0.224 C 
HETATM   17  N   UNL     1     -42.104  57.290 -57.999  1.00  0.00    -0.327 N 
HETATM   18  H   UNL     1     -41.215  56.841 -57.797  1.00  0.00     0.169 HD
HETATM   19  O   UNL     1     -44.410  57.039 -57.758  1.00  0.00    -0.273 OA
BRANCH  17  20
HETATM   20  C   UNL     1     -41.998  58.497 -58.728  1.00  0.00     0.036 A 
HETATM   21  C   UNL     1     -41.734  59.737 -58.145  1.00  0.00     0.053 A 
HETATM   22  C   UNL     1     -41.560  60.865 -58.953  1.00  0.00     0.036 A 
HETATM   23  C   UNL     1     -41.662  60.773 -60.339  1.00  0.00     0.024 A 
HETATM   24 CL   UNL     1     -41.184  62.379 -58.224  1.00  0.00    -0.084 Cl
HETATM   25  C   UNL     1     -41.939  59.541 -60.925  1.00  0.00     0.004 A 
HETATM   26  C   UNL     1     -42.101  58.408 -60.123  1.00  0.00     0.029 A 
ENDBRANCH  17  20
ENDBRANCH  15  16
ENDBRANCH   1  15
TORSDOF 3
ENDMDL
MODEL 10
REMARK VINA RESULT:      -6.9      4.178      5.465
REMARK  3 active torsions:
REMARK  status: ('A' for Active; 'I' for Inactive)
REMARK    1  A    between atoms: C_6  and  N_7 
REMARK       I    between atoms: N_7  and  C_8 
REMARK    2  A    between atoms: C_8  and  C_9 
REMARK    3  A    between atoms: C_9  and  C_10 
ROOT
HETATM    1  C   UNL     1     -42.873  56.874 -58.108  1.00  0.00     0.286 C 
HETATM    2  N   UNL     1     -43.859  57.811 -57.402  1.00  0.00    -0.056 N 
HETATM    3  H   UNL     1     -43.970  57.530 -56.418  1.00  0.00     0.278 HD
HETATM    4  H   UNL     1     -43.443  58.752 -57.387  1.00  0.00     0.278 HD
HETATM    5  C   UNL     1     -45.216  57.895 -58.048  1.00  0.00     0.209 C 
HETATM    6  C   UNL     1     -45.054  58.224 -59.547  1.00  0.00     0.115 C 
HETATM    7  N   UNL     1     -44.126  57.328 -60.218  1.00  0.00    -0.353 N 
HETATM    8  C   UNL     1     -42.959  56.893 -59.647  1.00  0.00     0.249 C 
HETATM    9  O   UNL     1     -42.056  56.428 -60.338  1.00  0.00    -0.271 OA
HETATM   10  C   UNL     1     -46.057  58.963 -57.356  1.00  0.00     0.035 C 
HETATM   11  C   UNL     1     -47.440  59.038 -58.008  1.00  0.00     0.002 C 
HETATM   12  C   UNL     1     -47.363  59.235 -59.524  1.00  0.00     0.002 C 
HETATM   13  C   UNL     1     -46.433  58.229 -60.209  1.00  0.00     0.027 C 
HETATM   14  H   UNL     1     -44.105  57.325 -61.237  1.00  0.00     0.163 HD
ENDROOT
BRANCH   1  15
HETATM   15  C   UNL     1     -42.937  55.442 -57.560  1.00  0.00     0.146 C 
BRANCH  15  16
HETATM   16  C   UNL     1     -42.592  55.393 -56.087  1.00  0.00     0.224 C 
HETATM   17  N   UNL     1     -41.402  54.754 -55.811  1.00  0.00    -0.327 N 
HETATM   18  H   UNL     1     -40.758  54.577 -56.579  1.00  0.00     0.169 HD
HETATM   19  O   UNL     1     -43.409  55.813 -55.276  1.00  0.00    -0.273 OA
BRANCH  17  20
HETATM   20  C   UNL     1     -40.984  54.234 -54.565  1.00  0.00     0.036 A 
HETATM   21  C   UNL     1     -41.086  54.928 -53.358  1.00  0.00     0.053 A 
HETATM   22  C   UNL     1     -40.727  54.302 -52.161  1.00  0.00     0.036 A 
HETATM   23  C   UNL     1     -40.251  52.994 -52.154  1.00  0.00     0.024 A 
HETATM   24 CL   UNL     1     -40.907  55.153 -50.675  1.00  0.00    -0.084 Cl
HETATM   25  C   UNL     1     -40.133  52.302 -53.355  1.00  0.00     0.004 A 
HETATM   26  C   UNL     1     -40.503  52.917 -54.554  1.00  0.00     0.029 A 
ENDBRANCH  17  20
ENDBRANCH  15  16
ENDBRANCH   1  15
TORSDOF 3
ENDMDL
