MODEL 1
REMARK VINA RESULT:      -9.2      0.000      0.000
REMARK  4 active torsions:
REMARK  status: ('A' for Active; 'I' for Inactive)
REMARK    1  A    between atoms: C_2  and  C_3 
REMARK       I    between atoms: C_3  and  N_4 
REMARK    2  A    between atoms: N_4  and  N_5 
REMARK    3  A    between atoms: N_5  and  C_6 
REMARK    4  A    between atoms: N_7  and  C_8 
ROOT
HETATM    1  C   UNL     1     -42.493  56.236 -56.963  1.00  0.00     0.729 C 
HETATM    2  N   UNL     1     -42.821  57.549 -56.628  1.00  0.00    -0.108 N 
HETATM    3  C   UNL     1     -42.370  58.071 -55.422  1.00  0.00     0.276 C 
HETATM    4  O   UNL     1     -42.225  59.270 -55.187  1.00  0.00    -0.266 OA
HETATM    5  C   UNL     1     -42.047  57.077 -54.355  1.00  0.00     0.050 C 
HETATM    6  C   UNL     1     -41.834  55.820 -54.788  1.00  0.00     0.099 C 
HETATM    7  C   UNL     1     -41.316  54.807 -53.830  1.00  0.00     0.000 A 
HETATM    8  C   UNL     1     -41.386  55.040 -52.450  1.00  0.00    -0.044 A 
HETATM    9  C   UNL     1     -40.899  54.086 -51.542  1.00  0.00     0.008 A 
HETATM   10  C   UNL     1     -40.319  52.907 -52.005  1.00  0.00     0.001 A 
HETATM   11  C   UNL     1     -40.235  52.669 -53.372  1.00  0.00     0.001 A 
HETATM   12  C   UNL     1     -40.731  53.611 -54.277  1.00  0.00     0.014 A 
HETATM   13  C   UNL     1     -42.064  56.285 -51.951  1.00  0.00     0.054 C 
HETATM   14  C   UNL     1     -41.891  57.527 -52.887  1.00  0.00    -0.002 C 
HETATM   15  C   UNL     1     -40.479  58.156 -52.713  1.00  0.00     0.015 C 
HETATM   16  C   UNL     1     -40.234  58.783 -51.338  1.00  0.00     0.001 C 
HETATM   17  C   UNL     1     -41.334  59.765 -50.949  1.00  0.00     0.000 C 
HETATM   18  C   UNL     1     -42.720  59.136 -51.040  1.00  0.00     0.001 C 
HETATM   19  C   UNL     1     -42.976  58.555 -52.433  1.00  0.00     0.015 C 
HETATM   20  N   UNL     1     -41.997  55.409 -56.082  1.00  0.00    -0.061 NA
ENDROOT
BRANCH   1  21
HETATM   21  N   UNL     1     -42.611  55.783 -58.270  1.00  0.00    -0.127 N 
HETATM   22  H   UNL     1     -42.137  56.283 -59.018  1.00  0.00     0.206 HD
BRANCH  21  23
HETATM   23  N   UNL     1     -43.894  55.325 -58.640  1.00  0.00    -0.256 N 
HETATM   24  C   UNL     1     -44.337  55.730 -59.884  1.00  0.00     0.236 C 
HETATM   25  O   UNL     1     -43.591  56.252 -60.713  1.00  0.00    -0.272 OA
HETATM   26  H   UNL     1     -44.534  55.260 -57.850  1.00  0.00     0.190 HD
BRANCH  24  27
HETATM   27  C   UNL     1     -45.779  55.388 -60.200  1.00  0.00     0.100 C 
HETATM   28  C   UNL     1     -46.752  56.533 -59.986  1.00  0.00     0.014 C 
ENDBRANCH  24  27
ENDBRANCH  21  23
ENDBRANCH   1  21
BRANCH   2  29
HETATM   29  C   UNL     1     -43.474  58.413 -57.569  1.00  0.00     0.060 A 
HETATM   30  C   UNL     1     -42.771  59.062 -58.592  1.00  0.00     0.030 A 
HETATM   31  C   UNL     1     -43.435  59.895 -59.498  1.00  0.00     0.002 A 
HETATM   32  C   UNL     1     -44.808  60.097 -59.387  1.00  0.00     0.000 A 
HETATM   33  C   UNL     1     -45.519  59.477 -58.364  1.00  0.00     0.002 A 
HETATM   34  C   UNL     1     -44.855  58.647 -57.457  1.00  0.00     0.030 A 
ENDBRANCH   2  29
TORSDOF 4
ENDMDL
MODEL 2
REMARK VINA RESULT:      -9.0     16.126     18.777
REMARK  4 active torsions:
REMARK  status: ('A' for Active; 'I' for Inactive)
REMARK    1  A    between atoms: C_2  and  C_3 
REMARK       I    between atoms: C_3  and  N_4 
REMARK    2  A    between atoms: N_4  and  N_5 
REMARK    3  A    between atoms: N_5  and  C_6 
REMARK    4  A    between atoms: N_7  and  C_8 
ROOT
HETATM    1  C   UNL     1     -36.610  40.957 -55.057  1.00  0.00     0.729 C 
HETATM    2  N   UNL     1     -36.005  40.598 -56.261  1.00  0.00    -0.108 N 
HETATM    3  C   UNL     1     -34.829  39.859 -56.232  1.00  0.00     0.276 C 
HETATM    4  O   UNL     1     -34.425  39.146 -57.150  1.00  0.00    -0.266 OA
HETATM    5  C   UNL     1     -34.020  39.958 -54.980  1.00  0.00     0.050 C 
HETATM    6  C   UNL     1     -34.690  40.399 -53.899  1.00  0.00     0.099 C 
HETATM    7  C   UNL     1     -34.025  40.346 -52.570  1.00  0.00     0.000 A 
HETATM    8  C   UNL     1     -32.635  40.186 -52.481  1.00  0.00    -0.044 A 
HETATM    9  C   UNL     1     -32.003  40.136 -51.229  1.00  0.00     0.008 A 
HETATM   10  C   UNL     1     -32.755  40.220 -50.059  1.00  0.00     0.001 A 
HETATM   11  C   UNL     1     -34.136  40.369 -50.133  1.00  0.00     0.001 A 
HETATM   12  C   UNL     1     -34.764  40.433 -51.378  1.00  0.00     0.014 A 
HETATM   13  C   UNL     1     -31.820  40.154 -53.743  1.00  0.00     0.054 C 
HETATM   14  C   UNL     1     -32.549  39.491 -54.959  1.00  0.00    -0.002 C 
HETATM   15  C   UNL     1     -32.528  37.941 -54.836  1.00  0.00     0.015 C 
HETATM   16  C   UNL     1     -31.134  37.320 -54.950  1.00  0.00     0.001 C 
HETATM   17  C   UNL     1     -30.394  37.790 -56.198  1.00  0.00     0.000 C 
HETATM   18  C   UNL     1     -30.340  39.310 -56.290  1.00  0.00     0.001 C 
HETATM   19  C   UNL     1     -31.742  39.922 -56.225  1.00  0.00     0.015 C 
HETATM   20  N   UNL     1     -35.984  40.841 -53.917  1.00  0.00    -0.061 NA
ENDROOT
BRANCH   1  21
HETATM   21  N   UNL     1     -37.931  41.380 -55.021  1.00  0.00    -0.127 N 
HETATM   22  H   UNL     1     -38.202  42.219 -55.529  1.00  0.00     0.206 HD
BRANCH  21  23
HETATM   23  N   UNL     1     -38.573  41.263 -53.769  1.00  0.00    -0.256 N 
HETATM   24  C   UNL     1     -39.946  41.410 -53.785  1.00  0.00     0.236 C 
HETATM   25  O   UNL     1     -40.598  41.409 -54.830  1.00  0.00    -0.272 OA
HETATM   26  H   UNL     1     -38.013  41.633 -53.003  1.00  0.00     0.190 HD
BRANCH  24  27
HETATM   27  C   UNL     1     -40.606  41.463 -52.423  1.00  0.00     0.100 C 
HETATM   28  C   UNL     1     -41.317  40.182 -52.026  1.00  0.00     0.014 C 
ENDBRANCH  24  27
ENDBRANCH  21  23
ENDBRANCH   1  21
BRANCH   2  29
HETATM   29  C   UNL     1     -36.654  40.840 -57.517  1.00  0.00     0.060 A 
HETATM   30  C   UNL     1     -36.512  42.052 -58.204  1.00  0.00     0.030 A 
HETATM   31  C   UNL     1     -37.152  42.259 -59.430  1.00  0.00     0.002 A 
HETATM   32  C   UNL     1     -37.951  41.259 -59.980  1.00  0.00     0.000 A 
HETATM   33  C   UNL     1     -38.119  40.056 -59.302  1.00  0.00     0.002 A 
HETATM   34  C   UNL     1     -37.482  39.851 -58.075  1.00  0.00     0.030 A 
ENDBRANCH   2  29
TORSDOF 4
ENDMDL
MODEL 3
REMARK VINA RESULT:      -8.3      2.116      6.898
REMARK  4 active torsions:
REMARK  status: ('A' for Active; 'I' for Inactive)
REMARK    1  A    between atoms: C_2  and  C_3 
REMARK       I    between atoms: C_3  and  N_4 
REMARK    2  A    between atoms: N_4  and  N_5 
REMARK    3  A    between atoms: N_5  and  C_6 
REMARK    4  A    between atoms: N_7  and  C_8 
ROOT
HETATM    1  C   UNL     1     -42.004  57.014 -54.354  1.00  0.00     0.729 C 
HETATM    2  N   UNL     1     -41.709  58.356 -54.115  1.00  0.00    -0.108 N 
HETATM    3  C   UNL     1     -42.099  59.309 -55.049  1.00  0.00     0.276 C 
HETATM    4  O   UNL     1     -42.278  60.500 -54.801  1.00  0.00    -0.266 OA
HETATM    5  C   UNL     1     -42.307  58.817 -56.443  1.00  0.00     0.050 C 
HETATM    6  C   UNL     1     -42.496  57.489 -56.561  1.00  0.00     0.099 C 
HETATM    7  C   UNL     1     -42.904  56.934 -57.878  1.00  0.00     0.000 A 
HETATM    8  C   UNL     1     -42.751  57.697 -59.044  1.00  0.00    -0.044 A 
HETATM    9  C   UNL     1     -43.135  57.177 -60.290  1.00  0.00     0.008 A 
HETATM   10  C   UNL     1     -43.695  55.904 -60.378  1.00  0.00     0.001 A 
HETATM   11  C   UNL     1     -43.862  55.141 -59.228  1.00  0.00     0.001 A 
HETATM   12  C   UNL     1     -43.468  55.652 -57.989  1.00  0.00     0.014 A 
HETATM   13  C   UNL     1     -42.094  59.045 -58.955  1.00  0.00     0.054 C 
HETATM   14  C   UNL     1     -42.382  59.811 -57.621  1.00  0.00    -0.002 C 
HETATM   15  C   UNL     1     -43.803  60.441 -57.644  1.00  0.00     0.015 C 
HETATM   16  C   UNL     1     -43.981  61.559 -58.673  1.00  0.00     0.001 C 
HETATM   17  C   UNL     1     -42.900  62.628 -58.554  1.00  0.00     0.000 C 
HETATM   18  C   UNL     1     -41.498  62.032 -58.610  1.00  0.00     0.001 C 
HETATM   19  C   UNL     1     -41.312  60.947 -57.544  1.00  0.00     0.015 C 
HETATM   20  N   UNL     1     -42.404  56.599 -55.526  1.00  0.00    -0.061 NA
ENDROOT
BRANCH   1  21
HETATM   21  N   UNL     1     -41.956  56.080 -53.328  1.00  0.00    -0.127 N 
HETATM   22  H   UNL     1     -41.998  56.396 -52.361  1.00  0.00     0.206 HD
BRANCH  21  23
HETATM   23  N   UNL     1     -41.051  55.014 -53.519  1.00  0.00    -0.256 N 
HETATM   24  C   UNL     1     -41.383  53.829 -52.893  1.00  0.00     0.236 C 
HETATM   25  O   UNL     1     -42.494  53.632 -52.399  1.00  0.00    -0.272 OA
HETATM   26  H   UNL     1     -40.082  55.323 -53.578  1.00  0.00     0.190 HD
BRANCH  24  27
HETATM   27  C   UNL     1     -40.324  52.747 -52.952  1.00  0.00     0.100 C 
HETATM   28  C   UNL     1     -40.362  51.908 -54.217  1.00  0.00     0.014 C 
ENDBRANCH  24  27
ENDBRANCH  21  23
ENDBRANCH   1  21
BRANCH   2  29
HETATM   29  C   UNL     1     -41.158  58.782 -52.862  1.00  0.00     0.060 A 
HETATM   30  C   UNL     1     -41.970  59.173 -51.789  1.00  0.00     0.030 A 
HETATM   31  C   UNL     1     -41.406  59.580 -50.576  1.00  0.00     0.002 A 
HETATM   32  C   UNL     1     -40.022  59.611 -50.423  1.00  0.00     0.000 A 
HETATM   33  C   UNL     1     -39.200  59.246 -51.485  1.00  0.00     0.002 A 
HETATM   34  C   UNL     1     -39.764  58.843 -52.698  1.00  0.00     0.030 A 
ENDBRANCH   2  29
TORSDOF 4
ENDMDL
MODEL 4
REMARK VINA RESULT:      -7.9      1.760      2.267
REMARK  4 active torsions:
REMARK  status: ('A' for Active; 'I' for Inactive)
REMARK    1  A    between atoms: C_2  and  C_3 
REMARK       I    between atoms: C_3  and  N_4 
REMARK    2  A    between atoms: N_4  and  N_5 
REMARK    3  A    between atoms: N_5  and  C_6 
REMARK    4  A    between atoms: N_7  and  C_8 
ROOT
HETATM    1  C   UNL     1     -43.798  57.635 -55.490  1.00  0.00     0.729 C 
HETATM    2  N   UNL     1     -43.669  58.923 -54.973  1.00  0.00    -0.108 N 
HETATM    3  C   UNL     1     -42.681  59.175 -54.029  1.00  0.00     0.276 C 
HETATM    4  O   UNL     1     -42.192  60.281 -53.803  1.00  0.00    -0.266 OA
HETATM    5  C   UNL     1     -42.199  57.995 -53.250  1.00  0.00     0.050 C 
HETATM    6  C   UNL     1     -42.457  56.797 -53.806  1.00  0.00     0.099 C 
HETATM    7  C   UNL     1     -41.848  55.580 -53.207  1.00  0.00     0.000 A 
HETATM    8  C   UNL     1     -41.322  55.619 -51.909  1.00  0.00    -0.044 A 
HETATM    9  C   UNL     1     -40.747  54.472 -51.339  1.00  0.00     0.008 A 
HETATM   10  C   UNL     1     -40.671  53.288 -52.069  1.00  0.00     0.001 A 
HETATM   11  C   UNL     1     -41.180  53.239 -53.362  1.00  0.00     0.001 A 
HETATM   12  C   UNL     1     -41.765  54.375 -53.925  1.00  0.00     0.014 A 
HETATM   13  C   UNL     1     -41.457  56.880 -51.102  1.00  0.00     0.054 C 
HETATM   14  C   UNL     1     -41.390  58.193 -51.951  1.00  0.00    -0.002 C 
HETATM   15  C   UNL     1     -39.919  58.526 -52.334  1.00  0.00     0.015 C 
HETATM   16  C   UNL     1     -39.027  58.893 -51.146  1.00  0.00     0.001 C 
HETATM   17  C   UNL     1     -39.640  59.989 -50.282  1.00  0.00     0.000 C 
HETATM   18  C   UNL     1     -41.055  59.640 -49.834  1.00  0.00     0.001 C 
HETATM   19  C   UNL     1     -41.955  59.322 -51.032  1.00  0.00     0.015 C 
HETATM   20  N   UNL     1     -43.197  56.614 -54.942  1.00  0.00    -0.061 NA
ENDROOT
BRANCH   1  21
HETATM   21  N   UNL     1     -44.513  57.405 -56.658  1.00  0.00    -0.127 N 
HETATM   22  H   UNL     1     -45.530  57.401 -56.630  1.00  0.00     0.206 HD
BRANCH  21  23
HETATM   23  N   UNL     1     -43.982  56.411 -57.509  1.00  0.00    -0.256 N 
HETATM   24  C   UNL     1     -43.993  56.709 -58.857  1.00  0.00     0.236 C 
HETATM   25  O   UNL     1     -44.224  57.843 -59.280  1.00  0.00    -0.272 OA
HETATM   26  H   UNL     1     -44.172  55.466 -57.178  1.00  0.00     0.190 HD
BRANCH  24  27
HETATM   27  C   UNL     1     -43.591  55.573 -59.774  1.00  0.00     0.100 C 
HETATM   28  C   UNL     1     -44.581  54.424 -59.812  1.00  0.00     0.014 C 
ENDBRANCH  24  27
ENDBRANCH  21  23
ENDBRANCH   1  21
BRANCH   2  29
HETATM   29  C   UNL     1     -44.426  60.017 -55.509  1.00  0.00     0.060 A 
HETATM   30  C   UNL     1     -45.561  60.522 -54.861  1.00  0.00     0.030 A 
HETATM   31  C   UNL     1     -46.277  61.593 -55.404  1.00  0.00     0.002 A 
HETATM   32  C   UNL     1     -45.874  62.167 -56.607  1.00  0.00     0.000 A 
HETATM   33  C   UNL     1     -44.760  61.665 -57.275  1.00  0.00     0.002 A 
HETATM   34  C   UNL     1     -44.047  60.593 -56.734  1.00  0.00     0.030 A 
ENDBRANCH   2  29
TORSDOF 4
ENDMDL
MODEL 5
REMARK VINA RESULT:      -7.8      2.548      6.875
REMARK  4 active torsions:
REMARK  status: ('A' for Active; 'I' for Inactive)
REMARK    1  A    between atoms: C_2  and  C_3 
REMARK       I    between atoms: C_3  and  N_4 
REMARK    2  A    between atoms: N_4  and  N_5 
REMARK    3  A    between atoms: N_5  and  C_6 
REMARK    4  A    between atoms: N_7  and  C_8 
ROOT
HETATM    1  C   UNL     1     -42.326  54.972 -54.913  1.00  0.00     0.729 C 
HETATM    2  N   UNL     1     -42.560  55.804 -53.820  1.00  0.00    -0.108 N 
HETATM    3  C   UNL     1     -43.127  57.055 -54.033  1.00  0.00     0.276 C 
HETATM    4  O   UNL     1     -43.748  57.697 -53.187  1.00  0.00    -0.266 OA
HETATM    5  C   UNL     1     -42.950  57.633 -55.399  1.00  0.00     0.050 C 
HETATM    6  C   UNL     1     -42.639  56.745 -56.361  1.00  0.00     0.099 C 
HETATM    7  C   UNL     1     -42.637  57.192 -57.779  1.00  0.00     0.000 A 
HETATM    8  C   UNL     1     -42.601  58.558 -58.089  1.00  0.00    -0.044 A 
HETATM    9  C   UNL     1     -42.598  58.985 -59.426  1.00  0.00     0.008 A 
HETATM   10  C   UNL     1     -42.654  58.054 -60.461  1.00  0.00     0.001 A 
HETATM   11  C   UNL     1     -42.700  56.696 -60.167  1.00  0.00     0.001 A 
HETATM   12  C   UNL     1     -42.690  56.269 -58.837  1.00  0.00     0.014 A 
HETATM   13  C   UNL     1     -42.481  59.559 -56.974  1.00  0.00     0.054 C 
HETATM   14  C   UNL     1     -43.205  59.134 -55.653  1.00  0.00    -0.002 C 
HETATM   15  C   UNL     1     -44.739  59.359 -55.768  1.00  0.00     0.015 C 
HETATM   16  C   UNL     1     -45.154  60.828 -55.876  1.00  0.00     0.001 C 
HETATM   17  C   UNL     1     -44.548  61.680 -54.766  1.00  0.00     0.000 C 
HETATM   18  C   UNL     1     -43.033  61.529 -54.692  1.00  0.00     0.001 C 
HETATM   19  C   UNL     1     -42.628  60.060 -54.535  1.00  0.00     0.015 C 
HETATM   20  N   UNL     1     -42.385  55.419 -56.138  1.00  0.00    -0.061 NA
ENDROOT
BRANCH   1  21
HETATM   21  N   UNL     1     -42.095  53.614 -54.739  1.00  0.00    -0.127 N 
HETATM   22  H   UNL     1     -42.839  53.023 -54.374  1.00  0.00     0.206 HD
BRANCH  21  23
HETATM   23  N   UNL     1     -40.822  53.274 -54.232  1.00  0.00    -0.256 N 
HETATM   24  C   UNL     1     -40.591  51.925 -54.052  1.00  0.00     0.236 C 
HETATM   25  O   UNL     1     -41.337  51.060 -54.514  1.00  0.00    -0.272 OA
HETATM   26  H   UNL     1     -40.464  53.961 -53.571  1.00  0.00     0.190 HD
BRANCH  24  27
HETATM   27  C   UNL     1     -39.297  51.579 -53.343  1.00  0.00     0.100 C 
HETATM   28  C   UNL     1     -39.351  51.744 -51.836  1.00  0.00     0.014 C 
ENDBRANCH  24  27
ENDBRANCH  21  23
ENDBRANCH   1  21
BRANCH   2  29
HETATM   29  C   UNL     1     -42.377  55.334 -52.477  1.00  0.00     0.060 A 
HETATM   30  C   UNL     1     -43.347  54.566 -51.821  1.00  0.00     0.030 A 
HETATM   31  C   UNL     1     -43.140  54.117 -50.513  1.00  0.00     0.002 A 
HETATM   32  C   UNL     1     -41.963  54.438 -49.841  1.00  0.00     0.000 A 
HETATM   33  C   UNL     1     -40.997  55.217 -50.470  1.00  0.00     0.002 A 
HETATM   34  C   UNL     1     -41.206  55.669 -51.776  1.00  0.00     0.030 A 
ENDBRANCH   2  29
TORSDOF 4
ENDMDL
MODEL 6
REMARK VINA RESULT:      -7.7      2.544      7.964
REMARK  4 active torsions:
REMARK  status: ('A' for Active; 'I' for Inactive)
REMARK    1  A    between atoms: C_2  and  C_3 
REMARK       I    between atoms: C_3  and  N_4 
REMARK    2  A    between atoms: N_4  and  N_5 
REMARK    3  A    between atoms: N_5  and  C_6 
REMARK    4  A    between atoms: N_7  and  C_8 
ROOT
HETATM    1  C   UNL     1     -41.977  59.348 -54.572  1.00  0.00     0.729 C 
HETATM    2  N   UNL     1     -42.797  58.220 -54.580  1.00  0.00    -0.108 N 
HETATM    3  C   UNL     1     -43.102  57.616 -55.794  1.00  0.00     0.276 C 
HETATM    4  O   UNL     1     -43.443  56.442 -55.926  1.00  0.00    -0.266 OA
HETATM    5  C   UNL     1     -42.997  58.484 -57.005  1.00  0.00     0.050 C 
HETATM    6  C   UNL     1     -42.249  59.592 -56.853  1.00  0.00     0.099 C 
HETATM    7  C   UNL     1     -41.926  60.412 -58.051  1.00  0.00     0.000 A 
HETATM    8  C   UNL     1     -42.661  60.253 -59.234  1.00  0.00    -0.044 A 
HETATM    9  C   UNL     1     -42.360  61.025 -60.367  1.00  0.00     0.008 A 
HETATM   10  C   UNL     1     -41.311  61.941 -60.335  1.00  0.00     0.001 A 
HETATM   11  C   UNL     1     -40.567  62.100 -59.171  1.00  0.00     0.001 A 
HETATM   12  C   UNL     1     -40.874  61.343 -58.038  1.00  0.00     0.014 A 
HETATM   13  C   UNL     1     -43.829  59.308 -59.249  1.00  0.00     0.054 C 
HETATM   14  C   UNL     1     -43.646  58.050 -58.337  1.00  0.00    -0.002 C 
HETATM   15  C   UNL     1     -42.716  57.006 -59.018  1.00  0.00     0.015 C 
HETATM   16  C   UNL     1     -43.301  56.373 -60.283  1.00  0.00     0.001 C 
HETATM   17  C   UNL     1     -44.698  55.808 -60.051  1.00  0.00     0.000 C 
HETATM   18  C   UNL     1     -45.643  56.846 -59.455  1.00  0.00     0.001 C 
HETATM   19  C   UNL     1     -45.073  57.439 -58.163  1.00  0.00     0.015 C 
HETATM   20  N   UNL     1     -41.695  59.996 -55.670  1.00  0.00    -0.061 NA
ENDROOT
BRANCH   1  21
HETATM   21  N   UNL     1     -41.367  59.777 -53.401  1.00  0.00    -0.127 N 
HETATM   22  H   UNL     1     -40.846  59.111 -52.834  1.00  0.00     0.206 HD
BRANCH  21  23
HETATM   23  N   UNL     1     -42.112  60.694 -52.629  1.00  0.00    -0.256 N 
HETATM   24  C   UNL     1     -42.218  60.397 -51.285  1.00  0.00     0.236 C 
HETATM   25  O   UNL     1     -41.526  59.532 -50.744  1.00  0.00    -0.272 OA
HETATM   26  H   UNL     1     -42.895  61.097 -53.141  1.00  0.00     0.190 HD
BRANCH  24  27
HETATM   27  C   UNL     1     -43.163  61.281 -50.498  1.00  0.00     0.100 C 
HETATM   28  C   UNL     1     -44.509  60.646 -50.204  1.00  0.00     0.014 C 
ENDBRANCH  24  27
ENDBRANCH  21  23
ENDBRANCH   1  21
BRANCH   2  29
HETATM   29  C   UNL     1     -43.197  57.586 -53.357  1.00  0.00     0.060 A 
HETATM   30  C   UNL     1     -42.394  56.632 -52.720  1.00  0.00     0.030 A 
HETATM   31  C   UNL     1     -42.807  56.033 -51.525  1.00  0.00     0.002 A 
HETATM   32  C   UNL     1     -44.032  56.373 -50.959  1.00  0.00     0.000 A 
HETATM   33  C   UNL     1     -44.852  57.304 -51.589  1.00  0.00     0.002 A 
HETATM   34  C   UNL     1     -44.441  57.900 -52.784  1.00  0.00     0.030 A 
ENDBRANCH   2  29
TORSDOF 4
ENDMDL
MODEL 7
REMARK VINA RESULT:      -7.6      3.785      6.790
REMARK  4 active torsions:
REMARK  status: ('A' for Active; 'I' for Inactive)
REMARK    1  A    between atoms: C_2  and  C_3 
REMARK       I    between atoms: C_3  and  N_4 
REMARK    2  A    between atoms: N_4  and  N_5 
REMARK    3  A    between atoms: N_5  and  C_6 
REMARK    4  A    between atoms: N_7  and  C_8 
ROOT
HETATM    1  C   UNL     1     -42.751  59.384 -51.128  1.00  0.00     0.729 C 
HETATM    2  N   UNL     1     -43.190  59.524 -52.444  1.00  0.00    -0.108 N 
HETATM    3  C   UNL     1     -43.328  58.389 -53.235  1.00  0.00     0.276 C 
HETATM    4  O   UNL     1     -44.061  58.305 -54.219  1.00  0.00    -0.266 OA
HETATM    5  C   UNL     1     -42.513  57.205 -52.832  1.00  0.00     0.050 C 
HETATM    6  C   UNL     1     -42.069  57.219 -51.561  1.00  0.00     0.099 C 
HETATM    7  C   UNL     1     -41.420  55.999 -51.012  1.00  0.00     0.000 A 
HETATM    8  C   UNL     1     -40.956  54.997 -51.875  1.00  0.00    -0.044 A 
HETATM    9  C   UNL     1     -40.342  53.844 -51.362  1.00  0.00     0.008 A 
HETATM   10  C   UNL     1     -40.208  53.673 -49.985  1.00  0.00     0.001 A 
HETATM   11  C   UNL     1     -40.673  54.655 -49.118  1.00  0.00     0.001 A 
HETATM   12  C   UNL     1     -41.272  55.809 -49.628  1.00  0.00     0.014 A 
HETATM   13  C   UNL     1     -41.048  55.209 -53.360  1.00  0.00     0.054 C 
HETATM   14  C   UNL     1     -42.299  56.032 -53.812  1.00  0.00    -0.002 C 
HETATM   15  C   UNL     1     -43.576  55.143 -53.801  1.00  0.00     0.015 C 
HETATM   16  C   UNL     1     -43.569  54.018 -54.838  1.00  0.00     0.001 C 
HETATM   17  C   UNL     1     -43.258  54.529 -56.241  1.00  0.00     0.000 C 
HETATM   18  C   UNL     1     -41.966  55.337 -56.281  1.00  0.00     0.001 C 
HETATM   19  C   UNL     1     -42.000  56.491 -55.275  1.00  0.00     0.015 C 
HETATM   20  N   UNL     1     -42.230  58.266 -50.697  1.00  0.00    -0.061 NA
ENDROOT
BRANCH   1  21
HETATM   21  N   UNL     1     -42.922  60.407 -50.206  1.00  0.00    -0.127 N 
HETATM   22  H   UNL     1     -42.125  60.729 -49.662  1.00  0.00     0.206 HD
BRANCH  21  23
HETATM   23  N   UNL     1     -44.116  60.354 -49.455  1.00  0.00    -0.256 N 
HETATM   24  C   UNL     1     -44.615  61.573 -49.039  1.00  0.00     0.236 C 
HETATM   25  O   UNL     1     -44.194  62.643 -49.479  1.00  0.00    -0.272 OA
HETATM   26  H   UNL     1     -44.170  59.532 -48.856  1.00  0.00     0.190 HD
BRANCH  24  27
HETATM   27  C   UNL     1     -45.790  61.499 -48.086  1.00  0.00     0.100 C 
HETATM   28  C   UNL     1     -45.494  60.774 -46.786  1.00  0.00     0.014 C 
ENDBRANCH  24  27
ENDBRANCH  21  23
ENDBRANCH   1  21
BRANCH   2  29
HETATM   29  C   UNL     1     -43.649  60.789 -52.941  1.00  0.00     0.060 A 
HETATM   30  C   UNL     1     -42.787  61.694 -53.574  1.00  0.00     0.030 A 
HETATM   31  C   UNL     1     -43.262  62.918 -54.054  1.00  0.00     0.002 A 
HETATM   32  C   UNL     1     -44.604  63.258 -53.898  1.00  0.00     0.000 A 
HETATM   33  C   UNL     1     -45.470  62.379 -53.254  1.00  0.00     0.002 A 
HETATM   34  C   UNL     1     -44.994  61.158 -52.772  1.00  0.00     0.030 A 
ENDBRANCH   2  29
TORSDOF 4
ENDMDL
MODEL 8
REMARK VINA RESULT:      -7.4      2.427      8.089
REMARK  4 active torsions:
REMARK  status: ('A' for Active; 'I' for Inactive)
REMARK    1  A    between atoms: C_2  and  C_3 
REMARK       I    between atoms: C_3  and  N_4 
REMARK    2  A    between atoms: N_4  and  N_5 
REMARK    3  A    between atoms: N_5  and  C_6 
REMARK    4  A    between atoms: N_7  and  C_8 
ROOT
HETATM    1  C   UNL     1     -43.014  58.185 -53.418  1.00  0.00     0.729 C 
HETATM    2  N   UNL     1     -42.657  56.964 -53.988  1.00  0.00    -0.108 N 
HETATM    3  C   UNL     1     -42.449  56.894 -55.360  1.00  0.00     0.276 C 
HETATM    4  O   UNL     1     -41.761  56.043 -55.923  1.00  0.00    -0.266 OA
HETATM    5  C   UNL     1     -43.123  57.944 -56.181  1.00  0.00     0.050 C 
HETATM    6  C   UNL     1     -43.502  59.045 -55.506  1.00  0.00     0.099 C 
HETATM    7  C   UNL     1     -44.000  60.220 -56.269  1.00  0.00     0.000 A 
HETATM    8  C   UNL     1     -44.407  60.076 -57.602  1.00  0.00    -0.044 A 
HETATM    9  C   UNL     1     -44.879  61.183 -58.325  1.00  0.00     0.008 A 
HETATM   10  C   UNL     1     -44.926  62.442 -57.731  1.00  0.00     0.001 A 
HETATM   11  C   UNL     1     -44.516  62.600 -56.412  1.00  0.00     0.001 A 
HETATM   12  C   UNL     1     -44.059  61.497 -55.687  1.00  0.00     0.014 A 
HETATM   13  C   UNL     1     -44.411  58.708 -58.223  1.00  0.00     0.054 C 
HETATM   14  C   UNL     1     -43.270  57.769 -57.708  1.00  0.00    -0.002 C 
HETATM   15  C   UNL     1     -41.913  58.132 -58.377  1.00  0.00     0.015 C 
HETATM   16  C   UNL     1     -41.862  57.865 -59.883  1.00  0.00     0.001 C 
HETATM   17  C   UNL     1     -42.292  56.444 -60.230  1.00  0.00     0.000 C 
HETATM   18  C   UNL     1     -43.657  56.100 -59.646  1.00  0.00     0.001 C 
HETATM   19  C   UNL     1     -43.685  56.323 -58.131  1.00  0.00     0.015 C 
HETATM   20  N   UNL     1     -43.400  59.195 -54.150  1.00  0.00    -0.061 NA
ENDROOT
BRANCH   1  21
HETATM   21  N   UNL     1     -42.897  58.395 -52.051  1.00  0.00    -0.127 N 
HETATM   22  H   UNL     1     -43.739  58.484 -51.485  1.00  0.00     0.206 HD
BRANCH  21  23
HETATM   23  N   UNL     1     -41.872  59.282 -51.658  1.00  0.00    -0.256 N 
HETATM   24  C   UNL     1     -40.955  58.776 -50.758  1.00  0.00     0.236 C 
HETATM   25  O   UNL     1     -40.886  57.575 -50.492  1.00  0.00    -0.272 OA
HETATM   26  H   UNL     1     -42.189  60.249 -51.597  1.00  0.00     0.190 HD
BRANCH  24  27
HETATM   27  C   UNL     1     -39.968  59.782 -50.205  1.00  0.00     0.100 C 
HETATM   28  C   UNL     1     -38.515  59.456 -50.499  1.00  0.00     0.014 C 
ENDBRANCH  24  27
ENDBRANCH  21  23
ENDBRANCH   1  21
BRANCH   2  29
HETATM   29  C   UNL     1     -42.350  55.826 -53.170  1.00  0.00     0.060 A 
HETATM   30  C   UNL     1     -41.032  55.396 -52.963  1.00  0.00     0.030 A 
HETATM   31  C   UNL     1     -40.761  54.286 -52.157  1.00  0.00     0.002 A 
HETATM   32  C   UNL     1     -41.804  53.585 -51.556  1.00  0.00     0.000 A 
HETATM   33  C   UNL     1     -43.120  53.986 -51.767  1.00  0.00     0.002 A 
HETATM   34  C   UNL     1     -43.391  55.093 -52.576  1.00  0.00     0.030 A 
ENDBRANCH   2  29
TORSDOF 4
ENDMDL
MODEL 9
REMARK VINA RESULT:      -7.4      2.619      8.078
REMARK  4 active torsions:
REMARK  status: ('A' for Active; 'I' for Inactive)
REMARK    1  A    between atoms: C_2  and  C_3 
REMARK       I    between atoms: C_3  and  N_4 
REMARK    2  A    between atoms: N_4  and  N_5 
REMARK    3  A    between atoms: N_5  and  C_6 
REMARK    4  A    between atoms: N_7  and  C_8 
ROOT
HETATM    1  C   UNL     1     -44.277  57.855 -53.483  1.00  0.00     0.729 C 
HETATM    2  N   UNL     1     -43.385  56.882 -53.932  1.00  0.00    -0.108 N 
HETATM    3  C   UNL     1     -42.936  56.933 -55.247  1.00  0.00     0.276 C 
HETATM    4  O   UNL     1     -41.889  56.429 -55.650  1.00  0.00    -0.266 OA
HETATM    5  C   UNL     1     -43.813  57.659 -56.213  1.00  0.00     0.050 C 
HETATM    6  C   UNL     1     -44.696  58.510 -55.659  1.00  0.00     0.099 C 
HETATM    7  C   UNL     1     -45.472  59.418 -56.543  1.00  0.00     0.000 A 
HETATM    8  C   UNL     1     -45.559  59.161 -57.919  1.00  0.00    -0.044 A 
HETATM    9  C   UNL     1     -46.291  60.016 -58.757  1.00  0.00     0.008 A 
HETATM   10  C   UNL     1     -46.921  61.143 -58.235  1.00  0.00     0.001 A 
HETATM   11  C   UNL     1     -46.834  61.415 -56.874  1.00  0.00     0.001 A 
HETATM   12  C   UNL     1     -46.117  60.558 -56.036  1.00  0.00     0.014 A 
HETATM   13  C   UNL     1     -44.928  57.914 -58.471  1.00  0.00     0.054 C 
HETATM   14  C   UNL     1     -43.619  57.478 -57.734  1.00  0.00    -0.002 C 
HETATM   15  C   UNL     1     -42.416  58.356 -58.183  1.00  0.00     0.015 C 
HETATM   16  C   UNL     1     -42.010  58.166 -59.646  1.00  0.00     0.001 C 
HETATM   17  C   UNL     1     -41.792  56.699 -59.998  1.00  0.00     0.000 C 
HETATM   18  C   UNL     1     -42.997  55.839 -59.635  1.00  0.00     0.001 C 
HETATM   19  C   UNL     1     -43.366  55.996 -58.157  1.00  0.00     0.015 C 
HETATM   20  N   UNL     1     -44.892  58.654 -54.313  1.00  0.00    -0.061 NA
ENDROOT
BRANCH   1  21
HETATM   21  N   UNL     1     -44.484  58.060 -52.126  1.00  0.00    -0.127 N 
HETATM   22  H   UNL     1     -45.130  57.456 -51.621  1.00  0.00     0.206 HD
BRANCH  21  23
HETATM   23  N   UNL     1     -44.562  59.409 -51.720  1.00  0.00    -0.256 N 
HETATM   24  C   UNL     1     -45.567  59.707 -50.821  1.00  0.00     0.236 C 
HETATM   25  O   UNL     1     -46.203  58.833 -50.229  1.00  0.00    -0.272 OA
HETATM   26  H   UNL     1     -44.313  60.060 -52.464  1.00  0.00     0.190 HD
BRANCH  24  27
HETATM   27  C   UNL     1     -45.759  61.180 -50.529  1.00  0.00     0.100 C 
HETATM   28  C   UNL     1     -44.714  61.772 -49.601  1.00  0.00     0.014 C 
ENDBRANCH  24  27
ENDBRANCH  21  23
ENDBRANCH   1  21
BRANCH   2  29
HETATM   29  C   UNL     1     -42.806  55.932 -53.026  1.00  0.00     0.060 A 
HETATM   30  C   UNL     1     -43.340  54.649 -52.856  1.00  0.00     0.030 A 
HETATM   31  C   UNL     1     -42.752  53.741 -51.969  1.00  0.00     0.002 A 
HETATM   32  C   UNL     1     -41.627  54.109 -51.235  1.00  0.00     0.000 A 
HETATM   33  C   UNL     1     -41.095  55.387 -51.377  1.00  0.00     0.002 A 
HETATM   34  C   UNL     1     -41.685  56.295 -52.260  1.00  0.00     0.030 A 
ENDBRANCH   2  29
TORSDOF 4
ENDMDL
MODEL 10
REMARK VINA RESULT:      -7.3      2.118      4.115
REMARK  4 active torsions:
REMARK  status: ('A' for Active; 'I' for Inactive)
REMARK    1  A    between atoms: C_2  and  C_3 
REMARK       I    between atoms: C_3  and  N_4 
REMARK    2  A    between atoms: N_4  and  N_5 
REMARK    3  A    between atoms: N_5  and  C_6 
REMARK    4  A    between atoms: N_7  and  C_8 
ROOT
HETATM    1  C   UNL     1     -42.036  56.474 -54.357  1.00  0.00     0.729 C 
HETATM    2  N   UNL     1     -42.252  57.062 -53.111  1.00  0.00    -0.108 N 
HETATM    3  C   UNL     1     -41.631  56.521 -51.992  1.00  0.00     0.276 C 
HETATM    4  O   UNL     1     -41.396  57.137 -50.954  1.00  0.00    -0.266 OA
HETATM    5  C   UNL     1     -41.231  55.085 -52.092  1.00  0.00     0.050 C 
HETATM    6  C   UNL     1     -41.139  54.601 -53.344  1.00  0.00     0.099 C 
HETATM    7  C   UNL     1     -40.561  53.247 -53.551  1.00  0.00     0.000 A 
HETATM    8  C   UNL     1     -40.449  52.355 -52.476  1.00  0.00    -0.044 A 
HETATM    9  C   UNL     1     -39.905  51.075 -52.667  1.00  0.00     0.008 A 
HETATM   10  C   UNL     1     -39.448  50.686 -53.924  1.00  0.00     0.001 A 
HETATM   11  C   UNL     1     -39.544  51.565 -54.997  1.00  0.00     0.001 A 
HETATM   12  C   UNL     1     -40.098  52.834 -54.812  1.00  0.00     0.014 A 
HETATM   13  C   UNL     1     -40.995  52.754 -51.134  1.00  0.00     0.054 C 
HETATM   14  C   UNL     1     -40.874  54.282 -50.823  1.00  0.00    -0.002 C 
HETATM   15  C   UNL     1     -39.421  54.646 -50.404  1.00  0.00     0.015 C 
HETATM   16  C   UNL     1     -38.977  54.035 -49.073  1.00  0.00     0.001 C 
HETATM   17  C   UNL     1     -39.968  54.320 -47.950  1.00  0.00     0.000 C 
HETATM   18  C   UNL     1     -41.386  53.896 -48.317  1.00  0.00     0.001 C 
HETATM   19  C   UNL     1     -41.841  54.550 -49.625  1.00  0.00     0.015 C 
HETATM   20  N   UNL     1     -41.480  55.298 -54.471  1.00  0.00    -0.061 NA
ENDROOT
BRANCH   1  21
HETATM   21  N   UNL     1     -42.337  57.155 -55.528  1.00  0.00    -0.127 N 
HETATM   22  H   UNL     1     -43.143  57.776 -55.553  1.00  0.00     0.206 HD
BRANCH  21  23
HETATM   23  N   UNL     1     -42.175  56.415 -56.720  1.00  0.00    -0.256 N 
HETATM   24  C   UNL     1     -43.082  56.692 -57.724  1.00  0.00     0.236 C 
HETATM   25  O   UNL     1     -43.830  57.670 -57.686  1.00  0.00    -0.272 OA
HETATM   26  H   UNL     1     -41.851  55.464 -56.553  1.00  0.00     0.190 HD
BRANCH  24  27
HETATM   27  C   UNL     1     -43.016  55.774 -58.926  1.00  0.00     0.100 C 
HETATM   28  C   UNL     1     -43.866  56.225 -60.101  1.00  0.00     0.014 C 
ENDBRANCH  24  27
ENDBRANCH  21  23
ENDBRANCH   1  21
BRANCH   2  29
HETATM   29  C   UNL     1     -42.970  58.298 -52.989  1.00  0.00     0.060 A 
HETATM   30  C   UNL     1     -42.329  59.540 -53.081  1.00  0.00     0.030 A 
HETATM   31  C   UNL     1     -43.054  60.729 -52.963  1.00  0.00     0.002 A 
HETATM   32  C   UNL     1     -44.429  60.692 -52.742  1.00  0.00     0.000 A 
HETATM   33  C   UNL     1     -45.079  59.467 -52.628  1.00  0.00     0.002 A 
HETATM   34  C   UNL     1     -44.353  58.279 -52.742  1.00  0.00     0.030 A 
ENDBRANCH   2  29
TORSDOF 4
ENDMDL
