MODEL 1
REMARK VINA RESULT:      -8.5      0.000      0.000
REMARK  3 active torsions:
REMARK  status: ('A' for Active; 'I' for Inactive)
REMARK    1  A    between atoms: C_9  and  C_10 
REMARK    2  A    between atoms: C_16  and  C_17 
REMARK       I    between atoms: C_17  and  N_18 
REMARK    3  A    between atoms: N_18  and  C_19 
ROOT
HETATM    1  C   UNL     1     -41.589  54.826 -49.122  1.00  0.00     0.070 C 
HETATM    2  C   UNL     1     -41.438  55.836 -50.233  1.00  0.00     0.037 C 
HETATM    3  N   UNL     1     -41.254  57.155 -49.825  1.00  0.00    -0.191 N 
HETATM    4  C   UNL     1     -40.845  58.127 -50.669  1.00  0.00     0.735 A 
HETATM    5  N   UNL     1     -40.760  57.860 -52.007  1.00  0.00    -0.092 N 
HETATM    6  N   UNL     1     -40.264  58.922 -52.662  1.00  0.00     0.012 NA
HETATM    7  N   UNL     1     -40.092  59.842 -51.718  1.00  0.00     0.033 NA
HETATM    8  N   UNL     1     -40.450  59.361 -50.473  1.00  0.00     0.030 NA
HETATM    9  C   UNL     1     -41.121  56.585 -52.624  1.00  0.00     0.198 C 
HETATM   10  C   UNL     1     -41.398  55.530 -51.555  1.00  0.00     0.062 C 
HETATM   11  H   UNL     1     -41.192  57.332 -48.825  1.00  0.00     0.184 HD
ENDROOT
BRANCH  10  12
HETATM   12  C   UNL     1     -41.479  54.144 -52.089  1.00  0.00     0.257 C 
HETATM   13  N   UNL     1     -40.267  53.496 -52.094  1.00  0.00    -0.308 N 
HETATM   14  H   UNL     1     -39.469  53.971 -51.699  1.00  0.00     0.170 HD
HETATM   15  O   UNL     1     -42.579  53.717 -52.413  1.00  0.00    -0.267 OA
BRANCH  13  16
HETATM   16  C   UNL     1     -40.039  52.217 -52.621  1.00  0.00     0.129 A 
HETATM   17  N   UNL     1     -39.705  51.195 -51.815  1.00  0.00    -0.243 NA
HETATM   18  C   UNL     1     -39.519  49.979 -52.373  1.00  0.00     0.119 A 
HETATM   19  C   UNL     1     -39.665  49.725 -53.724  1.00  0.00     0.019 A 
HETATM   20  C   UNL     1     -40.017  50.784 -54.549  1.00  0.00     0.005 A 
HETATM   21  C   UNL     1     -40.202  52.048 -53.992  1.00  0.00     0.050 A 
ENDBRANCH  13  16
ENDBRANCH  10  12
BRANCH   9  22
HETATM   22  C   UNL     1     -42.310  56.761 -53.566  1.00  0.00    -0.029 A 
HETATM   23  C   UNL     1     -43.553  57.154 -53.042  1.00  0.00     0.009 A 
HETATM   24  C   UNL     1     -44.657  57.327 -53.879  1.00  0.00     0.001 A 
HETATM   25  C   UNL     1     -44.532  57.119 -55.250  1.00  0.00     0.000 A 
HETATM   26  C   UNL     1     -43.304  56.747 -55.789  1.00  0.00     0.001 A 
HETATM   27  C   UNL     1     -42.196  56.576 -54.956  1.00  0.00     0.009 A 
ENDBRANCH   9  22
TORSDOF 3
ENDMDL
MODEL 2
REMARK VINA RESULT:      -8.0      3.022      5.860
REMARK  3 active torsions:
REMARK  status: ('A' for Active; 'I' for Inactive)
REMARK    1  A    between atoms: C_9  and  C_10 
REMARK    2  A    between atoms: C_16  and  C_17 
REMARK       I    between atoms: C_17  and  N_18 
REMARK    3  A    between atoms: N_18  and  C_19 
ROOT
HETATM    1  C   UNL     1     -42.110  59.994 -55.651  1.00  0.00     0.070 C 
HETATM    2  C   UNL     1     -41.873  58.944 -54.593  1.00  0.00     0.037 C 
HETATM    3  N   UNL     1     -41.016  59.315 -53.560  1.00  0.00    -0.191 N 
HETATM    4  C   UNL     1     -40.907  58.606 -52.416  1.00  0.00     0.735 A 
HETATM    5  N   UNL     1     -41.530  57.393 -52.318  1.00  0.00    -0.092 N 
HETATM    6  N   UNL     1     -41.367  56.886 -51.085  1.00  0.00     0.012 NA
HETATM    7  N   UNL     1     -40.608  57.778 -50.457  1.00  0.00     0.033 NA
HETATM    8  N   UNL     1     -40.314  58.854 -51.274  1.00  0.00     0.030 NA
HETATM    9  C   UNL     1     -42.296  56.764 -53.391  1.00  0.00     0.198 C 
HETATM   10  C   UNL     1     -42.487  57.733 -54.556  1.00  0.00     0.062 C 
HETATM   11  H   UNL     1     -40.652  60.265 -53.570  1.00  0.00     0.184 HD
ENDROOT
BRANCH  10  12
HETATM   12  C   UNL     1     -43.496  57.283 -55.551  1.00  0.00     0.257 C 
HETATM   13  N   UNL     1     -42.956  57.023 -56.788  1.00  0.00    -0.308 N 
HETATM   14  H   UNL     1     -41.956  57.098 -56.898  1.00  0.00     0.170 HD
HETATM   15  O   UNL     1     -44.652  57.148 -55.174  1.00  0.00    -0.267 OA
BRANCH  13  16
HETATM   16  C   UNL     1     -43.689  56.667 -57.929  1.00  0.00     0.129 A 
HETATM   17  N   UNL     1     -44.623  57.494 -58.428  1.00  0.00    -0.243 NA
HETATM   18  C   UNL     1     -45.283  57.110 -59.541  1.00  0.00     0.119 A 
HETATM   19  C   UNL     1     -45.043  55.920 -60.204  1.00  0.00     0.019 A 
HETATM   20  C   UNL     1     -44.072  55.074 -59.686  1.00  0.00     0.005 A 
HETATM   21  C   UNL     1     -43.388  55.449 -58.531  1.00  0.00     0.050 A 
ENDBRANCH  13  16
ENDBRANCH  10  12
BRANCH   9  22
HETATM   22  C   UNL     1     -41.627  55.466 -53.840  1.00  0.00    -0.029 A 
HETATM   23  C   UNL     1     -42.182  54.234 -53.452  1.00  0.00     0.009 A 
HETATM   24  C   UNL     1     -41.595  53.032 -53.850  1.00  0.00     0.001 A 
HETATM   25  C   UNL     1     -40.453  53.043 -54.646  1.00  0.00     0.000 A 
HETATM   26  C   UNL     1     -39.900  54.254 -55.055  1.00  0.00     0.001 A 
HETATM   27  C   UNL     1     -40.486  55.459 -54.662  1.00  0.00     0.009 A 
ENDBRANCH   9  22
TORSDOF 3
ENDMDL
MODEL 3
REMARK VINA RESULT:      -7.9      2.550      4.231
REMARK  3 active torsions:
REMARK  status: ('A' for Active; 'I' for Inactive)
REMARK    1  A    between atoms: C_9  and  C_10 
REMARK    2  A    between atoms: C_16  and  C_17 
REMARK       I    between atoms: C_17  and  N_18 
REMARK    3  A    between atoms: N_18  and  C_19 
ROOT
HETATM    1  C   UNL     1     -43.144  54.676 -56.299  1.00  0.00     0.070 C 
HETATM    2  C   UNL     1     -43.375  55.853 -55.384  1.00  0.00     0.037 C 
HETATM    3  N   UNL     1     -43.938  56.978 -55.983  1.00  0.00    -0.191 N 
HETATM    4  C   UNL     1     -44.447  58.004 -55.268  1.00  0.00     0.735 A 
HETATM    5  N   UNL     1     -44.267  58.031 -53.913  1.00  0.00    -0.092 N 
HETATM    6  N   UNL     1     -44.909  59.083 -53.380  1.00  0.00     0.012 NA
HETATM    7  N   UNL     1     -45.439  59.712 -54.425  1.00  0.00     0.033 NA
HETATM    8  N   UNL     1     -45.159  59.051 -55.606  1.00  0.00     0.030 NA
HETATM    9  C   UNL     1     -43.516  57.032 -53.156  1.00  0.00     0.198 C 
HETATM   10  C   UNL     1     -43.145  55.848 -54.046  1.00  0.00     0.062 C 
HETATM   11  H   UNL     1     -44.187  56.910 -56.967  1.00  0.00     0.184 HD
ENDROOT
BRANCH  10  12
HETATM   12  C   UNL     1     -42.647  54.666 -53.294  1.00  0.00     0.257 C 
HETATM   13  N   UNL     1     -41.356  54.324 -53.619  1.00  0.00    -0.308 N 
HETATM   14  H   UNL     1     -40.855  54.912 -54.267  1.00  0.00     0.170 HD
HETATM   15  O   UNL     1     -43.387  54.163 -52.459  1.00  0.00    -0.267 OA
BRANCH  13  16
HETATM   16  C   UNL     1     -40.670  53.205 -53.126  1.00  0.00     0.129 A 
HETATM   17  N   UNL     1     -40.302  53.142 -51.835  1.00  0.00    -0.243 NA
HETATM   18  C   UNL     1     -39.663  52.030 -51.411  1.00  0.00     0.119 A 
HETATM   19  C   UNL     1     -39.379  50.950 -52.225  1.00  0.00     0.019 A 
HETATM   20  C   UNL     1     -39.768  51.020 -53.555  1.00  0.00     0.005 A 
HETATM   21  C   UNL     1     -40.419  52.164 -54.014  1.00  0.00     0.050 A 
ENDBRANCH  13  16
ENDBRANCH  10  12
BRANCH   9  22
HETATM   22  C   UNL     1     -42.284  57.662 -52.510  1.00  0.00    -0.029 A 
HETATM   23  C   UNL     1     -41.297  58.242 -53.327  1.00  0.00     0.009 A 
HETATM   24  C   UNL     1     -40.162  58.828 -52.766  1.00  0.00     0.001 A 
HETATM   25  C   UNL     1     -39.999  58.852 -51.383  1.00  0.00     0.000 A 
HETATM   26  C   UNL     1     -40.975  58.299 -50.558  1.00  0.00     0.001 A 
HETATM   27  C   UNL     1     -42.114  57.714 -51.115  1.00  0.00     0.009 A 
ENDBRANCH   9  22
TORSDOF 3
ENDMDL
MODEL 4
REMARK VINA RESULT:      -7.5      1.818      2.095
REMARK  3 active torsions:
REMARK  status: ('A' for Active; 'I' for Inactive)
REMARK    1  A    between atoms: C_9  and  C_10 
REMARK    2  A    between atoms: C_16  and  C_17 
REMARK       I    between atoms: C_17  and  N_18 
REMARK    3  A    between atoms: N_18  and  C_19 
ROOT
HETATM    1  C   UNL     1     -43.906  55.920 -50.687  1.00  0.00     0.070 C 
HETATM    2  C   UNL     1     -43.342  56.741 -51.820  1.00  0.00     0.037 C 
HETATM    3  N   UNL     1     -43.460  58.121 -51.678  1.00  0.00    -0.191 N 
HETATM    4  C   UNL     1     -42.784  58.992 -52.458  1.00  0.00     0.735 A 
HETATM    5  N   UNL     1     -42.082  58.523 -53.534  1.00  0.00    -0.092 N 
HETATM    6  N   UNL     1     -41.422  59.529 -54.131  1.00  0.00     0.012 NA
HETATM    7  N   UNL     1     -41.765  60.609 -53.437  1.00  0.00     0.033 NA
HETATM    8  N   UNL     1     -42.613  60.290 -52.393  1.00  0.00     0.030 NA
HETATM    9  C   UNL     1     -42.029  57.122 -53.943  1.00  0.00     0.198 C 
HETATM   10  C   UNL     1     -42.683  56.229 -52.891  1.00  0.00     0.062 C 
HETATM   11  H   UNL     1     -43.871  58.471 -50.816  1.00  0.00     0.184 HD
ENDROOT
BRANCH  10  12
HETATM   12  C   UNL     1     -42.412  54.780 -53.084  1.00  0.00     0.257 C 
HETATM   13  N   UNL     1     -41.127  54.422 -52.749  1.00  0.00    -0.308 N 
HETATM   14  H   UNL     1     -40.520  55.128 -52.361  1.00  0.00     0.170 HD
HETATM   15  O   UNL     1     -43.333  54.068 -53.460  1.00  0.00    -0.267 OA
BRANCH  13  16
HETATM   16  C   UNL     1     -40.578  53.142 -52.912  1.00  0.00     0.129 A 
HETATM   17  N   UNL     1     -40.005  52.506 -51.877  1.00  0.00    -0.243 NA
HETATM   18  C   UNL     1     -39.513  51.266 -52.086  1.00  0.00     0.119 A 
HETATM   19  C   UNL     1     -39.575  50.610 -53.302  1.00  0.00     0.019 A 
HETATM   20  C   UNL     1     -40.175  51.271 -54.365  1.00  0.00     0.005 A 
HETATM   21  C   UNL     1     -40.680  52.556 -54.170  1.00  0.00     0.050 A 
ENDBRANCH  13  16
ENDBRANCH  10  12
BRANCH   9  22
HETATM   22  C   UNL     1     -42.670  56.939 -55.317  1.00  0.00    -0.029 A 
HETATM   23  C   UNL     1     -43.750  57.758 -55.689  1.00  0.00     0.009 A 
HETATM   24  C   UNL     1     -44.354  57.617 -56.940  1.00  0.00     0.001 A 
HETATM   25  C   UNL     1     -43.882  56.664 -57.839  1.00  0.00     0.000 A 
HETATM   26  C   UNL     1     -42.801  55.857 -57.495  1.00  0.00     0.001 A 
HETATM   27  C   UNL     1     -42.192  55.997 -56.246  1.00  0.00     0.009 A 
ENDBRANCH   9  22
TORSDOF 3
ENDMDL
MODEL 5
REMARK VINA RESULT:      -7.4      2.578      5.270
REMARK  3 active torsions:
REMARK  status: ('A' for Active; 'I' for Inactive)
REMARK    1  A    between atoms: C_9  and  C_10 
REMARK    2  A    between atoms: C_16  and  C_17 
REMARK       I    between atoms: C_17  and  N_18 
REMARK    3  A    between atoms: N_18  and  C_19 
ROOT
HETATM    1  C   UNL     1     -41.541  53.000 -53.701  1.00  0.00     0.070 C 
HETATM    2  C   UNL     1     -41.586  53.962 -52.540  1.00  0.00     0.037 C 
HETATM    3  N   UNL     1     -41.621  53.377 -51.276  1.00  0.00    -0.191 N 
HETATM    4  C   UNL     1     -41.399  54.079 -50.144  1.00  0.00     0.735 A 
HETATM    5  N   UNL     1     -41.296  55.441 -50.209  1.00  0.00    -0.092 N 
HETATM    6  N   UNL     1     -41.001  55.942 -48.999  1.00  0.00     0.012 NA
HETATM    7  N   UNL     1     -40.970  54.881 -48.199  1.00  0.00     0.033 NA
HETATM    8  N   UNL     1     -41.217  53.714 -48.898  1.00  0.00     0.030 NA
HETATM    9  C   UNL     1     -41.446  56.227 -51.431  1.00  0.00     0.198 C 
HETATM   10  C   UNL     1     -41.519  55.313 -52.653  1.00  0.00     0.062 C 
HETATM   11  H   UNL     1     -41.571  52.362 -51.228  1.00  0.00     0.184 HD
ENDROOT
BRANCH  10  12
HETATM   12  C   UNL     1     -41.373  56.031 -53.947  1.00  0.00     0.257 C 
HETATM   13  N   UNL     1     -42.535  56.065 -54.680  1.00  0.00    -0.308 N 
HETATM   14  H   UNL     1     -43.369  55.670 -54.272  1.00  0.00     0.170 HD
HETATM   15  O   UNL     1     -40.290  56.542 -54.201  1.00  0.00    -0.267 OA
BRANCH  13  16
HETATM   16  C   UNL     1     -42.660  56.601 -55.970  1.00  0.00     0.129 A 
HETATM   17  N   UNL     1     -42.539  57.923 -56.176  1.00  0.00    -0.243 NA
HETATM   18  C   UNL     1     -42.646  58.381 -57.442  1.00  0.00     0.119 A 
HETATM   19  C   UNL     1     -42.860  57.566 -58.538  1.00  0.00     0.019 A 
HETATM   20  C   UNL     1     -42.977  56.200 -58.318  1.00  0.00     0.005 A 
HETATM   21  C   UNL     1     -42.880  55.710 -57.016  1.00  0.00     0.050 A 
ENDBRANCH  13  16
ENDBRANCH  10  12
BRANCH   9  22
HETATM   22  C   UNL     1     -42.665  57.141 -51.336  1.00  0.00    -0.029 A 
HETATM   23  C   UNL     1     -42.492  58.533 -51.430  1.00  0.00     0.009 A 
HETATM   24  C   UNL     1     -43.588  59.394 -51.350  1.00  0.00     0.001 A 
HETATM   25  C   UNL     1     -44.871  58.878 -51.184  1.00  0.00     0.000 A 
HETATM   26  C   UNL     1     -45.063  57.501 -51.107  1.00  0.00     0.001 A 
HETATM   27  C   UNL     1     -43.969  56.636 -51.190  1.00  0.00     0.009 A 
ENDBRANCH   9  22
TORSDOF 3
ENDMDL
MODEL 6
REMARK VINA RESULT:      -7.3      3.135      4.913
REMARK  3 active torsions:
REMARK  status: ('A' for Active; 'I' for Inactive)
REMARK    1  A    between atoms: C_9  and  C_10 
REMARK    2  A    between atoms: C_16  and  C_17 
REMARK       I    between atoms: C_17  and  N_18 
REMARK    3  A    between atoms: N_18  and  C_19 
ROOT
HETATM    1  C   UNL     1     -40.767  54.231 -55.392  1.00  0.00     0.070 C 
HETATM    2  C   UNL     1     -41.776  55.352 -55.437  1.00  0.00     0.037 C 
HETATM    3  N   UNL     1     -41.940  55.963 -56.678  1.00  0.00    -0.191 N 
HETATM    4  C   UNL     1     -42.973  56.788 -56.951  1.00  0.00     0.735 A 
HETATM    5  N   UNL     1     -43.807  57.176 -55.939  1.00  0.00    -0.092 N 
HETATM    6  N   UNL     1     -44.809  57.927 -56.424  1.00  0.00     0.012 NA
HETATM    7  N   UNL     1     -44.550  58.025 -57.725  1.00  0.00     0.033 NA
HETATM    8  N   UNL     1     -43.410  57.321 -58.066  1.00  0.00     0.030 NA
HETATM    9  C   UNL     1     -43.647  56.790 -54.539  1.00  0.00     0.198 C 
HETATM   10  C   UNL     1     -42.558  55.730 -54.393  1.00  0.00     0.062 C 
HETATM   11  H   UNL     1     -41.407  55.588 -57.459  1.00  0.00     0.184 HD
ENDROOT
BRANCH  10  12
HETATM   12  C   UNL     1     -42.537  55.072 -53.060  1.00  0.00     0.257 C 
HETATM   13  N   UNL     1     -41.438  55.413 -52.308  1.00  0.00    -0.308 N 
HETATM   14  H   UNL     1     -40.796  56.096 -52.681  1.00  0.00     0.170 HD
HETATM   15  O   UNL     1     -43.484  54.359 -52.756  1.00  0.00    -0.267 OA
BRANCH  13  16
HETATM   16  C   UNL     1     -41.123  54.876 -51.051  1.00  0.00     0.129 A 
HETATM   17  N   UNL     1     -41.374  55.569 -49.928  1.00  0.00    -0.243 NA
HETATM   18  C   UNL     1     -41.071  54.994 -48.745  1.00  0.00     0.119 A 
HETATM   19  C   UNL     1     -40.529  53.728 -48.623  1.00  0.00     0.019 A 
HETATM   20  C   UNL     1     -40.279  53.015 -49.787  1.00  0.00     0.005 A 
HETATM   21  C   UNL     1     -40.575  53.597 -51.019  1.00  0.00     0.050 A 
ENDBRANCH  13  16
ENDBRANCH  10  12
BRANCH   9  22
HETATM   22  C   UNL     1     -43.363  58.015 -53.673  1.00  0.00    -0.029 A 
HETATM   23  C   UNL     1     -44.264  58.363 -52.652  1.00  0.00     0.009 A 
HETATM   24  C   UNL     1     -44.028  59.475 -51.842  1.00  0.00     0.001 A 
HETATM   25  C   UNL     1     -42.886  60.250 -52.034  1.00  0.00     0.000 A 
HETATM   26  C   UNL     1     -41.973  59.909 -53.029  1.00  0.00     0.001 A 
HETATM   27  C   UNL     1     -42.204  58.795 -53.839  1.00  0.00     0.009 A 
ENDBRANCH   9  22
TORSDOF 3
ENDMDL
MODEL 7
REMARK VINA RESULT:      -7.1      4.029      7.121
REMARK  3 active torsions:
REMARK  status: ('A' for Active; 'I' for Inactive)
REMARK    1  A    between atoms: C_9  and  C_10 
REMARK    2  A    between atoms: C_16  and  C_17 
REMARK       I    between atoms: C_17  and  N_18 
REMARK    3  A    between atoms: N_18  and  C_19 
ROOT
HETATM    1  C   UNL     1     -45.165  59.582 -55.676  1.00  0.00     0.070 C 
HETATM    2  C   UNL     1     -44.422  58.427 -56.301  1.00  0.00     0.037 C 
HETATM    3  N   UNL     1     -45.063  57.811 -57.373  1.00  0.00    -0.191 N 
HETATM    4  C   UNL     1     -44.430  56.950 -58.199  1.00  0.00     0.735 A 
HETATM    5  N   UNL     1     -43.165  56.533 -57.892  1.00  0.00    -0.092 N 
HETATM    6  N   UNL     1     -42.685  55.747 -58.869  1.00  0.00     0.012 NA
HETATM    7  N   UNL     1     -43.682  55.659 -59.744  1.00  0.00     0.033 NA
HETATM    8  N   UNL     1     -44.775  56.402 -59.339  1.00  0.00     0.030 NA
HETATM    9  C   UNL     1     -42.431  56.924 -56.690  1.00  0.00     0.198 C 
HETATM   10  C   UNL     1     -43.179  58.021 -55.937  1.00  0.00     0.062 C 
HETATM   11  H   UNL     1     -45.949  58.204 -57.679  1.00  0.00     0.184 HD
ENDROOT
BRANCH  10  12
HETATM   12  C   UNL     1     -42.368  58.679 -54.878  1.00  0.00     0.257 C 
HETATM   13  N   UNL     1     -42.597  58.163 -53.624  1.00  0.00    -0.308 N 
HETATM   14  H   UNL     1     -43.223  57.376 -53.538  1.00  0.00     0.170 HD
HETATM   15  O   UNL     1     -41.575  59.546 -55.217  1.00  0.00    -0.267 OA
BRANCH  13  16
HETATM   16  C   UNL     1     -42.034  58.650 -52.436  1.00  0.00     0.129 A 
HETATM   17  N   UNL     1     -42.489  59.784 -51.877  1.00  0.00    -0.243 NA
HETATM   18  C   UNL     1     -41.925  60.195 -50.722  1.00  0.00     0.119 A 
HETATM   19  C   UNL     1     -40.913  59.509 -50.075  1.00  0.00     0.019 A 
HETATM   20  C   UNL     1     -40.453  58.335 -50.654  1.00  0.00     0.005 A 
HETATM   21  C   UNL     1     -41.016  57.900 -51.854  1.00  0.00     0.050 A 
ENDBRANCH  13  16
ENDBRANCH  10  12
BRANCH   9  22
HETATM   22  C   UNL     1     -42.167  55.709 -55.803  1.00  0.00    -0.029 A 
HETATM   23  C   UNL     1     -40.851  55.419 -55.404  1.00  0.00     0.009 A 
HETATM   24  C   UNL     1     -40.579  54.318 -54.591  1.00  0.00     0.001 A 
HETATM   25  C   UNL     1     -41.617  53.496 -54.157  1.00  0.00     0.000 A 
HETATM   26  C   UNL     1     -42.930  53.779 -54.528  1.00  0.00     0.001 A 
HETATM   27  C   UNL     1     -43.206  54.882 -55.339  1.00  0.00     0.009 A 
ENDBRANCH   9  22
TORSDOF 3
ENDMDL
MODEL 8
REMARK VINA RESULT:      -6.8     15.241     18.107
REMARK  3 active torsions:
REMARK  status: ('A' for Active; 'I' for Inactive)
REMARK    1  A    between atoms: C_9  and  C_10 
REMARK    2  A    between atoms: C_16  and  C_17 
REMARK       I    between atoms: C_17  and  N_18 
REMARK    3  A    between atoms: N_18  and  C_19 
ROOT
HETATM    1  C   UNL     1     -35.732  42.276 -53.508  1.00  0.00     0.070 C 
HETATM    2  C   UNL     1     -34.734  41.156 -53.354  1.00  0.00     0.037 C 
HETATM    3  N   UNL     1     -33.923  41.225 -52.223  1.00  0.00    -0.191 N 
HETATM    4  C   UNL     1     -33.173  40.183 -51.802  1.00  0.00     0.735 A 
HETATM    5  N   UNL     1     -33.069  39.071 -52.590  1.00  0.00    -0.092 N 
HETATM    6  N   UNL     1     -32.349  38.125 -51.965  1.00  0.00     0.012 NA
HETATM    7  N   UNL     1     -31.985  38.690 -50.817  1.00  0.00     0.033 NA
HETATM    8  N   UNL     1     -32.491  39.972 -50.703  1.00  0.00     0.030 NA
HETATM    9  C   UNL     1     -33.690  38.924 -53.904  1.00  0.00     0.198 C 
HETATM   10  C   UNL     1     -34.640  40.086 -54.184  1.00  0.00     0.062 C 
HETATM   11  H   UNL     1     -34.089  41.989 -51.573  1.00  0.00     0.184 HD
ENDROOT
BRANCH  10  12
HETATM   12  C   UNL     1     -35.527  39.864 -55.356  1.00  0.00     0.257 C 
HETATM   13  N   UNL     1     -35.189  40.635 -56.443  1.00  0.00    -0.308 N 
HETATM   14  H   UNL     1     -34.368  41.217 -56.379  1.00  0.00     0.170 HD
HETATM   15  O   UNL     1     -36.406  39.019 -55.259  1.00  0.00    -0.267 OA
BRANCH  13  16
HETATM   16  C   UNL     1     -35.906  40.690 -57.647  1.00  0.00     0.129 A 
HETATM   17  N   UNL     1     -36.043  39.593 -58.412  1.00  0.00    -0.243 NA
HETATM   18  C   UNL     1     -36.762  39.699 -59.550  1.00  0.00     0.119 A 
HETATM   19  C   UNL     1     -37.375  40.866 -59.966  1.00  0.00     0.019 A 
HETATM   20  C   UNL     1     -37.234  41.992 -59.167  1.00  0.00     0.005 A 
HETATM   21  C   UNL     1     -36.487  41.906 -57.994  1.00  0.00     0.050 A 
ENDBRANCH  13  16
ENDBRANCH  10  12
BRANCH   9  22
HETATM   22  C   UNL     1     -32.624  38.791 -54.990  1.00  0.00    -0.029 A 
HETATM   23  C   UNL     1     -32.586  37.630 -55.782  1.00  0.00     0.009 A 
HETATM   24  C   UNL     1     -31.626  37.482 -56.784  1.00  0.00     0.001 A 
HETATM   25  C   UNL     1     -30.696  38.494 -57.015  1.00  0.00     0.000 A 
HETATM   26  C   UNL     1     -30.730  39.658 -56.252  1.00  0.00     0.001 A 
HETATM   27  C   UNL     1     -31.691  39.811 -55.251  1.00  0.00     0.009 A 
ENDBRANCH   9  22
TORSDOF 3
ENDMDL
MODEL 9
REMARK VINA RESULT:      -6.8      6.152      8.285
REMARK  3 active torsions:
REMARK  status: ('A' for Active; 'I' for Inactive)
REMARK    1  A    between atoms: C_9  and  C_10 
REMARK    2  A    between atoms: C_16  and  C_17 
REMARK       I    between atoms: C_17  and  N_18 
REMARK    3  A    between atoms: N_18  and  C_19 
ROOT
HETATM    1  C   UNL     1     -45.012  54.698 -60.603  1.00  0.00     0.070 C 
HETATM    2  C   UNL     1     -45.209  56.158 -60.282  1.00  0.00     0.037 C 
HETATM    3  N   UNL     1     -46.277  56.777 -60.929  1.00  0.00    -0.191 N 
HETATM    4  C   UNL     1     -46.747  57.987 -60.559  1.00  0.00     0.735 A 
HETATM    5  N   UNL     1     -46.063  58.717 -59.627  1.00  0.00    -0.092 N 
HETATM    6  N   UNL     1     -46.729  59.847 -59.342  1.00  0.00     0.012 NA
HETATM    7  N   UNL     1     -47.794  59.815 -60.137  1.00  0.00     0.033 NA
HETATM    8  N   UNL     1     -47.818  58.662 -60.901  1.00  0.00     0.030 NA
HETATM    9  C   UNL     1     -44.808  58.300 -59.006  1.00  0.00     0.198 C 
HETATM   10  C   UNL     1     -44.478  56.855 -59.374  1.00  0.00     0.062 C 
HETATM   11  H   UNL     1     -46.862  56.198 -61.527  1.00  0.00     0.184 HD
ENDROOT
BRANCH  10  12
HETATM   12  C   UNL     1     -43.388  56.262 -58.555  1.00  0.00     0.257 C 
HETATM   13  N   UNL     1     -43.744  56.069 -57.241  1.00  0.00    -0.308 N 
HETATM   14  H   UNL     1     -44.692  56.281 -56.967  1.00  0.00     0.170 HD
HETATM   15  O   UNL     1     -42.341  55.972 -59.117  1.00  0.00    -0.267 OA
BRANCH  13  16
HETATM   16  C   UNL     1     -42.886  55.606 -56.233  1.00  0.00     0.129 A 
HETATM   17  N   UNL     1     -41.950  56.414 -55.707  1.00  0.00    -0.243 NA
HETATM   18  C   UNL     1     -41.167  55.922 -54.723  1.00  0.00     0.119 A 
HETATM   19  C   UNL     1     -41.282  54.639 -54.219  1.00  0.00     0.019 A 
HETATM   20  C   UNL     1     -42.256  53.814 -54.763  1.00  0.00     0.005 A 
HETATM   21  C   UNL     1     -43.067  54.301 -55.787  1.00  0.00     0.050 A 
ENDBRANCH  13  16
ENDBRANCH  10  12
BRANCH   9  22
HETATM   22  C   UNL     1     -43.677  59.253 -59.387  1.00  0.00    -0.029 A 
HETATM   23  C   UNL     1     -43.052  60.018 -58.387  1.00  0.00     0.009 A 
HETATM   24  C   UNL     1     -42.013  60.895 -58.705  1.00  0.00     0.001 A 
HETATM   25  C   UNL     1     -41.578  61.012 -60.023  1.00  0.00     0.000 A 
HETATM   26  C   UNL     1     -42.173  60.249 -61.024  1.00  0.00     0.001 A 
HETATM   27  C   UNL     1     -43.210  59.368 -60.709  1.00  0.00     0.009 A 
ENDBRANCH   9  22
TORSDOF 3
ENDMDL
MODEL 10
REMARK VINA RESULT:      -6.6      2.887      5.319
REMARK  3 active torsions:
REMARK  status: ('A' for Active; 'I' for Inactive)
REMARK    1  A    between atoms: C_9  and  C_10 
REMARK    2  A    between atoms: C_16  and  C_17 
REMARK       I    between atoms: C_17  and  N_18 
REMARK    3  A    between atoms: N_18  and  C_19 
ROOT
HETATM    1  C   UNL     1     -42.286  54.615 -53.141  1.00  0.00     0.070 C 
HETATM    2  C   UNL     1     -42.259  56.080 -52.781  1.00  0.00     0.037 C 
HETATM    3  N   UNL     1     -41.449  56.418 -51.700  1.00  0.00    -0.191 N 
HETATM    4  C   UNL     1     -41.110  57.695 -51.418  1.00  0.00     0.735 A 
HETATM    5  N   UNL     1     -41.703  58.715 -52.109  1.00  0.00    -0.092 N 
HETATM    6  N   UNL     1     -41.178  59.893 -51.738  1.00  0.00     0.012 NA
HETATM    7  N   UNL     1     -40.299  59.582 -50.791  1.00  0.00     0.033 NA
HETATM    8  N   UNL     1     -40.246  58.216 -50.581  1.00  0.00     0.030 NA
HETATM    9  C   UNL     1     -42.731  58.536 -53.132  1.00  0.00     0.198 C 
HETATM   10  C   UNL     1     -42.897  57.057 -53.475  1.00  0.00     0.062 C 
HETATM   11  H   UNL     1     -40.910  55.673 -51.266  1.00  0.00     0.184 HD
ENDROOT
BRANCH  10  12
HETATM   12  C   UNL     1     -43.699  56.815 -54.704  1.00  0.00     0.257 C 
HETATM   13  N   UNL     1     -42.960  56.909 -55.858  1.00  0.00    -0.308 N 
HETATM   14  H   UNL     1     -41.967  57.069 -55.778  1.00  0.00     0.170 HD
HETATM   15  O   UNL     1     -44.879  56.520 -54.570  1.00  0.00    -0.267 OA
BRANCH  13  16
HETATM   16  C   UNL     1     -43.478  56.811 -57.158  1.00  0.00     0.129 A 
HETATM   17  N   UNL     1     -44.265  57.779 -57.656  1.00  0.00    -0.243 NA
HETATM   18  C   UNL     1     -44.718  57.642 -58.921  1.00  0.00     0.119 A 
HETATM   19  C   UNL     1     -44.406  56.570 -59.736  1.00  0.00     0.019 A 
HETATM   20  C   UNL     1     -43.586  55.578 -59.217  1.00  0.00     0.005 A 
HETATM   21  C   UNL     1     -43.118  55.696 -57.909  1.00  0.00     0.050 A 
ENDBRANCH  13  16
ENDBRANCH  10  12
BRANCH   9  22
HETATM   22  C   UNL     1     -44.049  59.164 -52.684  1.00  0.00    -0.029 A 
HETATM   23  C   UNL     1     -44.636  58.749 -51.476  1.00  0.00     0.009 A 
HETATM   24  C   UNL     1     -45.838  59.308 -51.039  1.00  0.00     0.001 A 
HETATM   25  C   UNL     1     -46.466  60.293 -51.797  1.00  0.00     0.000 A 
HETATM   26  C   UNL     1     -45.890  60.729 -52.987  1.00  0.00     0.001 A 
HETATM   27  C   UNL     1     -44.686  60.175 -53.426  1.00  0.00     0.009 A 
ENDBRANCH   9  22
TORSDOF 3
ENDMDL
