MODEL 1
REMARK VINA RESULT:      -8.7      0.000      0.000
REMARK  6 active torsions:
REMARK  status: ('A' for Active; 'I' for Inactive)
REMARK    1  A    between atoms: C_7  and  C_8 
REMARK    2  A    between atoms: N_9  and  N_10 
REMARK       I    between atoms: N_10  and  C_11 
REMARK    3  A    between atoms: C_11  and  C_12 
REMARK    4  A    between atoms: C_12  and  N_13 
REMARK    5  A    between atoms: N_13  and  C_14 
REMARK    6  A    between atoms: C_17  and  O_18 
ROOT
HETATM    1  N   UNL     1     -41.094  55.526 -55.424  1.00  0.00    -0.246 N 
HETATM    2  C   UNL     1     -42.326  55.419 -56.056  1.00  0.00     0.250 C 
HETATM    3  O   UNL     1     -43.111  54.480 -55.933  1.00  0.00    -0.270 OA
HETATM    4  H   UNL     1     -40.523  56.353 -55.588  1.00  0.00     0.192 HD
ENDROOT
BRANCH   1   5
HETATM    5  N   UNL     1     -40.654  54.498 -54.649  1.00  0.00    -0.184 NA
HETATM    6  C   UNL     1     -40.948  54.535 -53.391  1.00  0.00     0.153 C 
BRANCH   6   7
HETATM    7  C   UNL     1     -40.490  53.466 -52.520  1.00  0.00     0.018 A 
HETATM    8  C   UNL     1     -40.247  53.555 -51.153  1.00  0.00     0.018 A 
HETATM    9  C   UNL     1     -40.370  54.697 -50.207  1.00  0.00     0.069 C 
HETATM   10  N   UNL     1     -39.830  52.322 -50.719  1.00  0.00    -0.358 N 
HETATM   11  H   UNL     1     -39.583  52.097 -49.765  1.00  0.00     0.166 HD
HETATM   12  C   UNL     1     -39.792  51.428 -51.760  1.00  0.00     0.043 A 
HETATM   13  C   UNL     1     -40.199  52.112 -52.905  1.00  0.00     0.004 A 
HETATM   14  C   UNL     1     -39.427  50.076 -51.767  1.00  0.00     0.030 A 
HETATM   15  C   UNL     1     -40.239  51.401 -54.125  1.00  0.00     0.014 A 
HETATM   16  C   UNL     1     -39.876  50.049 -54.150  1.00  0.00     0.001 A 
HETATM   17  C   UNL     1     -39.476  49.398 -52.986  1.00  0.00     0.002 A 
ENDBRANCH   6   7
ENDBRANCH   1   5
BRANCH   2  18
HETATM   18  C   UNL     1     -42.672  56.643 -56.905  1.00  0.00     0.197 C 
BRANCH  18  19
HETATM   19  N   UNL     1     -42.532  56.358 -58.349  1.00  0.00    -0.284 NA
HETATM   20  H   UNL     1     -42.000  55.498 -58.497  1.00  0.00     0.128 HD
BRANCH  19  21
HETATM   21  C   UNL     1     -43.723  56.287 -59.098  1.00  0.00     0.008 A 
HETATM   22  C   UNL     1     -43.878  55.228 -60.003  1.00  0.00     0.026 A 
HETATM   23  C   UNL     1     -45.023  55.119 -60.801  1.00  0.00     0.038 A 
HETATM   24  C   UNL     1     -46.031  56.078 -60.732  1.00  0.00     0.068 A 
HETATM   25  C   UNL     1     -45.865  57.167 -59.882  1.00  0.00     0.038 A 
HETATM   26  C   UNL     1     -44.711  57.277 -59.089  1.00  0.00     0.026 A 
BRANCH  24  27
HETATM   27  O   UNL     1     -47.103  55.848 -61.548  1.00  0.00    -0.356 OA
HETATM   28  C   UNL     1     -48.002  56.934 -61.747  1.00  0.00     0.210 C 
ENDBRANCH  24  27
ENDBRANCH  19  21
ENDBRANCH  18  19
ENDBRANCH   2  18
TORSDOF 6
ENDMDL
MODEL 2
REMARK VINA RESULT:      -8.6      1.025      1.419
REMARK  6 active torsions:
REMARK  status: ('A' for Active; 'I' for Inactive)
REMARK    1  A    between atoms: C_7  and  C_8 
REMARK    2  A    between atoms: N_9  and  N_10 
REMARK       I    between atoms: N_10  and  C_11 
REMARK    3  A    between atoms: C_11  and  C_12 
REMARK    4  A    between atoms: C_12  and  N_13 
REMARK    5  A    between atoms: N_13  and  C_14 
REMARK    6  A    between atoms: C_17  and  O_18 
ROOT
HETATM    1  N   UNL     1     -42.118  55.348 -56.132  1.00  0.00    -0.246 N 
HETATM    2  C   UNL     1     -42.220  56.731 -56.056  1.00  0.00     0.250 C 
HETATM    3  O   UNL     1     -42.104  57.399 -55.030  1.00  0.00    -0.270 OA
HETATM    4  H   UNL     1     -42.222  54.893 -57.036  1.00  0.00     0.192 HD
ENDROOT
BRANCH   1   5
HETATM    5  N   UNL     1     -41.941  54.632 -54.989  1.00  0.00    -0.184 NA
HETATM    6  C   UNL     1     -40.744  54.223 -54.724  1.00  0.00     0.153 C 
BRANCH   6   7
HETATM    7  C   UNL     1     -40.507  53.443 -53.520  1.00  0.00     0.018 A 
HETATM    8  C   UNL     1     -40.585  53.898 -52.208  1.00  0.00     0.018 A 
HETATM    9  C   UNL     1     -40.914  55.239 -51.652  1.00  0.00     0.069 C 
HETATM   10  N   UNL     1     -40.288  52.845 -51.380  1.00  0.00    -0.358 N 
HETATM   11  H   UNL     1     -40.269  52.890 -50.370  1.00  0.00     0.166 HD
HETATM   12  C   UNL     1     -40.018  51.714 -52.110  1.00  0.00     0.043 A 
HETATM   13  C   UNL     1     -40.145  52.053 -53.457  1.00  0.00     0.004 A 
HETATM   14  C   UNL     1     -39.671  50.429 -51.676  1.00  0.00     0.030 A 
HETATM   15  C   UNL     1     -39.909  51.048 -54.421  1.00  0.00     0.014 A 
HETATM   16  C   UNL     1     -39.559  49.758 -54.004  1.00  0.00     0.001 A 
HETATM   17  C   UNL     1     -39.444  49.455 -52.649  1.00  0.00     0.002 A 
ENDBRANCH   6   7
ENDBRANCH   1   5
BRANCH   2  18
HETATM   18  C   UNL     1     -42.436  57.391 -57.418  1.00  0.00     0.197 C 
BRANCH  18  19
HETATM   19  N   UNL     1     -42.518  56.388 -58.500  1.00  0.00    -0.284 NA
HETATM   20  H   UNL     1     -42.207  55.472 -58.168  1.00  0.00     0.128 HD
BRANCH  19  21
HETATM   21  C   UNL     1     -43.768  56.238 -59.132  1.00  0.00     0.008 A 
HETATM   22  C   UNL     1     -44.767  57.184 -58.864  1.00  0.00     0.026 A 
HETATM   23  C   UNL     1     -46.041  57.074 -59.434  1.00  0.00     0.038 A 
HETATM   24  C   UNL     1     -46.356  56.002 -60.267  1.00  0.00     0.068 A 
HETATM   25  C   UNL     1     -45.393  55.024 -60.496  1.00  0.00     0.038 A 
HETATM   26  C   UNL     1     -44.120  55.133 -59.915  1.00  0.00     0.026 A 
BRANCH  24  27
HETATM   27  O   UNL     1     -47.626  56.019 -60.774  1.00  0.00    -0.356 OA
HETATM   28  C   UNL     1     -47.933  57.056 -61.699  1.00  0.00     0.210 C 
ENDBRANCH  24  27
ENDBRANCH  19  21
ENDBRANCH  18  19
ENDBRANCH   2  18
TORSDOF 6
ENDMDL
MODEL 3
REMARK VINA RESULT:      -8.4      1.185      2.969
REMARK  6 active torsions:
REMARK  status: ('A' for Active; 'I' for Inactive)
REMARK    1  A    between atoms: C_7  and  C_8 
REMARK    2  A    between atoms: N_9  and  N_10 
REMARK       I    between atoms: N_10  and  C_11 
REMARK    3  A    between atoms: C_11  and  C_12 
REMARK    4  A    between atoms: C_12  and  N_13 
REMARK    5  A    between atoms: N_13  and  C_14 
REMARK    6  A    between atoms: C_17  and  O_18 
ROOT
HETATM    1  N   UNL     1     -41.474  55.600 -55.823  1.00  0.00    -0.246 N 
HETATM    2  C   UNL     1     -42.118  56.830 -55.767  1.00  0.00     0.250 C 
HETATM    3  O   UNL     1     -42.175  57.560 -54.779  1.00  0.00    -0.270 OA
HETATM    4  H   UNL     1     -41.480  55.077 -56.696  1.00  0.00     0.192 HD
ENDROOT
BRANCH   1   5
HETATM    5  N   UNL     1     -40.904  55.098 -54.694  1.00  0.00    -0.184 NA
HETATM    6  C   UNL     1     -41.462  54.062 -54.159  1.00  0.00     0.153 C 
BRANCH   6   7
HETATM    7  C   UNL     1     -40.898  53.496 -52.945  1.00  0.00     0.018 A 
HETATM    8  C   UNL     1     -40.175  52.312 -52.839  1.00  0.00     0.018 A 
HETATM    9  C   UNL     1     -39.774  51.312 -53.865  1.00  0.00     0.069 C 
HETATM   10  N   UNL     1     -39.830  52.147 -51.521  1.00  0.00    -0.358 N 
HETATM   11  H   UNL     1     -39.299  51.368 -51.155  1.00  0.00     0.166 HD
HETATM   12  C   UNL     1     -40.305  53.187 -50.760  1.00  0.00     0.043 A 
HETATM   13  C   UNL     1     -40.980  54.051 -51.622  1.00  0.00     0.004 A 
HETATM   14  C   UNL     1     -40.186  53.417 -49.385  1.00  0.00     0.030 A 
HETATM   15  C   UNL     1     -41.572  55.210 -51.071  1.00  0.00     0.014 A 
HETATM   16  C   UNL     1     -41.464  55.455 -49.696  1.00  0.00     0.001 A 
HETATM   17  C   UNL     1     -40.779  54.570 -48.867  1.00  0.00     0.002 A 
ENDBRANCH   6   7
ENDBRANCH   1   5
BRANCH   2  18
HETATM   18  C   UNL     1     -42.724  57.249 -57.106  1.00  0.00     0.197 C 
BRANCH  18  19
HETATM   19  N   UNL     1     -42.587  56.184 -58.121  1.00  0.00    -0.284 NA
HETATM   20  H   UNL     1     -42.402  55.282 -57.676  1.00  0.00     0.128 HD
BRANCH  19  21
HETATM   21  C   UNL     1     -43.656  56.030 -59.026  1.00  0.00     0.008 A 
HETATM   22  C   UNL     1     -44.528  57.110 -59.216  1.00  0.00     0.026 A 
HETATM   23  C   UNL     1     -45.628  57.010 -60.076  1.00  0.00     0.038 A 
HETATM   24  C   UNL     1     -45.897  55.821 -60.750  1.00  0.00     0.068 A 
HETATM   25  C   UNL     1     -45.075  54.721 -60.526  1.00  0.00     0.038 A 
HETATM   26  C   UNL     1     -43.978  54.823 -59.656  1.00  0.00     0.026 A 
BRANCH  24  27
HETATM   27  O   UNL     1     -46.989  55.858 -61.573  1.00  0.00    -0.356 OA
HETATM   28  C   UNL     1     -47.803  57.023 -61.505  1.00  0.00     0.210 C 
ENDBRANCH  24  27
ENDBRANCH  19  21
ENDBRANCH  18  19
ENDBRANCH   2  18
TORSDOF 6
ENDMDL
MODEL 4
REMARK VINA RESULT:      -8.2      2.627      3.223
REMARK  6 active torsions:
REMARK  status: ('A' for Active; 'I' for Inactive)
REMARK    1  A    between atoms: C_7  and  C_8 
REMARK    2  A    between atoms: N_9  and  N_10 
REMARK       I    between atoms: N_10  and  C_11 
REMARK    3  A    between atoms: C_11  and  C_12 
REMARK    4  A    between atoms: C_12  and  N_13 
REMARK    5  A    between atoms: N_13  and  C_14 
REMARK    6  A    between atoms: C_17  and  O_18 
ROOT
HETATM    1  N   UNL     1     -41.683  57.686 -53.445  1.00  0.00    -0.246 N 
HETATM    2  C   UNL     1     -41.036  58.912 -53.533  1.00  0.00     0.250 C 
HETATM    3  O   UNL     1     -39.871  59.128 -53.202  1.00  0.00    -0.270 OA
HETATM    4  H   UNL     1     -42.650  57.613 -53.755  1.00  0.00     0.192 HD
ENDROOT
BRANCH   1   5
HETATM    5  N   UNL     1     -41.029  56.629 -52.892  1.00  0.00    -0.184 NA
HETATM    6  C   UNL     1     -41.736  55.594 -52.575  1.00  0.00     0.153 C 
BRANCH   6   7
HETATM    7  C   UNL     1     -41.084  54.444 -51.970  1.00  0.00     0.018 A 
HETATM    8  C   UNL     1     -40.761  54.285 -50.626  1.00  0.00     0.018 A 
HETATM    9  C   UNL     1     -40.964  55.182 -49.455  1.00  0.00     0.069 C 
HETATM   10  N   UNL     1     -40.160  53.061 -50.481  1.00  0.00    -0.358 N 
HETATM   11  H   UNL     1     -39.820  52.683 -49.606  1.00  0.00     0.166 HD
HETATM   12  C   UNL     1     -40.079  52.412 -51.688  1.00  0.00     0.043 A 
HETATM   13  C   UNL     1     -40.650  53.252 -52.644  1.00  0.00     0.004 A 
HETATM   14  C   UNL     1     -39.545  51.156 -51.995  1.00  0.00     0.030 A 
HETATM   15  C   UNL     1     -40.682  52.806 -53.985  1.00  0.00     0.014 A 
HETATM   16  C   UNL     1     -40.151  51.552 -54.310  1.00  0.00     0.001 A 
HETATM   17  C   UNL     1     -39.591  50.740 -53.327  1.00  0.00     0.002 A 
ENDBRANCH   6   7
ENDBRANCH   1   5
BRANCH   2  18
HETATM   18  C   UNL     1     -41.905  60.004 -54.157  1.00  0.00     0.197 C 
BRANCH  18  19
HETATM   19  N   UNL     1     -41.701  60.091 -55.618  1.00  0.00    -0.284 NA
HETATM   20  H   UNL     1     -40.715  59.960 -55.854  1.00  0.00     0.128 HD
BRANCH  19  21
HETATM   21  C   UNL     1     -42.475  59.227 -56.418  1.00  0.00     0.008 A 
HETATM   22  C   UNL     1     -41.921  58.754 -57.615  1.00  0.00     0.026 A 
HETATM   23  C   UNL     1     -42.650  57.919 -58.470  1.00  0.00     0.038 A 
HETATM   24  C   UNL     1     -43.959  57.555 -58.162  1.00  0.00     0.068 A 
HETATM   25  C   UNL     1     -44.543  58.064 -57.006  1.00  0.00     0.038 A 
HETATM   26  C   UNL     1     -43.812  58.908 -56.155  1.00  0.00     0.026 A 
BRANCH  24  27
HETATM   27  O   UNL     1     -44.556  56.723 -59.068  1.00  0.00    -0.356 OA
HETATM   28  C   UNL     1     -44.125  56.833 -60.420  1.00  0.00     0.210 C 
ENDBRANCH  24  27
ENDBRANCH  19  21
ENDBRANCH  18  19
ENDBRANCH   2  18
TORSDOF 6
ENDMDL
MODEL 5
REMARK VINA RESULT:      -8.2      1.813      2.187
REMARK  6 active torsions:
REMARK  status: ('A' for Active; 'I' for Inactive)
REMARK    1  A    between atoms: C_7  and  C_8 
REMARK    2  A    between atoms: N_9  and  N_10 
REMARK       I    between atoms: N_10  and  C_11 
REMARK    3  A    between atoms: C_11  and  C_12 
REMARK    4  A    between atoms: C_12  and  N_13 
REMARK    5  A    between atoms: N_13  and  C_14 
REMARK    6  A    between atoms: C_17  and  O_18 
ROOT
HETATM    1  N   UNL     1     -43.681  55.385 -54.297  1.00  0.00    -0.246 N 
HETATM    2  C   UNL     1     -44.038  56.621 -53.774  1.00  0.00     0.250 C 
HETATM    3  O   UNL     1     -43.758  57.025 -52.646  1.00  0.00    -0.270 OA
HETATM    4  H   UNL     1     -43.958  55.151 -55.248  1.00  0.00     0.192 HD
ENDROOT
BRANCH   1   5
HETATM    5  N   UNL     1     -43.025  54.494 -53.505  1.00  0.00    -0.184 NA
HETATM    6  C   UNL     1     -41.734  54.539 -53.505  1.00  0.00     0.153 C 
BRANCH   6   7
HETATM    7  C   UNL     1     -40.987  53.599 -52.685  1.00  0.00     0.018 A 
HETATM    8  C   UNL     1     -40.569  53.792 -51.373  1.00  0.00     0.018 A 
HETATM    9  C   UNL     1     -40.739  54.946 -50.448  1.00  0.00     0.069 C 
HETATM   10  N   UNL     1     -39.899  52.663 -50.975  1.00  0.00    -0.358 N 
HETATM   11  H   UNL     1     -39.484  52.527 -50.063  1.00  0.00     0.166 HD
HETATM   12  C   UNL     1     -39.865  51.736 -51.987  1.00  0.00     0.043 A 
HETATM   13  C   UNL     1     -40.538  52.290 -53.075  1.00  0.00     0.004 A 
HETATM   14  C   UNL     1     -39.289  50.460 -52.014  1.00  0.00     0.030 A 
HETATM   15  C   UNL     1     -40.636  51.523 -54.257  1.00  0.00     0.014 A 
HETATM   16  C   UNL     1     -40.065  50.245 -54.302  1.00  0.00     0.001 A 
HETATM   17  C   UNL     1     -39.402  49.723 -53.195  1.00  0.00     0.002 A 
ENDBRANCH   6   7
ENDBRANCH   1   5
BRANCH   2  18
HETATM   18  C   UNL     1     -44.786  57.502 -54.774  1.00  0.00     0.197 C 
BRANCH  18  19
HETATM   19  N   UNL     1     -43.870  58.071 -55.786  1.00  0.00    -0.284 NA
HETATM   20  H   UNL     1     -42.898  57.981 -55.484  1.00  0.00     0.128 HD
BRANCH  19  21
HETATM   21  C   UNL     1     -43.984  57.570 -57.097  1.00  0.00     0.008 A 
HETATM   22  C   UNL     1     -43.155  56.507 -57.478  1.00  0.00     0.026 A 
HETATM   23  C   UNL     1     -43.196  55.985 -58.776  1.00  0.00     0.038 A 
HETATM   24  C   UNL     1     -44.050  56.528 -59.733  1.00  0.00     0.068 A 
HETATM   25  C   UNL     1     -44.838  57.622 -59.387  1.00  0.00     0.038 A 
HETATM   26  C   UNL     1     -44.787  58.148 -58.087  1.00  0.00     0.026 A 
BRANCH  24  27
HETATM   27  O   UNL     1     -44.009  55.918 -60.956  1.00  0.00    -0.356 OA
HETATM   28  C   UNL     1     -45.029  54.965 -61.232  1.00  0.00     0.210 C 
ENDBRANCH  24  27
ENDBRANCH  19  21
ENDBRANCH  18  19
ENDBRANCH   2  18
TORSDOF 6
ENDMDL
MODEL 6
REMARK VINA RESULT:      -8.1      2.654      3.205
REMARK  6 active torsions:
REMARK  status: ('A' for Active; 'I' for Inactive)
REMARK    1  A    between atoms: C_7  and  C_8 
REMARK    2  A    between atoms: N_9  and  N_10 
REMARK       I    between atoms: N_10  and  C_11 
REMARK    3  A    between atoms: C_11  and  C_12 
REMARK    4  A    between atoms: C_12  and  N_13 
REMARK    5  A    between atoms: N_13  and  C_14 
REMARK    6  A    between atoms: C_17  and  O_18 
ROOT
HETATM    1  N   UNL     1     -42.352  55.876 -54.629  1.00  0.00    -0.246 N 
HETATM    2  C   UNL     1     -42.887  55.526 -55.862  1.00  0.00     0.250 C 
HETATM    3  O   UNL     1     -43.192  54.385 -56.208  1.00  0.00    -0.270 OA
HETATM    4  H   UNL     1     -42.142  56.854 -54.441  1.00  0.00     0.192 HD
ENDROOT
BRANCH   1   5
HETATM    5  N   UNL     1     -42.066  54.898 -53.728  1.00  0.00    -0.184 NA
HETATM    6  C   UNL     1     -40.820  54.611 -53.540  1.00  0.00     0.153 C 
BRANCH   6   7
HETATM    7  C   UNL     1     -40.464  53.564 -52.596  1.00  0.00     0.018 A 
HETATM    8  C   UNL     1     -40.347  53.695 -51.216  1.00  0.00     0.018 A 
HETATM    9  C   UNL     1     -40.537  54.870 -50.322  1.00  0.00     0.069 C 
HETATM   10  N   UNL     1     -39.995  52.472 -50.706  1.00  0.00    -0.358 N 
HETATM   11  H   UNL     1     -39.841  52.275 -49.726  1.00  0.00     0.166 HD
HETATM   12  C   UNL     1     -39.876  51.543 -51.710  1.00  0.00     0.043 A 
HETATM   13  C   UNL     1     -40.163  52.194 -52.909  1.00  0.00     0.004 A 
HETATM   14  C   UNL     1     -39.536  50.187 -51.640  1.00  0.00     0.030 A 
HETATM   15  C   UNL     1     -40.102  51.444 -54.105  1.00  0.00     0.014 A 
HETATM   16  C   UNL     1     -39.763  50.086 -54.053  1.00  0.00     0.001 A 
HETATM   17  C   UNL     1     -39.485  49.468 -52.836  1.00  0.00     0.002 A 
ENDBRANCH   6   7
ENDBRANCH   1   5
BRANCH   2  18
HETATM   18  C   UNL     1     -43.135  56.729 -56.772  1.00  0.00     0.197 C 
BRANCH  18  19
HETATM   19  N   UNL     1     -42.067  56.873 -57.784  1.00  0.00    -0.284 NA
HETATM   20  H   UNL     1     -42.088  56.092 -58.444  1.00  0.00     0.128 HD
BRANCH  19  21
HETATM   21  C   UNL     1     -42.042  58.078 -58.512  1.00  0.00     0.008 A 
HETATM   22  C   UNL     1     -42.023  58.011 -59.911  1.00  0.00     0.026 A 
HETATM   23  C   UNL     1     -41.965  59.171 -60.692  1.00  0.00     0.038 A 
HETATM   24  C   UNL     1     -41.901  60.428 -60.093  1.00  0.00     0.068 A 
HETATM   25  C   UNL     1     -41.860  60.508 -58.704  1.00  0.00     0.038 A 
HETATM   26  C   UNL     1     -41.910  59.342 -57.925  1.00  0.00     0.026 A 
BRANCH  24  27
HETATM   27  O   UNL     1     -41.866  61.481 -60.964  1.00  0.00    -0.356 OA
HETATM   28  C   UNL     1     -42.273  62.746 -60.455  1.00  0.00     0.210 C 
ENDBRANCH  24  27
ENDBRANCH  19  21
ENDBRANCH  18  19
ENDBRANCH   2  18
TORSDOF 6
ENDMDL
MODEL 7
REMARK VINA RESULT:      -7.8      2.658      4.450
REMARK  6 active torsions:
REMARK  status: ('A' for Active; 'I' for Inactive)
REMARK    1  A    between atoms: C_7  and  C_8 
REMARK    2  A    between atoms: N_9  and  N_10 
REMARK       I    between atoms: N_10  and  C_11 
REMARK    3  A    between atoms: C_11  and  C_12 
REMARK    4  A    between atoms: C_12  and  N_13 
REMARK    5  A    between atoms: N_13  and  C_14 
REMARK    6  A    between atoms: C_17  and  O_18 
ROOT
HETATM    1  N   UNL     1     -41.347  55.159 -55.711  1.00  0.00    -0.246 N 
HETATM    2  C   UNL     1     -42.578  55.085 -56.350  1.00  0.00     0.250 C 
HETATM    3  O   UNL     1     -43.435  54.226 -56.148  1.00  0.00    -0.270 OA
HETATM    4  H   UNL     1     -40.711  55.918 -55.947  1.00  0.00     0.192 HD
ENDROOT
BRANCH   1   5
HETATM    5  N   UNL     1     -40.996  54.182 -54.832  1.00  0.00    -0.184 NA
HETATM    6  C   UNL     1     -40.873  54.518 -53.590  1.00  0.00     0.153 C 
BRANCH   6   7
HETATM    7  C   UNL     1     -40.487  53.512 -52.613  1.00  0.00     0.018 A 
HETATM    8  C   UNL     1     -40.353  53.696 -51.241  1.00  0.00     0.018 A 
HETATM    9  C   UNL     1     -40.549  54.900 -50.388  1.00  0.00     0.069 C 
HETATM   10  N   UNL     1     -39.974  52.497 -50.692  1.00  0.00    -0.358 N 
HETATM   11  H   UNL     1     -39.804  52.339 -49.708  1.00  0.00     0.166 HD
HETATM   12  C   UNL     1     -39.855  51.534 -51.663  1.00  0.00     0.043 A 
HETATM   13  C   UNL     1     -40.169  52.137 -52.881  1.00  0.00     0.004 A 
HETATM   14  C   UNL     1     -39.493  50.187 -51.548  1.00  0.00     0.030 A 
HETATM   15  C   UNL     1     -40.113  51.344 -54.049  1.00  0.00     0.014 A 
HETATM   16  C   UNL     1     -39.752  49.994 -53.952  1.00  0.00     0.001 A 
HETATM   17  C   UNL     1     -39.447  49.426 -52.718  1.00  0.00     0.002 A 
ENDBRANCH   6   7
ENDBRANCH   1   5
BRANCH   2  18
HETATM   18  C   UNL     1     -42.819  56.240 -57.321  1.00  0.00     0.197 C 
BRANCH  18  19
HETATM   19  N   UNL     1     -44.061  56.972 -56.996  1.00  0.00    -0.284 NA
HETATM   20  H   UNL     1     -44.848  56.325 -56.907  1.00  0.00     0.128 HD
BRANCH  19  21
HETATM   21  C   UNL     1     -44.028  57.803 -55.859  1.00  0.00     0.008 A 
HETATM   22  C   UNL     1     -42.930  58.657 -55.690  1.00  0.00     0.026 A 
HETATM   23  C   UNL     1     -42.821  59.483 -54.566  1.00  0.00     0.038 A 
HETATM   24  C   UNL     1     -43.796  59.460 -53.570  1.00  0.00     0.068 A 
HETATM   25  C   UNL     1     -44.862  58.575 -53.695  1.00  0.00     0.038 A 
HETATM   26  C   UNL     1     -44.963  57.741 -54.819  1.00  0.00     0.026 A 
BRANCH  24  27
HETATM   27  O   UNL     1     -43.583  60.326 -52.534  1.00  0.00    -0.356 OA
HETATM   28  C   UNL     1     -42.313  60.260 -51.894  1.00  0.00     0.210 C 
ENDBRANCH  24  27
ENDBRANCH  19  21
ENDBRANCH  18  19
ENDBRANCH   2  18
TORSDOF 6
ENDMDL
MODEL 8
REMARK VINA RESULT:      -7.7      3.322      5.887
REMARK  6 active torsions:
REMARK  status: ('A' for Active; 'I' for Inactive)
REMARK    1  A    between atoms: C_7  and  C_8 
REMARK    2  A    between atoms: N_9  and  N_10 
REMARK       I    between atoms: N_10  and  C_11 
REMARK    3  A    between atoms: C_11  and  C_12 
REMARK    4  A    between atoms: C_12  and  N_13 
REMARK    5  A    between atoms: N_13  and  C_14 
REMARK    6  A    between atoms: C_17  and  O_18 
ROOT
HETATM    1  N   UNL     1     -41.992  55.649 -54.883  1.00  0.00    -0.246 N 
HETATM    2  C   UNL     1     -43.295  56.128 -54.927  1.00  0.00     0.250 C 
HETATM    3  O   UNL     1     -44.241  55.677 -54.283  1.00  0.00    -0.270 OA
HETATM    4  H   UNL     1     -41.279  56.101 -55.452  1.00  0.00     0.192 HD
ENDROOT
BRANCH   1   5
HETATM    5  N   UNL     1     -41.713  54.551 -54.129  1.00  0.00    -0.184 NA
HETATM    6  C   UNL     1     -40.750  54.649 -53.272  1.00  0.00     0.153 C 
BRANCH   6   7
HETATM    7  C   UNL     1     -40.406  53.499 -52.452  1.00  0.00     0.018 A 
HETATM    8  C   UNL     1     -40.271  53.477 -51.068  1.00  0.00     0.018 A 
HETATM    9  C   UNL     1     -40.424  54.552 -50.050  1.00  0.00     0.069 C 
HETATM   10  N   UNL     1     -39.939  52.198 -50.699  1.00  0.00    -0.358 N 
HETATM   11  H   UNL     1     -39.778  51.893 -49.748  1.00  0.00     0.166 HD
HETATM   12  C   UNL     1     -39.853  51.381 -51.799  1.00  0.00     0.043 A 
HETATM   13  C   UNL     1     -40.140  52.165 -52.916  1.00  0.00     0.004 A 
HETATM   14  C   UNL     1     -39.543  50.019 -51.880  1.00  0.00     0.030 A 
HETATM   15  C   UNL     1     -40.110  51.547 -54.186  1.00  0.00     0.014 A 
HETATM   16  C   UNL     1     -39.800  50.185 -54.286  1.00  0.00     0.001 A 
HETATM   17  C   UNL     1     -39.521  49.433 -53.148  1.00  0.00     0.002 A 
ENDBRANCH   6   7
ENDBRANCH   1   5
BRANCH   2  18
HETATM   18  C   UNL     1     -43.454  57.350 -55.830  1.00  0.00     0.197 C 
BRANCH  18  19
HETATM   19  N   UNL     1     -43.618  58.590 -55.042  1.00  0.00    -0.284 NA
HETATM   20  H   UNL     1     -44.586  58.691 -54.726  1.00  0.00     0.128 HD
BRANCH  19  21
HETATM   21  C   UNL     1     -42.763  58.755 -53.935  1.00  0.00     0.008 A 
HETATM   22  C   UNL     1     -43.335  58.851 -52.660  1.00  0.00     0.026 A 
HETATM   23  C   UNL     1     -42.543  59.049 -51.523  1.00  0.00     0.038 A 
HETATM   24  C   UNL     1     -41.160  59.179 -51.634  1.00  0.00     0.068 A 
HETATM   25  C   UNL     1     -40.583  59.144 -52.900  1.00  0.00     0.038 A 
HETATM   26  C   UNL     1     -41.381  58.954 -54.038  1.00  0.00     0.026 A 
BRANCH  24  27
HETATM   27  O   UNL     1     -40.499  59.350 -50.450  1.00  0.00    -0.356 OA
HETATM   28  C   UNL     1     -39.091  59.544 -50.524  1.00  0.00     0.210 C 
ENDBRANCH  24  27
ENDBRANCH  19  21
ENDBRANCH  18  19
ENDBRANCH   2  18
TORSDOF 6
ENDMDL
MODEL 9
REMARK VINA RESULT:      -7.5      3.768      4.372
REMARK  6 active torsions:
REMARK  status: ('A' for Active; 'I' for Inactive)
REMARK    1  A    between atoms: C_7  and  C_8 
REMARK    2  A    between atoms: N_9  and  N_10 
REMARK       I    between atoms: N_10  and  C_11 
REMARK    3  A    between atoms: C_11  and  C_12 
REMARK    4  A    between atoms: C_12  and  N_13 
REMARK    5  A    between atoms: N_13  and  C_14 
REMARK    6  A    between atoms: C_17  and  O_18 
ROOT
HETATM    1  N   UNL     1     -41.820  57.652 -54.655  1.00  0.00    -0.246 N 
HETATM    2  C   UNL     1     -41.569  59.006 -54.471  1.00  0.00     0.250 C 
HETATM    3  O   UNL     1     -40.737  59.477 -53.697  1.00  0.00    -0.270 OA
HETATM    4  H   UNL     1     -42.528  57.367 -55.328  1.00  0.00     0.192 HD
ENDROOT
BRANCH   1   5
HETATM    5  N   UNL     1     -41.159  56.744 -53.887  1.00  0.00    -0.184 NA
HETATM    6  C   UNL     1     -41.843  55.751 -53.421  1.00  0.00     0.153 C 
BRANCH   6   7
HETATM    7  C   UNL     1     -41.184  54.761 -52.585  1.00  0.00     0.018 A 
HETATM    8  C   UNL     1     -40.879  54.887 -51.233  1.00  0.00     0.018 A 
HETATM    9  C   UNL     1     -41.113  56.000 -50.274  1.00  0.00     0.069 C 
HETATM   10  N   UNL     1     -40.262  53.729 -50.833  1.00  0.00    -0.358 N 
HETATM   11  H   UNL     1     -39.930  53.544 -49.896  1.00  0.00     0.166 HD
HETATM   12  C   UNL     1     -40.154  52.848 -51.881  1.00  0.00     0.043 A 
HETATM   13  C   UNL     1     -40.722  53.464 -52.995  1.00  0.00     0.004 A 
HETATM   14  C   UNL     1     -39.597  51.565 -51.918  1.00  0.00     0.030 A 
HETATM   15  C   UNL     1     -40.728  52.753 -54.216  1.00  0.00     0.014 A 
HETATM   16  C   UNL     1     -40.173  51.468 -54.272  1.00  0.00     0.001 A 
HETATM   17  C   UNL     1     -39.617  50.884 -53.137  1.00  0.00     0.002 A 
ENDBRANCH   6   7
ENDBRANCH   1   5
BRANCH   2  18
HETATM   18  C   UNL     1     -42.401  59.900 -55.390  1.00  0.00     0.197 C 
BRANCH  18  19
HETATM   19  N   UNL     1     -42.599  59.279 -56.716  1.00  0.00    -0.284 NA
HETATM   20  H   UNL     1     -43.575  59.001 -56.843  1.00  0.00     0.128 HD
BRANCH  19  21
HETATM   21  C   UNL     1     -42.195  60.034 -57.835  1.00  0.00     0.008 A 
HETATM   22  C   UNL     1     -42.424  59.505 -59.112  1.00  0.00     0.026 A 
HETATM   23  C   UNL     1     -42.018  60.190 -60.264  1.00  0.00     0.038 A 
HETATM   24  C   UNL     1     -41.351  61.410 -60.167  1.00  0.00     0.068 A 
HETATM   25  C   UNL     1     -41.065  61.919 -58.904  1.00  0.00     0.038 A 
HETATM   26  C   UNL     1     -41.466  61.225 -57.752  1.00  0.00     0.026 A 
BRANCH  24  27
HETATM   27  O   UNL     1     -41.024  61.985 -61.363  1.00  0.00    -0.356 OA
HETATM   28  C   UNL     1     -40.886  63.402 -61.376  1.00  0.00     0.210 C 
ENDBRANCH  24  27
ENDBRANCH  19  21
ENDBRANCH  18  19
ENDBRANCH   2  18
TORSDOF 6
ENDMDL
MODEL 10
REMARK VINA RESULT:      -7.5     14.799     17.689
REMARK  6 active torsions:
REMARK  status: ('A' for Active; 'I' for Inactive)
REMARK    1  A    between atoms: C_7  and  C_8 
REMARK    2  A    between atoms: N_9  and  N_10 
REMARK       I    between atoms: N_10  and  C_11 
REMARK    3  A    between atoms: C_11  and  C_12 
REMARK    4  A    between atoms: C_12  and  N_13 
REMARK    5  A    between atoms: N_13  and  C_14 
REMARK    6  A    between atoms: C_17  and  O_18 
ROOT
HETATM    1  N   UNL     1     -39.471  39.543 -51.251  1.00  0.00    -0.246 N 
HETATM    2  C   UNL     1     -39.656  38.283 -50.697  1.00  0.00     0.250 C 
HETATM    3  O   UNL     1     -38.824  37.377 -50.694  1.00  0.00    -0.270 OA
HETATM    4  H   UNL     1     -40.223  40.226 -51.192  1.00  0.00     0.192 HD
ENDROOT
BRANCH   1   5
HETATM    5  N   UNL     1     -38.312  39.814 -51.912  1.00  0.00    -0.184 NA
HETATM    6  C   UNL     1     -38.169  41.004 -52.394  1.00  0.00     0.153 C 
BRANCH   6   7
HETATM    7  C   UNL     1     -36.954  41.338 -53.119  1.00  0.00     0.018 A 
HETATM    8  C   UNL     1     -35.681  41.493 -52.580  1.00  0.00     0.018 A 
HETATM    9  C   UNL     1     -35.187  41.373 -51.181  1.00  0.00     0.069 C 
HETATM   10  N   UNL     1     -34.825  41.805 -53.605  1.00  0.00    -0.358 N 
HETATM   11  H   UNL     1     -33.833  41.974 -53.501  1.00  0.00     0.166 HD
HETATM   12  C   UNL     1     -35.498  41.861 -54.800  1.00  0.00     0.043 A 
HETATM   13  C   UNL     1     -36.836  41.574 -54.532  1.00  0.00     0.004 A 
HETATM   14  C   UNL     1     -35.021  42.145 -56.085  1.00  0.00     0.030 A 
HETATM   15  C   UNL     1     -37.746  41.574 -55.613  1.00  0.00     0.014 A 
HETATM   16  C   UNL     1     -37.285  41.858 -56.905  1.00  0.00     0.001 A 
HETATM   17  C   UNL     1     -35.941  42.138 -57.135  1.00  0.00     0.002 A 
ENDBRANCH   6   7
ENDBRANCH   1   5
BRANCH   2  18
HETATM   18  C   UNL     1     -41.011  38.125 -50.008  1.00  0.00     0.197 C 
BRANCH  18  19
HETATM   19  N   UNL     1     -41.296  39.260 -49.105  1.00  0.00    -0.284 NA
HETATM   20  H   UNL     1     -42.010  39.871 -49.508  1.00  0.00     0.128 HD
BRANCH  19  21
HETATM   21  C   UNL     1     -41.667  38.942 -47.784  1.00  0.00     0.008 A 
HETATM   22  C   UNL     1     -42.598  37.914 -47.584  1.00  0.00     0.026 A 
HETATM   23  C   UNL     1     -43.032  37.570 -46.299  1.00  0.00     0.038 A 
HETATM   24  C   UNL     1     -42.566  38.261 -45.183  1.00  0.00     0.068 A 
HETATM   25  C   UNL     1     -41.686  39.323 -45.370  1.00  0.00     0.038 A 
HETATM   26  C   UNL     1     -41.259  39.670 -46.661  1.00  0.00     0.026 A 
BRANCH  24  27
HETATM   27  O   UNL     1     -43.052  37.818 -43.984  1.00  0.00    -0.356 OA
HETATM   28  C   UNL     1     -42.352  38.231 -42.816  1.00  0.00     0.210 C 
ENDBRANCH  24  27
ENDBRANCH  19  21
ENDBRANCH  18  19
ENDBRANCH   2  18
TORSDOF 6
ENDMDL
