MODEL 1
REMARK VINA RESULT:      -8.4      0.000      0.000
REMARK  3 active torsions:
REMARK  status: ('A' for Active; 'I' for Inactive)
REMARK    1  A    between atoms: C_7  and  C_8 
REMARK    2  A    between atoms: C_17  and  C_18 
REMARK       I    between atoms: C_18  and  N_19 
REMARK    3  A    between atoms: N_19  and  C_20 
ROOT
HETATM    1  C   UNL     1     -43.677  56.751 -52.762  1.00  0.00     0.206 C 
HETATM    2  N   UNL     1     -44.048  58.084 -52.277  1.00  0.00    -0.084 N 
HETATM    3  C   UNL     1     -43.357  58.766 -51.314  1.00  0.00     0.725 A 
HETATM    4  N   UNL     1     -43.938  59.918 -51.093  1.00  0.00    -0.054 NA
HETATM    5  C   UNL     1     -45.025  59.873 -51.929  1.00  0.00     0.275 A 
HETATM    6  N   UNL     1     -45.156  58.758 -52.657  1.00  0.00    -0.149 NA
HETATM    7  N   UNL     1     -42.291  58.187 -50.726  1.00  0.00    -0.192 N 
HETATM    8  C   UNL     1     -41.966  56.846 -50.913  1.00  0.00     0.037 C 
HETATM    9  C   UNL     1     -40.974  56.278 -49.929  1.00  0.00     0.070 C 
HETATM   10  C   UNL     1     -42.591  56.135 -51.885  1.00  0.00     0.063 C 
HETATM   11  H   UNL     1     -41.880  58.662 -49.927  1.00  0.00     0.184 HD
ENDROOT
BRANCH  10  12
HETATM   12  C   UNL     1     -42.396  54.678 -52.113  1.00  0.00     0.256 C 
HETATM   13  N   UNL     1     -41.194  54.368 -52.709  1.00  0.00    -0.323 N 
HETATM   14  H   UNL     1     -40.594  55.141 -52.967  1.00  0.00     0.169 HD
HETATM   15  O   UNL     1     -43.294  53.911 -51.792  1.00  0.00    -0.267 OA
BRANCH  13  16
HETATM   16  C   UNL     1     -40.672  53.082 -52.960  1.00  0.00     0.035 A 
HETATM   17  C   UNL     1     -40.803  52.410 -54.177  1.00  0.00     0.029 A 
HETATM   18  C   UNL     1     -40.282  51.122 -54.337  1.00  0.00     0.002 A 
HETATM   19  C   UNL     1     -39.627  50.493 -53.282  1.00  0.00     0.000 A 
HETATM   20  C   UNL     1     -39.487  51.154 -52.065  1.00  0.00     0.002 A 
HETATM   21  C   UNL     1     -40.002  52.443 -51.907  1.00  0.00     0.029 A 
ENDBRANCH  13  16
ENDBRANCH  10  12
BRANCH   1  22
HETATM   22  C   UNL     1     -43.253  56.860 -54.204  1.00  0.00     0.015 A 
HETATM   23  C   UNL     1     -42.255  57.723 -54.742  1.00  0.00     0.061 A 
HETATM   24  C   UNL     1     -41.403  58.702 -54.018  1.00  0.00     0.073 C 
HETATM   25  N   UNL     1     -42.113  57.561 -56.063  1.00  0.00    -0.178 NA
HETATM   26  N   UNL     1     -42.973  56.580 -56.369  1.00  0.00    -0.284 N 
HETATM   27  C   UNL     1     -43.058  56.097 -57.726  1.00  0.00     0.179 C 
HETATM   28  C   UNL     1     -43.693  56.137 -55.301  1.00  0.00     0.123 A 
ENDBRANCH   1  22
TORSDOF 3
ENDMDL
MODEL 2
REMARK VINA RESULT:      -8.2      1.949      4.289
REMARK  3 active torsions:
REMARK  status: ('A' for Active; 'I' for Inactive)
REMARK    1  A    between atoms: C_7  and  C_8 
REMARK    2  A    between atoms: C_17  and  C_18 
REMARK       I    between atoms: C_18  and  N_19 
REMARK    3  A    between atoms: N_19  and  C_20 
ROOT
HETATM    1  C   UNL     1     -40.982  56.428 -52.193  1.00  0.00     0.206 C 
HETATM    2  N   UNL     1     -41.623  57.739 -52.058  1.00  0.00    -0.084 N 
HETATM    3  C   UNL     1     -42.727  58.127 -52.767  1.00  0.00     0.725 A 
HETATM    4  N   UNL     1     -43.054  59.349 -52.432  1.00  0.00    -0.054 NA
HETATM    5  C   UNL     1     -42.076  59.686 -51.531  1.00  0.00     0.275 A 
HETATM    6  N   UNL     1     -41.157  58.745 -51.287  1.00  0.00    -0.149 NA
HETATM    7  N   UNL     1     -43.254  57.291 -53.684  1.00  0.00    -0.192 N 
HETATM    8  C   UNL     1     -42.618  56.119 -54.087  1.00  0.00     0.037 C 
HETATM    9  C   UNL     1     -43.156  55.492 -55.349  1.00  0.00     0.070 C 
HETATM   10  C   UNL     1     -41.544  55.667 -53.390  1.00  0.00     0.063 C 
HETATM   11  H   UNL     1     -43.989  57.656 -54.284  1.00  0.00     0.184 HD
ENDROOT
BRANCH  10  12
HETATM   12  C   UNL     1     -40.730  54.485 -53.783  1.00  0.00     0.256 C 
HETATM   13  N   UNL     1     -40.965  53.371 -53.007  1.00  0.00    -0.323 N 
HETATM   14  H   UNL     1     -41.616  53.472 -52.240  1.00  0.00     0.169 HD
HETATM   15  O   UNL     1     -39.932  54.605 -54.703  1.00  0.00    -0.267 OA
BRANCH  13  16
HETATM   16  C   UNL     1     -40.432  52.077 -53.189  1.00  0.00     0.035 A 
HETATM   17  C   UNL     1     -40.527  51.354 -54.380  1.00  0.00     0.029 A 
HETATM   18  C   UNL     1     -39.997  50.063 -54.471  1.00  0.00     0.002 A 
HETATM   19  C   UNL     1     -39.370  49.482 -53.372  1.00  0.00     0.000 A 
HETATM   20  C   UNL     1     -39.267  50.194 -52.180  1.00  0.00     0.002 A 
HETATM   21  C   UNL     1     -39.790  51.487 -52.092  1.00  0.00     0.029 A 
ENDBRANCH  13  16
ENDBRANCH  10  12
BRANCH   1  22
HETATM   22  C   UNL     1     -41.152  55.669 -50.902  1.00  0.00     0.015 A 
HETATM   23  C   UNL     1     -42.373  55.195 -50.341  1.00  0.00     0.061 A 
HETATM   24  C   UNL     1     -43.747  55.330 -50.889  1.00  0.00     0.073 C 
HETATM   25  N   UNL     1     -42.174  54.544 -49.189  1.00  0.00    -0.178 NA
HETATM   26  N   UNL     1     -40.843  54.558 -49.028  1.00  0.00    -0.284 N 
HETATM   27  C   UNL     1     -40.250  53.892 -47.895  1.00  0.00     0.179 C 
HETATM   28  C   UNL     1     -40.185  55.231 -50.013  1.00  0.00     0.123 A 
ENDBRANCH   1  22
TORSDOF 3
ENDMDL
MODEL 3
REMARK VINA RESULT:      -8.1      1.873      5.841
REMARK  3 active torsions:
REMARK  status: ('A' for Active; 'I' for Inactive)
REMARK    1  A    between atoms: C_7  and  C_8 
REMARK    2  A    between atoms: C_17  and  C_18 
REMARK       I    between atoms: C_18  and  N_19 
REMARK    3  A    between atoms: N_19  and  C_20 
ROOT
HETATM    1  C   UNL     1     -42.323  55.150 -51.560  1.00  0.00     0.206 C 
HETATM    2  N   UNL     1     -41.551  54.464 -50.521  1.00  0.00    -0.084 N 
HETATM    3  C   UNL     1     -40.458  53.680 -50.773  1.00  0.00     0.725 A 
HETATM    4  N   UNL     1     -39.995  53.202 -49.646  1.00  0.00    -0.054 NA
HETATM    5  C   UNL     1     -40.880  53.696 -48.722  1.00  0.00     0.275 A 
HETATM    6  N   UNL     1     -41.871  54.453 -49.208  1.00  0.00    -0.149 NA
HETATM    7  N   UNL     1     -40.070  53.473 -52.047  1.00  0.00    -0.192 N 
HETATM    8  C   UNL     1     -40.839  53.863 -53.140  1.00  0.00     0.037 C 
HETATM    9  C   UNL     1     -40.441  53.255 -54.462  1.00  0.00     0.070 C 
HETATM   10  C   UNL     1     -41.910  54.676 -52.950  1.00  0.00     0.063 C 
HETATM   11  H   UNL     1     -39.340  52.785 -52.209  1.00  0.00     0.184 HD
ENDROOT
BRANCH  10  12
HETATM   12  C   UNL     1     -42.857  55.078 -54.024  1.00  0.00     0.256 C 
HETATM   13  N   UNL     1     -42.341  56.014 -54.893  1.00  0.00    -0.323 N 
HETATM   14  H   UNL     1     -41.411  56.362 -54.698  1.00  0.00     0.169 HD
HETATM   15  O   UNL     1     -43.977  54.586 -54.029  1.00  0.00    -0.267 OA
BRANCH  13  16
HETATM   16  C   UNL     1     -42.947  56.516 -56.065  1.00  0.00     0.035 A 
HETATM   17  C   UNL     1     -43.626  57.734 -56.133  1.00  0.00     0.029 A 
HETATM   18  C   UNL     1     -44.225  58.148 -57.327  1.00  0.00     0.002 A 
HETATM   19  C   UNL     1     -44.153  57.347 -58.463  1.00  0.00     0.000 A 
HETATM   20  C   UNL     1     -43.476  56.131 -58.408  1.00  0.00     0.002 A 
HETATM   21  C   UNL     1     -42.872  55.721 -57.217  1.00  0.00     0.029 A 
ENDBRANCH  13  16
ENDBRANCH  10  12
BRANCH   1  22
HETATM   22  C   UNL     1     -42.153  56.638 -51.390  1.00  0.00     0.015 A 
HETATM   23  C   UNL     1     -43.169  57.633 -51.475  1.00  0.00     0.061 A 
HETATM   24  C   UNL     1     -44.618  57.442 -51.744  1.00  0.00     0.073 C 
HETATM   25  N   UNL     1     -42.686  58.862 -51.259  1.00  0.00    -0.178 NA
HETATM   26  N   UNL     1     -41.387  58.663 -50.994  1.00  0.00    -0.284 N 
HETATM   27  C   UNL     1     -40.543  59.783 -50.657  1.00  0.00     0.179 C 
HETATM   28  C   UNL     1     -41.010  57.356 -51.075  1.00  0.00     0.123 A 
ENDBRANCH   1  22
TORSDOF 3
ENDMDL
MODEL 4
REMARK VINA RESULT:      -7.9      1.457      4.197
REMARK  3 active torsions:
REMARK  status: ('A' for Active; 'I' for Inactive)
REMARK    1  A    between atoms: C_7  and  C_8 
REMARK    2  A    between atoms: C_17  and  C_18 
REMARK       I    between atoms: C_18  and  N_19 
REMARK    3  A    between atoms: N_19  and  C_20 
ROOT
HETATM    1  C   UNL     1     -42.307  57.530 -54.309  1.00  0.00     0.206 C 
HETATM    2  N   UNL     1     -42.251  58.620 -55.287  1.00  0.00    -0.084 N 
HETATM    3  C   UNL     1     -42.710  58.518 -56.572  1.00  0.00     0.725 A 
HETATM    4  N   UNL     1     -42.512  59.651 -57.197  1.00  0.00    -0.054 NA
HETATM    5  C   UNL     1     -41.878  60.412 -56.250  1.00  0.00     0.275 A 
HETATM    6  N   UNL     1     -41.666  59.818 -55.069  1.00  0.00    -0.149 NA
HETATM    7  N   UNL     1     -43.212  57.345 -57.006  1.00  0.00    -0.192 N 
HETATM    8  C   UNL     1     -43.113  56.167 -56.270  1.00  0.00     0.037 C 
HETATM    9  C   UNL     1     -43.403  54.900 -57.035  1.00  0.00     0.070 C 
HETATM   10  C   UNL     1     -42.703  56.217 -54.977  1.00  0.00     0.063 C 
HETATM   11  H   UNL     1     -43.423  57.262 -57.997  1.00  0.00     0.184 HD
ENDROOT
BRANCH  10  12
HETATM   12  C   UNL     1     -42.468  55.020 -54.127  1.00  0.00     0.256 C 
HETATM   13  N   UNL     1     -41.158  54.596 -54.119  1.00  0.00    -0.323 N 
HETATM   14  H   UNL     1     -40.507  55.098 -54.709  1.00  0.00     0.169 HD
HETATM   15  O   UNL     1     -43.424  54.514 -53.553  1.00  0.00    -0.267 OA
BRANCH  13  16
HETATM   16  C   UNL     1     -40.599  53.562 -53.338  1.00  0.00     0.035 A 
HETATM   17  C   UNL     1     -40.389  53.650 -51.961  1.00  0.00     0.029 A 
HETATM   18  C   UNL     1     -39.803  52.589 -51.263  1.00  0.00     0.002 A 
HETATM   19  C   UNL     1     -39.418  51.432 -51.935  1.00  0.00     0.000 A 
HETATM   20  C   UNL     1     -39.626  51.332 -53.308  1.00  0.00     0.002 A 
HETATM   21  C   UNL     1     -40.218  52.389 -54.005  1.00  0.00     0.029 A 
ENDBRANCH  13  16
ENDBRANCH  10  12
BRANCH   1  22
HETATM   22  C   UNL     1     -43.255  57.918 -53.204  1.00  0.00     0.015 A 
HETATM   23  C   UNL     1     -43.088  57.683 -51.808  1.00  0.00     0.061 A 
HETATM   24  C   UNL     1     -41.953  57.014 -51.122  1.00  0.00     0.073 C 
HETATM   25  N   UNL     1     -44.110  58.168 -51.094  1.00  0.00    -0.178 NA
HETATM   26  N   UNL     1     -44.905  58.746 -52.005  1.00  0.00    -0.284 N 
HETATM   27  C   UNL     1     -46.103  59.429 -51.583  1.00  0.00     0.179 C 
HETATM   28  C   UNL     1     -44.452  58.612 -53.283  1.00  0.00     0.123 A 
ENDBRANCH   1  22
TORSDOF 3
ENDMDL
MODEL 5
REMARK VINA RESULT:      -7.7      2.199      4.967
REMARK  3 active torsions:
REMARK  status: ('A' for Active; 'I' for Inactive)
REMARK    1  A    between atoms: C_7  and  C_8 
REMARK    2  A    between atoms: C_17  and  C_18 
REMARK       I    between atoms: C_18  and  N_19 
REMARK    3  A    between atoms: N_19  and  C_20 
ROOT
HETATM    1  C   UNL     1     -42.231  58.264 -55.962  1.00  0.00     0.206 C 
HETATM    2  N   UNL     1     -42.039  59.233 -57.044  1.00  0.00    -0.084 N 
HETATM    3  C   UNL     1     -42.464  59.037 -58.330  1.00  0.00     0.725 A 
HETATM    4  N   UNL     1     -42.139  60.074 -59.060  1.00  0.00    -0.054 NA
HETATM    5  C   UNL     1     -41.466  60.871 -58.170  1.00  0.00     0.275 A 
HETATM    6  N   UNL     1     -41.351  60.390 -56.926  1.00  0.00    -0.149 NA
HETATM    7  N   UNL     1     -43.060  57.874 -58.661  1.00  0.00    -0.192 N 
HETATM    8  C   UNL     1     -43.097  56.778 -57.804  1.00  0.00     0.037 C 
HETATM    9  C   UNL     1     -43.481  55.467 -58.445  1.00  0.00     0.070 C 
HETATM   10  C   UNL     1     -42.727  56.929 -56.506  1.00  0.00     0.063 C 
HETATM   11  H   UNL     1     -43.245  57.706 -59.646  1.00  0.00     0.184 HD
ENDROOT
BRANCH  10  12
HETATM   12  C   UNL     1     -42.635  55.813 -55.527  1.00  0.00     0.256 C 
HETATM   13  N   UNL     1     -41.350  55.362 -55.323  1.00  0.00    -0.323 N 
HETATM   14  H   UNL     1     -40.618  55.790 -55.874  1.00  0.00     0.169 HD
HETATM   15  O   UNL     1     -43.669  55.387 -55.029  1.00  0.00    -0.267 OA
BRANCH  13  16
HETATM   16  C   UNL     1     -40.923  54.394 -54.388  1.00  0.00     0.035 A 
HETATM   17  C   UNL     1     -40.913  54.594 -53.007  1.00  0.00     0.029 A 
HETATM   18  C   UNL     1     -40.447  53.593 -52.148  1.00  0.00     0.002 A 
HETATM   19  C   UNL     1     -39.984  52.386 -52.662  1.00  0.00     0.000 A 
HETATM   20  C   UNL     1     -39.992  52.174 -54.038  1.00  0.00     0.002 A 
HETATM   21  C   UNL     1     -40.464  53.171 -54.896  1.00  0.00     0.029 A 
ENDBRANCH  13  16
ENDBRANCH  10  12
BRANCH   1  22
HETATM   22  C   UNL     1     -43.174  58.853 -54.944  1.00  0.00     0.015 A 
HETATM   23  C   UNL     1     -43.033  58.823 -53.526  1.00  0.00     0.061 A 
HETATM   24  C   UNL     1     -41.936  58.218 -52.727  1.00  0.00     0.073 C 
HETATM   25  N   UNL     1     -44.041  59.452 -52.911  1.00  0.00    -0.178 NA
HETATM   26  N   UNL     1     -44.799  59.919 -53.912  1.00  0.00    -0.284 N 
HETATM   27  C   UNL     1     -45.971  60.708 -53.619  1.00  0.00     0.179 C 
HETATM   28  C   UNL     1     -44.338  59.576 -55.147  1.00  0.00     0.123 A 
ENDBRANCH   1  22
TORSDOF 3
ENDMDL
MODEL 6
REMARK VINA RESULT:      -7.7      1.874      4.267
REMARK  3 active torsions:
REMARK  status: ('A' for Active; 'I' for Inactive)
REMARK    1  A    between atoms: C_7  and  C_8 
REMARK    2  A    between atoms: C_17  and  C_18 
REMARK       I    between atoms: C_18  and  N_19 
REMARK    3  A    between atoms: N_19  and  C_20 
ROOT
HETATM    1  C   UNL     1     -41.489  57.591 -54.757  1.00  0.00     0.206 C 
HETATM    2  N   UNL     1     -42.279  58.495 -55.598  1.00  0.00    -0.084 N 
HETATM    3  C   UNL     1     -43.374  58.105 -56.319  1.00  0.00     0.725 A 
HETATM    4  N   UNL     1     -43.856  59.133 -56.972  1.00  0.00    -0.054 NA
HETATM    5  C   UNL     1     -42.979  60.135 -56.645  1.00  0.00     0.275 A 
HETATM    6  N   UNL     1     -41.976  59.791 -55.828  1.00  0.00    -0.149 NA
HETATM    7  N   UNL     1     -43.748  56.810 -56.310  1.00  0.00    -0.192 N 
HETATM    8  C   UNL     1     -42.962  55.804 -55.753  1.00  0.00     0.037 C 
HETATM    9  C   UNL     1     -43.348  54.396 -56.131  1.00  0.00     0.070 C 
HETATM   10  C   UNL     1     -41.888  56.138 -54.992  1.00  0.00     0.063 C 
HETATM   11  H   UNL     1     -44.481  56.528 -56.956  1.00  0.00     0.184 HD
ENDROOT
BRANCH  10  12
HETATM   12  C   UNL     1     -40.925  55.155 -54.428  1.00  0.00     0.256 C 
HETATM   13  N   UNL     1     -41.433  54.424 -53.378  1.00  0.00    -0.323 N 
HETATM   14  H   UNL     1     -42.371  54.648 -53.070  1.00  0.00     0.169 HD
HETATM   15  O   UNL     1     -39.799  55.101 -54.905  1.00  0.00    -0.267 OA
BRANCH  13  16
HETATM   16  C   UNL     1     -40.810  53.352 -52.703  1.00  0.00     0.035 A 
HETATM   17  C   UNL     1     -40.180  52.285 -53.346  1.00  0.00     0.029 A 
HETATM   18  C   UNL     1     -39.610  51.246 -52.604  1.00  0.00     0.002 A 
HETATM   19  C   UNL     1     -39.669  51.261 -51.213  1.00  0.00     0.000 A 
HETATM   20  C   UNL     1     -40.293  52.321 -50.561  1.00  0.00     0.002 A 
HETATM   21  C   UNL     1     -40.856  53.363 -51.302  1.00  0.00     0.029 A 
ENDBRANCH  13  16
ENDBRANCH  10  12
BRANCH   1  22
HETATM   22  C   UNL     1     -41.651  58.003 -53.316  1.00  0.00     0.015 A 
HETATM   23  C   UNL     1     -42.798  57.810 -52.493  1.00  0.00     0.061 A 
HETATM   24  C   UNL     1     -44.085  57.162 -52.854  1.00  0.00     0.073 C 
HETATM   25  N   UNL     1     -42.609  58.280 -51.255  1.00  0.00    -0.178 NA
HETATM   26  N   UNL     1     -41.347  58.730 -51.261  1.00  0.00    -0.284 N 
HETATM   27  C   UNL     1     -40.771  59.273 -50.055  1.00  0.00     0.179 C 
HETATM   28  C   UNL     1     -40.733  58.606 -52.471  1.00  0.00     0.123 A 
ENDBRANCH   1  22
TORSDOF 3
ENDMDL
MODEL 7
REMARK VINA RESULT:      -7.5      1.840      2.456
REMARK  3 active torsions:
REMARK  status: ('A' for Active; 'I' for Inactive)
REMARK    1  A    between atoms: C_7  and  C_8 
REMARK    2  A    between atoms: C_17  and  C_18 
REMARK       I    between atoms: C_18  and  N_19 
REMARK    3  A    between atoms: N_19  and  C_20 
ROOT
HETATM    1  C   UNL     1     -43.085  57.894 -53.895  1.00  0.00     0.206 C 
HETATM    2  N   UNL     1     -44.016  58.873 -53.327  1.00  0.00    -0.084 N 
HETATM    3  C   UNL     1     -43.743  59.638 -52.226  1.00  0.00     0.725 A 
HETATM    4  N   UNL     1     -44.771  60.405 -51.962  1.00  0.00    -0.054 NA
HETATM    5  C   UNL     1     -45.679  60.034 -52.920  1.00  0.00     0.275 A 
HETATM    6  N   UNL     1     -45.277  59.078 -53.766  1.00  0.00    -0.149 NA
HETATM    7  N   UNL     1     -42.573  59.473 -51.577  1.00  0.00    -0.192 N 
HETATM    8  C   UNL     1     -41.700  58.426 -51.857  1.00  0.00     0.037 C 
HETATM    9  C   UNL     1     -40.627  58.185 -50.824  1.00  0.00     0.070 C 
HETATM   10  C   UNL     1     -41.900  57.663 -52.962  1.00  0.00     0.063 C 
HETATM   11  H   UNL     1     -42.455  59.959 -50.692  1.00  0.00     0.184 HD
ENDROOT
BRANCH  10  12
HETATM   12  C   UNL     1     -41.092  56.464 -53.308  1.00  0.00     0.256 C 
HETATM   13  N   UNL     1     -41.448  55.335 -52.603  1.00  0.00    -0.323 N 
HETATM   14  H   UNL     1     -42.175  55.437 -51.906  1.00  0.00     0.169 HD
HETATM   15  O   UNL     1     -40.196  56.581 -54.134  1.00  0.00    -0.267 OA
BRANCH  13  16
HETATM   16  C   UNL     1     -40.947  54.028 -52.775  1.00  0.00     0.035 A 
HETATM   17  C   UNL     1     -40.227  53.333 -51.801  1.00  0.00     0.029 A 
HETATM   18  C   UNL     1     -39.738  52.048 -52.060  1.00  0.00     0.002 A 
HETATM   19  C   UNL     1     -39.961  51.448 -53.296  1.00  0.00     0.000 A 
HETATM   20  C   UNL     1     -40.679  52.130 -54.274  1.00  0.00     0.002 A 
HETATM   21  C   UNL     1     -41.174  53.410 -54.013  1.00  0.00     0.029 A 
ENDBRANCH  13  16
ENDBRANCH  10  12
BRANCH   1  22
HETATM   22  C   UNL     1     -42.654  58.368 -55.259  1.00  0.00     0.015 A 
HETATM   23  C   UNL     1     -42.626  57.604 -56.462  1.00  0.00     0.061 A 
HETATM   24  C   UNL     1     -43.013  56.183 -56.655  1.00  0.00     0.073 C 
HETATM   25  N   UNL     1     -42.204  58.330 -57.505  1.00  0.00    -0.178 NA
HETATM   26  N   UNL     1     -42.004  59.554 -56.996  1.00  0.00    -0.284 N 
HETATM   27  C   UNL     1     -41.586  60.631 -57.859  1.00  0.00     0.179 C 
HETATM   28  C   UNL     1     -42.241  59.629 -55.656  1.00  0.00     0.123 A 
ENDBRANCH   1  22
TORSDOF 3
ENDMDL
MODEL 8
REMARK VINA RESULT:      -7.5      2.019      5.441
REMARK  3 active torsions:
REMARK  status: ('A' for Active; 'I' for Inactive)
REMARK    1  A    between atoms: C_7  and  C_8 
REMARK    2  A    between atoms: C_17  and  C_18 
REMARK       I    between atoms: C_18  and  N_19 
REMARK    3  A    between atoms: N_19  and  C_20 
ROOT
HETATM    1  C   UNL     1     -41.601  57.444 -52.796  1.00  0.00     0.206 C 
HETATM    2  N   UNL     1     -41.062  58.356 -51.784  1.00  0.00    -0.084 N 
HETATM    3  C   UNL     1     -41.836  59.109 -50.943  1.00  0.00     0.725 A 
HETATM    4  N   UNL     1     -41.065  59.825 -50.164  1.00  0.00    -0.054 NA
HETATM    5  C   UNL     1     -39.808  59.503 -50.605  1.00  0.00     0.275 A 
HETATM    6  N   UNL     1     -39.749  58.627 -51.616  1.00  0.00    -0.149 NA
HETATM    7  N   UNL     1     -43.178  59.062 -51.057  1.00  0.00    -0.192 N 
HETATM    8  C   UNL     1     -43.821  58.429 -52.118  1.00  0.00     0.037 C 
HETATM    9  C   UNL     1     -45.283  58.764 -52.282  1.00  0.00     0.070 C 
HETATM   10  C   UNL     1     -43.106  57.635 -52.956  1.00  0.00     0.063 C 
HETATM   11  H   UNL     1     -43.719  59.727 -50.511  1.00  0.00     0.184 HD
ENDROOT
BRANCH  10  12
HETATM   12  C   UNL     1     -43.664  56.988 -54.174  1.00  0.00     0.256 C 
HETATM   13  N   UNL     1     -43.328  57.631 -55.345  1.00  0.00    -0.323 N 
HETATM   14  H   UNL     1     -42.787  58.481 -55.265  1.00  0.00     0.169 HD
HETATM   15  O   UNL     1     -44.370  55.997 -54.037  1.00  0.00    -0.267 OA
BRANCH  13  16
HETATM   16  C   UNL     1     -43.613  57.211 -56.661  1.00  0.00     0.035 A 
HETATM   17  C   UNL     1     -42.959  56.158 -57.304  1.00  0.00     0.029 A 
HETATM   18  C   UNL     1     -43.281  55.821 -58.623  1.00  0.00     0.002 A 
HETATM   19  C   UNL     1     -44.256  56.536 -59.313  1.00  0.00     0.000 A 
HETATM   20  C   UNL     1     -44.917  57.587 -58.681  1.00  0.00     0.002 A 
HETATM   21  C   UNL     1     -44.601  57.918 -57.361  1.00  0.00     0.029 A 
ENDBRANCH  13  16
ENDBRANCH  10  12
BRANCH   1  22
HETATM   22  C   UNL     1     -41.242  56.030 -52.416  1.00  0.00     0.015 A 
HETATM   23  C   UNL     1     -40.743  55.012 -53.279  1.00  0.00     0.061 A 
HETATM   24  C   UNL     1     -40.458  55.102 -54.734  1.00  0.00     0.073 C 
HETATM   25  N   UNL     1     -40.511  53.870 -52.622  1.00  0.00    -0.178 NA
HETATM   26  N   UNL     1     -40.813  54.155 -51.347  1.00  0.00    -0.284 N 
HETATM   27  C   UNL     1     -40.632  53.155 -50.324  1.00  0.00     0.179 C 
HETATM   28  C   UNL     1     -41.271  55.426 -51.170  1.00  0.00     0.123 A 
ENDBRANCH   1  22
TORSDOF 3
ENDMDL
MODEL 9
REMARK VINA RESULT:      -7.3      2.099      5.535
REMARK  3 active torsions:
REMARK  status: ('A' for Active; 'I' for Inactive)
REMARK    1  A    between atoms: C_7  and  C_8 
REMARK    2  A    between atoms: C_17  and  C_18 
REMARK       I    between atoms: C_18  and  N_19 
REMARK    3  A    between atoms: N_19  and  C_20 
ROOT
HETATM    1  C   UNL     1     -43.109  55.358 -53.044  1.00  0.00     0.206 C 
HETATM    2  N   UNL     1     -42.462  55.004 -51.778  1.00  0.00    -0.084 N 
HETATM    3  C   UNL     1     -41.172  54.559 -51.676  1.00  0.00     0.725 A 
HETATM    4  N   UNL     1     -40.891  54.320 -50.420  1.00  0.00    -0.054 NA
HETATM    5  C   UNL     1     -42.076  54.596 -49.787  1.00  0.00     0.275 A 
HETATM    6  N   UNL     1     -43.081  54.993 -50.576  1.00  0.00    -0.149 NA
HETATM    7  N   UNL     1     -40.441  54.384 -52.794  1.00  0.00    -0.192 N 
HETATM    8  C   UNL     1     -40.992  54.452 -54.071  1.00  0.00     0.037 C 
HETATM    9  C   UNL     1     -40.131  53.895 -55.178  1.00  0.00     0.070 C 
HETATM   10  C   UNL     1     -42.253  54.928 -54.232  1.00  0.00     0.063 C 
HETATM   11  H   UNL     1     -39.536  53.930 -52.698  1.00  0.00     0.184 HD
ENDROOT
BRANCH  10  12
HETATM   12  C   UNL     1     -42.978  54.956 -55.531  1.00  0.00     0.256 C 
HETATM   13  N   UNL     1     -42.855  56.151 -56.205  1.00  0.00    -0.323 N 
HETATM   14  H   UNL     1     -42.335  56.888 -55.747  1.00  0.00     0.169 HD
HETATM   15  O   UNL     1     -43.620  53.969 -55.864  1.00  0.00    -0.267 OA
BRANCH  13  16
HETATM   16  C   UNL     1     -43.333  56.455 -57.498  1.00  0.00     0.035 A 
HETATM   17  C   UNL     1     -44.266  57.457 -57.770  1.00  0.00     0.029 A 
HETATM   18  C   UNL     1     -44.712  57.676 -59.077  1.00  0.00     0.002 A 
HETATM   19  C   UNL     1     -44.232  56.894 -60.124  1.00  0.00     0.000 A 
HETATM   20  C   UNL     1     -43.298  55.894 -59.865  1.00  0.00     0.002 A 
HETATM   21  C   UNL     1     -42.848  55.679 -58.560  1.00  0.00     0.029 A 
ENDBRANCH  13  16
ENDBRANCH  10  12
BRANCH   1  22
HETATM   22  C   UNL     1     -43.390  56.838 -53.049  1.00  0.00     0.015 A 
HETATM   23  C   UNL     1     -42.432  57.893 -53.066  1.00  0.00     0.061 A 
HETATM   24  C   UNL     1     -40.951  57.785 -53.089  1.00  0.00     0.073 C 
HETATM   25  N   UNL     1     -43.015  59.097 -53.080  1.00  0.00    -0.178 NA
HETATM   26  N   UNL     1     -44.328  58.829 -53.115  1.00  0.00    -0.284 N 
HETATM   27  C   UNL     1     -45.281  59.908 -53.190  1.00  0.00     0.179 C 
HETATM   28  C   UNL     1     -44.610  57.496 -53.081  1.00  0.00     0.123 A 
ENDBRANCH   1  22
TORSDOF 3
ENDMDL
MODEL 10
REMARK VINA RESULT:      -7.2      2.057      4.642
REMARK  3 active torsions:
REMARK  status: ('A' for Active; 'I' for Inactive)
REMARK    1  A    between atoms: C_7  and  C_8 
REMARK    2  A    between atoms: C_17  and  C_18 
REMARK       I    between atoms: C_18  and  N_19 
REMARK    3  A    between atoms: N_19  and  C_20 
ROOT
HETATM    1  C   UNL     1     -42.612  58.106 -54.818  1.00  0.00     0.206 C 
HETATM    2  N   UNL     1     -43.235  58.482 -56.090  1.00  0.00    -0.084 N 
HETATM    3  C   UNL     1     -43.876  57.600 -56.917  1.00  0.00     0.725 A 
HETATM    4  N   UNL     1     -44.315  58.234 -57.974  1.00  0.00    -0.054 NA
HETATM    5  C   UNL     1     -43.871  59.515 -57.765  1.00  0.00     0.275 A 
HETATM    6  N   UNL     1     -43.179  59.716 -56.637  1.00  0.00    -0.149 NA
HETATM    7  N   UNL     1     -43.916  56.293 -56.589  1.00  0.00    -0.192 N 
HETATM    8  C   UNL     1     -43.172  55.757 -55.541  1.00  0.00     0.037 C 
HETATM    9  C   UNL     1     -43.060  54.253 -55.531  1.00  0.00     0.070 C 
HETATM   10  C   UNL     1     -42.552  56.590 -54.666  1.00  0.00     0.063 C 
HETATM   11  H   UNL     1     -44.283  55.647 -57.283  1.00  0.00     0.184 HD
ENDROOT
BRANCH  10  12
HETATM   12  C   UNL     1     -41.655  56.134 -53.571  1.00  0.00     0.256 C 
HETATM   13  N   UNL     1     -42.327  55.594 -52.496  1.00  0.00    -0.323 N 
HETATM   14  H   UNL     1     -43.338  55.600 -52.534  1.00  0.00     0.169 HD
HETATM   15  O   UNL     1     -40.449  56.296 -53.697  1.00  0.00    -0.267 OA
BRANCH  13  16
HETATM   16  C   UNL     1     -41.762  54.985 -51.355  1.00  0.00     0.035 A 
HETATM   17  C   UNL     1     -41.658  55.605 -50.109  1.00  0.00     0.029 A 
HETATM   18  C   UNL     1     -41.058  54.942 -49.033  1.00  0.00     0.002 A 
HETATM   19  C   UNL     1     -40.554  53.654 -49.195  1.00  0.00     0.000 A 
HETATM   20  C   UNL     1     -40.654  53.024 -50.433  1.00  0.00     0.002 A 
HETATM   21  C   UNL     1     -41.260  53.684 -51.505  1.00  0.00     0.029 A 
ENDBRANCH  13  16
ENDBRANCH  10  12
BRANCH   1  22
HETATM   22  C   UNL     1     -43.370  58.763 -53.693  1.00  0.00     0.015 A 
HETATM   23  C   UNL     1     -42.819  59.389 -52.537  1.00  0.00     0.061 A 
HETATM   24  C   UNL     1     -41.386  59.543 -52.175  1.00  0.00     0.073 C 
HETATM   25  N   UNL     1     -43.769  59.888 -51.738  1.00  0.00    -0.178 NA
HETATM   26  N   UNL     1     -44.914  59.630 -52.385  1.00  0.00    -0.284 N 
HETATM   27  C   UNL     1     -46.168  60.078 -51.832  1.00  0.00     0.179 C 
HETATM   28  C   UNL     1     -44.736  58.945 -53.549  1.00  0.00     0.123 A 
ENDBRANCH   1  22
TORSDOF 3
ENDMDL
