MODEL 1
REMARK VINA RESULT:      -6.7      0.000      0.000
REMARK  7 active torsions:
REMARK  status: ('A' for Active; 'I' for Inactive)
REMARK    1  A    between atoms: O_2  and  C_3 
REMARK    2  A    between atoms: C_4  and  C_5 
REMARK    3  A    between atoms: C_6  and  C_7 
REMARK       I    between atoms: C_7  and  N_8 
REMARK    4  A    between atoms: N_8  and  C_9 
REMARK    5  A    between atoms: C_9  and  C_10 
REMARK    6  A    between atoms: C_10  and  N_11 
REMARK    7  A    between atoms: C_10  and  C_18 
ROOT
HETATM    1  C   UNL     1     -40.569  58.914 -52.613  1.00  0.00     0.241 C 
HETATM    2  N   UNL     1     -41.774  58.776 -53.242  1.00  0.00    -0.355 N 
HETATM    3  O   UNL     1     -39.496  58.846 -53.202  1.00  0.00    -0.269 OA
HETATM    4  H   UNL     1     -42.605  58.783 -52.652  1.00  0.00     0.162 HD
ENDROOT
BRANCH   2   5
HETATM    5  C   UNL     1     -41.922  58.368 -54.635  1.00  0.00     0.163 C 
BRANCH   5   6
HETATM    6  C   UNL     1     -42.772  57.078 -54.866  1.00  0.00     0.262 C 
BRANCH   6   7
HETATM    7  N   UNL     1     -43.598  57.155 -56.156  1.00  0.00    -0.059 N 
HETATM    8  H   UNL     1     -44.200  56.308 -56.127  1.00  0.00     0.280 HD
HETATM    9  C   UNL     1     -44.566  58.309 -56.238  1.00  0.00     0.236 C 
HETATM   10  C   UNL     1     -45.479  58.118 -57.442  1.00  0.00     0.028 C 
HETATM   11  C   UNL     1     -44.679  57.968 -58.732  1.00  0.00     0.003 C 
HETATM   12  C   UNL     1     -43.644  56.854 -58.612  1.00  0.00     0.028 C 
HETATM   13  C   UNL     1     -42.751  57.037 -57.393  1.00  0.00     0.236 C 
ENDBRANCH   6   7
BRANCH   6  14
HETATM   14  C   UNL     1     -41.923  55.850 -54.771  1.00  0.00     0.085 A 
HETATM   15  O   UNL     1     -42.561  54.650 -54.900  1.00  0.00    -0.325 OA
HETATM   16  C   UNL     1     -41.618  53.680 -54.788  1.00  0.00     0.142 A 
HETATM   17  C   UNL     1     -40.378  54.240 -54.589  1.00  0.00     0.027 A 
HETATM   18  C   UNL     1     -40.572  55.643 -54.580  1.00  0.00     0.037 A 
ENDBRANCH   6  14
ENDBRANCH   5   6
ENDBRANCH   2   5
BRANCH   1  19
HETATM   19  C   UNL     1     -40.650  59.129 -51.158  1.00  0.00     0.075 C 
HETATM   20  C   UNL     1     -41.097  58.204 -50.294  1.00  0.00     0.020 C 
BRANCH  20  21
HETATM   21  C   UNL     1     -41.618  56.882 -50.669  1.00  0.00    -0.001 A 
HETATM   22  C   UNL     1     -42.961  56.699 -51.052  1.00  0.00     0.078 A 
HETATM   23  C   UNL     1     -43.407  55.420 -51.403  1.00  0.00     0.039 A 
HETATM   24  C   UNL     1     -42.527  54.332 -51.371  1.00  0.00     0.022 A 
HETATM   25  C   UNL     1     -41.204  54.520 -50.982  1.00  0.00     0.012 A 
HETATM   26  C   UNL     1     -40.743  55.788 -50.637  1.00  0.00     0.033 A 
HETATM   27 BR   UNL     1     -40.029  53.043 -50.898  1.00  0.00    -0.051 Br
BRANCH  22  28
HETATM   28  O   UNL     1     -43.771  57.804 -50.990  1.00  0.00    -0.355 OA
HETATM   29  C   UNL     1     -44.940  57.780 -51.804  1.00  0.00     0.210 C 
ENDBRANCH  22  28
ENDBRANCH  20  21
ENDBRANCH   1  19
TORSDOF 7
ENDMDL
MODEL 2
REMARK VINA RESULT:      -6.7      3.151      5.858
REMARK  7 active torsions:
REMARK  status: ('A' for Active; 'I' for Inactive)
REMARK    1  A    between atoms: O_2  and  C_3 
REMARK    2  A    between atoms: C_4  and  C_5 
REMARK    3  A    between atoms: C_6  and  C_7 
REMARK       I    between atoms: C_7  and  N_8 
REMARK    4  A    between atoms: N_8  and  C_9 
REMARK    5  A    between atoms: C_9  and  C_10 
REMARK    6  A    between atoms: C_10  and  N_11 
REMARK    7  A    between atoms: C_10  and  C_18 
ROOT
HETATM    1  C   UNL     1     -42.542  56.116 -51.054  1.00  0.00     0.241 C 
HETATM    2  N   UNL     1     -42.250  54.971 -51.740  1.00  0.00    -0.355 N 
HETATM    3  O   UNL     1     -41.703  56.750 -50.425  1.00  0.00    -0.269 OA
HETATM    4  H   UNL     1     -43.032  54.483 -52.177  1.00  0.00     0.162 HD
ENDROOT
BRANCH   2   5
HETATM    5  C   UNL     1     -40.964  54.284 -51.666  1.00  0.00     0.163 C 
BRANCH   5   6
HETATM    6  C   UNL     1     -40.462  53.662 -53.008  1.00  0.00     0.262 C 
BRANCH   6   7
HETATM    7  N   UNL     1     -40.345  52.135 -52.927  1.00  0.00    -0.059 N 
HETATM    8  H   UNL     1     -41.310  51.814 -52.714  1.00  0.00     0.280 HD
HETATM    9  C   UNL     1     -39.989  51.443 -54.219  1.00  0.00     0.236 C 
HETATM   10  C   UNL     1     -40.152  49.938 -54.047  1.00  0.00     0.028 C 
HETATM   11  C   UNL     1     -39.314  49.414 -52.884  1.00  0.00     0.003 C 
HETATM   12  C   UNL     1     -39.619  50.177 -51.599  1.00  0.00     0.028 C 
HETATM   13  C   UNL     1     -39.479  51.681 -51.784  1.00  0.00     0.236 C 
ENDBRANCH   6   7
BRANCH   6  14
HETATM   14  C   UNL     1     -41.284  54.139 -54.163  1.00  0.00     0.085 A 
HETATM   15  O   UNL     1     -42.577  53.703 -54.220  1.00  0.00    -0.325 OA
HETATM   16  C   UNL     1     -43.136  54.250 -55.329  1.00  0.00     0.142 A 
HETATM   17  C   UNL     1     -42.220  55.034 -55.989  1.00  0.00     0.027 A 
HETATM   18  C   UNL     1     -41.021  54.965 -55.237  1.00  0.00     0.037 A 
ENDBRANCH   6  14
ENDBRANCH   5   6
ENDBRANCH   2   5
BRANCH   1  19
HETATM   19  C   UNL     1     -43.956  56.526 -51.106  1.00  0.00     0.075 C 
HETATM   20  C   UNL     1     -44.415  57.518 -51.884  1.00  0.00     0.020 C 
BRANCH  20  21
HETATM   21  C   UNL     1     -43.579  58.370 -52.743  1.00  0.00    -0.001 A 
HETATM   22  C   UNL     1     -42.894  59.489 -52.231  1.00  0.00     0.078 A 
HETATM   23  C   UNL     1     -42.109  60.266 -53.090  1.00  0.00     0.039 A 
HETATM   24  C   UNL     1     -42.009  59.937 -54.446  1.00  0.00     0.022 A 
HETATM   25  C   UNL     1     -42.697  58.834 -54.946  1.00  0.00     0.012 A 
HETATM   26  C   UNL     1     -43.477  58.048 -54.103  1.00  0.00     0.033 A 
HETATM   27 BR   UNL     1     -42.595  58.417 -56.786  1.00  0.00    -0.051 Br
BRANCH  22  28
HETATM   28  O   UNL     1     -43.102  59.780 -50.907  1.00  0.00    -0.355 OA
HETATM   29  C   UNL     1     -42.432  60.930 -50.397  1.00  0.00     0.210 C 
ENDBRANCH  22  28
ENDBRANCH  20  21
ENDBRANCH   1  19
TORSDOF 7
ENDMDL
MODEL 3
REMARK VINA RESULT:      -6.6      2.455      5.336
REMARK  7 active torsions:
REMARK  status: ('A' for Active; 'I' for Inactive)
REMARK    1  A    between atoms: O_2  and  C_3 
REMARK    2  A    between atoms: C_4  and  C_5 
REMARK    3  A    between atoms: C_6  and  C_7 
REMARK       I    between atoms: C_7  and  N_8 
REMARK    4  A    between atoms: N_8  and  C_9 
REMARK    5  A    between atoms: C_9  and  C_10 
REMARK    6  A    between atoms: C_10  and  N_11 
REMARK    7  A    between atoms: C_10  and  C_18 
ROOT
HETATM    1  C   UNL     1     -42.878  54.939 -50.489  1.00  0.00     0.241 C 
HETATM    2  N   UNL     1     -43.336  56.226 -50.529  1.00  0.00    -0.355 N 
HETATM    3  O   UNL     1     -43.548  53.980 -50.854  1.00  0.00    -0.269 OA
HETATM    4  H   UNL     1     -42.726  56.945 -50.141  1.00  0.00     0.162 HD
ENDROOT
BRANCH   2   5
HETATM    5  C   UNL     1     -44.714  56.589 -50.844  1.00  0.00     0.163 C 
BRANCH   5   6
HETATM    6  C   UNL     1     -44.895  57.972 -51.548  1.00  0.00     0.262 C 
BRANCH   6   7
HETATM    7  N   UNL     1     -44.053  59.070 -50.887  1.00  0.00    -0.059 N 
HETATM    8  H   UNL     1     -43.756  58.655 -49.980  1.00  0.00     0.280 HD
HETATM    9  C   UNL     1     -42.763  59.410 -51.591  1.00  0.00     0.236 C 
HETATM   10  C   UNL     1     -41.927  60.321 -50.701  1.00  0.00     0.028 C 
HETATM   11  C   UNL     1     -42.697  61.578 -50.307  1.00  0.00     0.003 C 
HETATM   12  C   UNL     1     -44.038  61.226 -49.672  1.00  0.00     0.028 C 
HETATM   13  C   UNL     1     -44.859  60.296 -50.555  1.00  0.00     0.236 C 
ENDBRANCH   6   7
BRANCH   6  14
HETATM   14  C   UNL     1     -44.677  57.858 -53.024  1.00  0.00     0.085 A 
HETATM   15  O   UNL     1     -44.148  56.684 -53.478  1.00  0.00    -0.325 OA
HETATM   16  C   UNL     1     -44.039  56.789 -54.827  1.00  0.00     0.142 A 
HETATM   17  C   UNL     1     -44.490  58.016 -55.249  1.00  0.00     0.027 A 
HETATM   18  C   UNL     1     -44.906  58.710 -54.085  1.00  0.00     0.037 A 
ENDBRANCH   6  14
ENDBRANCH   5   6
ENDBRANCH   2   5
BRANCH   1  19
HETATM   19  C   UNL     1     -41.517  54.783 -49.948  1.00  0.00     0.075 C 
HETATM   20  C   UNL     1     -40.461  54.410 -50.688  1.00  0.00     0.020 C 
BRANCH  20  21
HETATM   21  C   UNL     1     -40.515  54.050 -52.112  1.00  0.00    -0.001 A 
HETATM   22  C   UNL     1     -40.762  55.014 -53.108  1.00  0.00     0.078 A 
HETATM   23  C   UNL     1     -40.800  54.621 -54.451  1.00  0.00     0.039 A 
HETATM   24  C   UNL     1     -40.597  53.281 -54.800  1.00  0.00     0.022 A 
HETATM   25  C   UNL     1     -40.363  52.333 -53.807  1.00  0.00     0.012 A 
HETATM   26  C   UNL     1     -40.316  52.710 -52.468  1.00  0.00     0.033 A 
HETATM   27 BR   UNL     1     -40.134  50.517 -54.277  1.00  0.00    -0.051 Br
BRANCH  22  28
HETATM   28  O   UNL     1     -41.017  56.290 -52.674  1.00  0.00    -0.355 OA
HETATM   29  C   UNL     1     -40.689  57.344 -53.576  1.00  0.00     0.210 C 
ENDBRANCH  22  28
ENDBRANCH  20  21
ENDBRANCH   1  19
TORSDOF 7
ENDMDL
MODEL 4
REMARK VINA RESULT:      -6.4      2.782      5.316
REMARK  7 active torsions:
REMARK  status: ('A' for Active; 'I' for Inactive)
REMARK    1  A    between atoms: O_2  and  C_3 
REMARK    2  A    between atoms: C_4  and  C_5 
REMARK    3  A    between atoms: C_6  and  C_7 
REMARK       I    between atoms: C_7  and  N_8 
REMARK    4  A    between atoms: N_8  and  C_9 
REMARK    5  A    between atoms: C_9  and  C_10 
REMARK    6  A    between atoms: C_10  and  N_11 
REMARK    7  A    between atoms: C_10  and  C_18 
ROOT
HETATM    1  C   UNL     1     -41.997  56.277 -50.566  1.00  0.00     0.241 C 
HETATM    2  N   UNL     1     -42.431  57.487 -51.030  1.00  0.00    -0.355 N 
HETATM    3  O   UNL     1     -40.839  56.069 -50.225  1.00  0.00    -0.269 OA
HETATM    4  H   UNL     1     -43.398  57.538 -51.350  1.00  0.00     0.162 HD
ENDROOT
BRANCH   2   5
HETATM    5  C   UNL     1     -41.546  58.607 -51.330  1.00  0.00     0.163 C 
BRANCH   5   6
HETATM    6  C   UNL     1     -42.263  59.941 -51.714  1.00  0.00     0.262 C 
BRANCH   6   7
HETATM    7  N   UNL     1     -42.564  60.022 -53.216  1.00  0.00    -0.059 N 
HETATM    8  H   UNL     1     -43.462  59.508 -53.326  1.00  0.00     0.280 HD
HETATM    9  C   UNL     1     -42.850  61.406 -53.746  1.00  0.00     0.236 C 
HETATM   10  C   UNL     1     -43.369  61.302 -55.174  1.00  0.00     0.028 C 
HETATM   11  C   UNL     1     -42.391  60.551 -56.071  1.00  0.00     0.003 C 
HETATM   12  C   UNL     1     -42.042  59.187 -55.486  1.00  0.00     0.028 C 
HETATM   13  C   UNL     1     -41.547  59.294 -54.050  1.00  0.00     0.236 C 
ENDBRANCH   6   7
BRANCH   6  14
HETATM   14  C   UNL     1     -43.462  60.175 -50.849  1.00  0.00     0.085 A 
HETATM   15  O   UNL     1     -44.564  59.411 -51.106  1.00  0.00    -0.325 OA
HETATM   16  C   UNL     1     -45.521  59.777 -50.216  1.00  0.00     0.142 A 
HETATM   17  C   UNL     1     -45.051  60.769 -49.389  1.00  0.00     0.027 A 
HETATM   18  C   UNL     1     -43.718  61.027 -49.794  1.00  0.00     0.037 A 
ENDBRANCH   6  14
ENDBRANCH   5   6
ENDBRANCH   2   5
BRANCH   1  19
HETATM   19  C   UNL     1     -43.026  55.223 -50.528  1.00  0.00     0.075 C 
HETATM   20  C   UNL     1     -43.164  54.284 -51.476  1.00  0.00     0.020 C 
BRANCH  20  21
HETATM   21  C   UNL     1     -42.359  54.201 -52.704  1.00  0.00    -0.001 A 
HETATM   22  C   UNL     1     -41.120  53.532 -52.731  1.00  0.00     0.078 A 
HETATM   23  C   UNL     1     -40.394  53.479 -53.926  1.00  0.00     0.039 A 
HETATM   24  C   UNL     1     -40.893  54.087 -55.083  1.00  0.00     0.022 A 
HETATM   25  C   UNL     1     -42.115  54.754 -55.045  1.00  0.00     0.012 A 
HETATM   26  C   UNL     1     -42.852  54.810 -53.865  1.00  0.00     0.033 A 
HETATM   27 BR   UNL     1     -42.766  55.613 -56.597  1.00  0.00    -0.051 Br
BRANCH  22  28
HETATM   28  O   UNL     1     -40.674  53.023 -51.538  1.00  0.00    -0.355 OA
HETATM   29  C   UNL     1     -39.769  51.925 -51.615  1.00  0.00     0.210 C 
ENDBRANCH  22  28
ENDBRANCH  20  21
ENDBRANCH   1  19
TORSDOF 7
ENDMDL
MODEL 5
REMARK VINA RESULT:      -6.4      2.552      5.185
REMARK  7 active torsions:
REMARK  status: ('A' for Active; 'I' for Inactive)
REMARK    1  A    between atoms: O_2  and  C_3 
REMARK    2  A    between atoms: C_4  and  C_5 
REMARK    3  A    between atoms: C_6  and  C_7 
REMARK       I    between atoms: C_7  and  N_8 
REMARK    4  A    between atoms: N_8  and  C_9 
REMARK    5  A    between atoms: C_9  and  C_10 
REMARK    6  A    between atoms: C_10  and  N_11 
REMARK    7  A    between atoms: C_10  and  C_18 
ROOT
HETATM    1  C   UNL     1     -42.387  56.271 -55.511  1.00  0.00     0.241 C 
HETATM    2  N   UNL     1     -41.199  55.600 -55.444  1.00  0.00    -0.355 N 
HETATM    3  O   UNL     1     -43.451  55.784 -55.149  1.00  0.00    -0.269 OA
HETATM    4  H   UNL     1     -40.381  56.070 -55.831  1.00  0.00     0.162 HD
ENDROOT
BRANCH   2   5
HETATM    5  C   UNL     1     -41.082  54.187 -55.100  1.00  0.00     0.163 C 
BRANCH   5   6
HETATM    6  C   UNL     1     -40.444  53.890 -53.706  1.00  0.00     0.262 C 
BRANCH   6   7
HETATM    7  N   UNL     1     -41.261  54.495 -52.557  1.00  0.00    -0.059 N 
HETATM    8  H   UNL     1     -41.446  55.473 -52.861  1.00  0.00     0.280 HD
HETATM    9  C   UNL     1     -42.629  53.896 -52.349  1.00  0.00     0.236 C 
HETATM   10  C   UNL     1     -43.408  54.749 -51.356  1.00  0.00     0.028 C 
HETATM   11  C   UNL     1     -42.657  54.898 -50.037  1.00  0.00     0.003 C 
HETATM   12  C   UNL     1     -41.245  55.426 -50.264  1.00  0.00     0.028 C 
HETATM   13  C   UNL     1     -40.479  54.584 -51.276  1.00  0.00     0.236 C 
ENDBRANCH   6   7
BRANCH   6  14
HETATM   14  C   UNL     1     -40.168  52.429 -53.539  1.00  0.00     0.085 A 
HETATM   15  O   UNL     1     -39.628  52.037 -52.348  1.00  0.00    -0.325 OA
HETATM   16  C   UNL     1     -39.465  50.691 -52.406  1.00  0.00     0.142 A 
HETATM   17  C   UNL     1     -39.892  50.209 -53.620  1.00  0.00     0.027 A 
HETATM   18  C   UNL     1     -40.349  51.331 -54.355  1.00  0.00     0.037 A 
ENDBRANCH   6  14
ENDBRANCH   5   6
ENDBRANCH   2   5
BRANCH   1  19
HETATM   19  C   UNL     1     -42.300  57.629 -56.077  1.00  0.00     0.075 C 
HETATM   20  C   UNL     1     -42.178  58.739 -55.332  1.00  0.00     0.020 C 
BRANCH  20  21
HETATM   21  C   UNL     1     -42.172  58.771 -53.862  1.00  0.00    -0.001 A 
HETATM   22  C   UNL     1     -43.362  58.668 -53.116  1.00  0.00     0.078 A 
HETATM   23  C   UNL     1     -43.302  58.701 -51.719  1.00  0.00     0.039 A 
HETATM   24  C   UNL     1     -42.070  58.837 -51.068  1.00  0.00     0.022 A 
HETATM   25  C   UNL     1     -40.900  58.948 -51.814  1.00  0.00     0.012 A 
HETATM   26  C   UNL     1     -40.943  58.910 -53.205  1.00  0.00     0.033 A 
HETATM   27 BR   UNL     1     -39.243  59.176 -50.935  1.00  0.00    -0.051 Br
BRANCH  22  28
HETATM   28  O   UNL     1     -44.530  58.606 -53.833  1.00  0.00    -0.355 OA
HETATM   29  C   UNL     1     -45.339  59.779 -53.832  1.00  0.00     0.210 C 
ENDBRANCH  22  28
ENDBRANCH  20  21
ENDBRANCH   1  19
TORSDOF 7
ENDMDL
MODEL 6
REMARK VINA RESULT:      -6.3      1.693      2.506
REMARK  7 active torsions:
REMARK  status: ('A' for Active; 'I' for Inactive)
REMARK    1  A    between atoms: O_2  and  C_3 
REMARK    2  A    between atoms: C_4  and  C_5 
REMARK    3  A    between atoms: C_6  and  C_7 
REMARK       I    between atoms: C_7  and  N_8 
REMARK    4  A    between atoms: N_8  and  C_9 
REMARK    5  A    between atoms: C_9  and  C_10 
REMARK    6  A    between atoms: C_10  and  N_11 
REMARK    7  A    between atoms: C_10  and  C_18 
ROOT
HETATM    1  C   UNL     1     -42.251  59.640 -53.862  1.00  0.00     0.241 C 
HETATM    2  N   UNL     1     -43.117  59.093 -54.767  1.00  0.00    -0.355 N 
HETATM    3  O   UNL     1     -41.035  59.638 -54.014  1.00  0.00    -0.269 OA
HETATM    4  H   UNL     1     -44.105  59.088 -54.515  1.00  0.00     0.162 HD
ENDROOT
BRANCH   2   5
HETATM    5  C   UNL     1     -42.694  58.304 -55.920  1.00  0.00     0.163 C 
BRANCH   5   6
HETATM    6  C   UNL     1     -43.348  56.890 -56.036  1.00  0.00     0.262 C 
BRANCH   6   7
HETATM    7  N   UNL     1     -43.833  56.594 -57.460  1.00  0.00    -0.059 N 
HETATM    8  H   UNL     1     -44.365  55.705 -57.371  1.00  0.00     0.280 HD
HETATM    9  C   UNL     1     -44.827  57.579 -58.024  1.00  0.00     0.236 C 
HETATM   10  C   UNL     1     -45.400  57.030 -59.325  1.00  0.00     0.028 C 
HETATM   11  C   UNL     1     -44.298  56.712 -60.330  1.00  0.00     0.003 C 
HETATM   12  C   UNL     1     -43.252  55.782 -59.724  1.00  0.00     0.028 C 
HETATM   13  C   UNL     1     -42.701  56.324 -58.412  1.00  0.00     0.236 C 
ENDBRANCH   6   7
BRANCH   6  14
HETATM   14  C   UNL     1     -42.447  55.833 -55.479  1.00  0.00     0.085 A 
HETATM   15  O   UNL     1     -41.306  56.261 -54.862  1.00  0.00    -0.325 OA
HETATM   16  C   UNL     1     -40.645  55.156 -54.432  1.00  0.00     0.142 A 
HETATM   17  C   UNL     1     -41.345  54.020 -54.763  1.00  0.00     0.027 A 
HETATM   18  C   UNL     1     -42.513  54.455 -55.439  1.00  0.00     0.037 A 
ENDBRANCH   6  14
ENDBRANCH   5   6
ENDBRANCH   2   5
BRANCH   1  19
HETATM   19  C   UNL     1     -42.890  60.217 -52.665  1.00  0.00     0.075 C 
HETATM   20  C   UNL     1     -42.890  59.622 -51.463  1.00  0.00     0.020 C 
BRANCH  20  21
HETATM   21  C   UNL     1     -42.314  58.300 -51.176  1.00  0.00    -0.001 A 
HETATM   22  C   UNL     1     -41.045  58.161 -50.580  1.00  0.00     0.078 A 
HETATM   23  C   UNL     1     -40.543  56.881 -50.325  1.00  0.00     0.039 A 
HETATM   24  C   UNL     1     -41.292  55.748 -50.661  1.00  0.00     0.022 A 
HETATM   25  C   UNL     1     -42.541  55.894 -51.259  1.00  0.00     0.012 A 
HETATM   26  C   UNL     1     -43.057  57.162 -51.513  1.00  0.00     0.033 A 
HETATM   27 BR   UNL     1     -43.532  54.364 -51.754  1.00  0.00    -0.051 Br
BRANCH  22  28
HETATM   28  O   UNL     1     -40.350  59.320 -50.345  1.00  0.00    -0.355 OA
HETATM   29  C   UNL     1     -39.026  59.384 -50.868  1.00  0.00     0.210 C 
ENDBRANCH  22  28
ENDBRANCH  20  21
ENDBRANCH   1  19
TORSDOF 7
ENDMDL
MODEL 7
REMARK VINA RESULT:      -6.3      3.104      6.826
REMARK  7 active torsions:
REMARK  status: ('A' for Active; 'I' for Inactive)
REMARK    1  A    between atoms: O_2  and  C_3 
REMARK    2  A    between atoms: C_4  and  C_5 
REMARK    3  A    between atoms: C_6  and  C_7 
REMARK       I    between atoms: C_7  and  N_8 
REMARK    4  A    between atoms: N_8  and  C_9 
REMARK    5  A    between atoms: C_9  and  C_10 
REMARK    6  A    between atoms: C_10  and  N_11 
REMARK    7  A    between atoms: C_10  and  C_18 
ROOT
HETATM    1  C   UNL     1     -42.777  56.071 -56.272  1.00  0.00     0.241 C 
HETATM    2  N   UNL     1     -43.125  56.191 -54.956  1.00  0.00    -0.355 N 
HETATM    3  O   UNL     1     -42.912  55.032 -56.908  1.00  0.00    -0.269 OA
HETATM    4  H   UNL     1     -42.911  57.078 -54.501  1.00  0.00     0.162 HD
ENDROOT
BRANCH   2   5
HETATM    5  C   UNL     1     -43.533  55.068 -54.119  1.00  0.00     0.163 C 
BRANCH   5   6
HETATM    6  C   UNL     1     -42.803  54.963 -52.741  1.00  0.00     0.262 C 
BRANCH   6   7
HETATM    7  N   UNL     1     -41.566  54.059 -52.812  1.00  0.00    -0.059 N 
HETATM    8  H   UNL     1     -40.774  54.717 -52.951  1.00  0.00     0.280 HD
HETATM    9  C   UNL     1     -41.229  53.321 -51.540  1.00  0.00     0.236 C 
HETATM   10  C   UNL     1     -39.859  52.670 -51.681  1.00  0.00     0.028 C 
HETATM   11  C   UNL     1     -39.802  51.747 -52.894  1.00  0.00     0.003 C 
HETATM   12  C   UNL     1     -40.225  52.478 -54.164  1.00  0.00     0.028 C 
HETATM   13  C   UNL     1     -41.584  53.148 -54.008  1.00  0.00     0.236 C 
ENDBRANCH   6   7
BRANCH   6  14
HETATM   14  C   UNL     1     -42.521  56.320 -52.177  1.00  0.00     0.085 A 
HETATM   15  O   UNL     1     -43.594  57.145 -51.994  1.00  0.00    -0.325 OA
HETATM   16  C   UNL     1     -43.122  58.307 -51.476  1.00  0.00     0.142 A 
HETATM   17  C   UNL     1     -41.758  58.243 -51.323  1.00  0.00     0.027 A 
HETATM   18  C   UNL     1     -41.366  56.958 -51.773  1.00  0.00     0.037 A 
ENDBRANCH   6  14
ENDBRANCH   5   6
ENDBRANCH   2   5
BRANCH   1  19
HETATM   19  C   UNL     1     -42.199  57.287 -56.873  1.00  0.00     0.075 C 
HETATM   20  C   UNL     1     -42.922  58.208 -57.527  1.00  0.00     0.020 C 
BRANCH  20  21
HETATM   21  C   UNL     1     -44.365  58.118 -57.789  1.00  0.00    -0.001 A 
HETATM   22  C   UNL     1     -45.307  58.767 -56.967  1.00  0.00     0.078 A 
HETATM   23  C   UNL     1     -46.670  58.652 -57.261  1.00  0.00     0.039 A 
HETATM   24  C   UNL     1     -47.094  57.896 -58.360  1.00  0.00     0.022 A 
HETATM   25  C   UNL     1     -46.157  57.250 -59.161  1.00  0.00     0.012 A 
HETATM   26  C   UNL     1     -44.797  57.360 -58.885  1.00  0.00     0.033 A 
HETATM   27 BR   UNL     1     -46.733  56.194 -60.618  1.00  0.00    -0.051 Br
BRANCH  22  28
HETATM   28  O   UNL     1     -44.810  59.429 -55.873  1.00  0.00    -0.355 OA
HETATM   29  C   UNL     1     -45.234  58.955 -54.597  1.00  0.00     0.210 C 
ENDBRANCH  22  28
ENDBRANCH  20  21
ENDBRANCH   1  19
TORSDOF 7
ENDMDL
MODEL 8
REMARK VINA RESULT:      -6.3      3.099      7.014
REMARK  7 active torsions:
REMARK  status: ('A' for Active; 'I' for Inactive)
REMARK    1  A    between atoms: O_2  and  C_3 
REMARK    2  A    between atoms: C_4  and  C_5 
REMARK    3  A    between atoms: C_6  and  C_7 
REMARK       I    between atoms: C_7  and  N_8 
REMARK    4  A    between atoms: N_8  and  C_9 
REMARK    5  A    between atoms: C_9  and  C_10 
REMARK    6  A    between atoms: C_10  and  N_11 
REMARK    7  A    between atoms: C_10  and  C_18 
ROOT
HETATM    1  C   UNL     1     -43.233  56.781 -55.293  1.00  0.00     0.241 C 
HETATM    2  N   UNL     1     -44.035  55.871 -54.664  1.00  0.00    -0.355 N 
HETATM    3  O   UNL     1     -42.076  56.539 -55.618  1.00  0.00    -0.269 OA
HETATM    4  H   UNL     1     -44.959  56.192 -54.377  1.00  0.00     0.162 HD
ENDROOT
BRANCH   2   5
HETATM    5  C   UNL     1     -43.566  54.584 -54.160  1.00  0.00     0.163 C 
BRANCH   5   6
HETATM    6  C   UNL     1     -42.936  54.617 -52.731  1.00  0.00     0.262 C 
BRANCH   6   7
HETATM    7  N   UNL     1     -41.601  53.864 -52.672  1.00  0.00    -0.059 N 
HETATM    8  H   UNL     1     -40.882  54.605 -52.799  1.00  0.00     0.280 HD
HETATM    9  C   UNL     1     -41.270  53.235 -51.342  1.00  0.00     0.236 C 
HETATM   10  C   UNL     1     -39.827  52.745 -51.360  1.00  0.00     0.028 C 
HETATM   11  C   UNL     1     -39.580  51.777 -52.512  1.00  0.00     0.003 C 
HETATM   12  C   UNL     1     -39.996  52.390 -53.845  1.00  0.00     0.028 C 
HETATM   13  C   UNL     1     -41.431  52.900 -53.814  1.00  0.00     0.236 C 
ENDBRANCH   6   7
BRANCH   6  14
HETATM   14  C   UNL     1     -42.857  56.017 -52.210  1.00  0.00     0.085 A 
HETATM   15  O   UNL     1     -44.039  56.624 -51.895  1.00  0.00    -0.325 OA
HETATM   16  C   UNL     1     -43.743  57.869 -51.443  1.00  0.00     0.142 A 
HETATM   17  C   UNL     1     -42.384  58.074 -51.462  1.00  0.00     0.027 A 
HETATM   18  C   UNL     1     -41.808  56.877 -51.955  1.00  0.00     0.037 A 
ENDBRANCH   6  14
ENDBRANCH   5   6
ENDBRANCH   2   5
BRANCH   1  19
HETATM   19  C   UNL     1     -43.855  58.095 -55.533  1.00  0.00     0.075 C 
HETATM   20  C   UNL     1     -43.992  58.641 -56.751  1.00  0.00     0.020 C 
BRANCH  20  21
HETATM   21  C   UNL     1     -43.497  58.048 -58.001  1.00  0.00    -0.001 A 
HETATM   22  C   UNL     1     -42.285  58.462 -58.587  1.00  0.00     0.078 A 
HETATM   23  C   UNL     1     -41.857  57.863 -59.776  1.00  0.00     0.039 A 
HETATM   24  C   UNL     1     -42.627  56.864 -60.381  1.00  0.00     0.022 A 
HETATM   25  C   UNL     1     -43.828  56.467 -59.800  1.00  0.00     0.012 A 
HETATM   26  C   UNL     1     -44.265  57.048 -58.613  1.00  0.00     0.033 A 
HETATM   27 BR   UNL     1     -44.889  55.148 -60.641  1.00  0.00    -0.051 Br
BRANCH  22  28
HETATM   28  O   UNL     1     -41.628  59.494 -57.965  1.00  0.00    -0.355 OA
HETATM   29  C   UNL     1     -41.584  60.733 -58.668  1.00  0.00     0.210 C 
ENDBRANCH  22  28
ENDBRANCH  20  21
ENDBRANCH   1  19
TORSDOF 7
ENDMDL
MODEL 9
REMARK VINA RESULT:      -6.2      3.592      7.322
REMARK  7 active torsions:
REMARK  status: ('A' for Active; 'I' for Inactive)
REMARK    1  A    between atoms: O_2  and  C_3 
REMARK    2  A    between atoms: C_4  and  C_5 
REMARK    3  A    between atoms: C_6  and  C_7 
REMARK       I    between atoms: C_7  and  N_8 
REMARK    4  A    between atoms: N_8  and  C_9 
REMARK    5  A    between atoms: C_9  and  C_10 
REMARK    6  A    between atoms: C_10  and  N_11 
REMARK    7  A    between atoms: C_10  and  C_18 
ROOT
HETATM    1  C   UNL     1     -42.363  57.749 -57.900  1.00  0.00     0.241 C 
HETATM    2  N   UNL     1     -42.319  56.455 -57.463  1.00  0.00    -0.355 N 
HETATM    3  O   UNL     1     -42.785  58.672 -57.213  1.00  0.00    -0.269 OA
HETATM    4  H   UNL     1     -42.012  55.752 -58.135  1.00  0.00     0.162 HD
ENDROOT
BRANCH   2   5
HETATM    5  C   UNL     1     -42.916  55.999 -56.212  1.00  0.00     0.163 C 
BRANCH   5   6
HETATM    6  C   UNL     1     -41.974  56.047 -54.967  1.00  0.00     0.262 C 
BRANCH   6   7
HETATM    7  N   UNL     1     -42.677  56.630 -53.734  1.00  0.00    -0.059 N 
HETATM    8  H   UNL     1     -43.010  55.796 -53.210  1.00  0.00     0.280 HD
HETATM    9  C   UNL     1     -41.784  57.361 -52.763  1.00  0.00     0.236 C 
HETATM   10  C   UNL     1     -42.562  57.661 -51.489  1.00  0.00     0.028 C 
HETATM   11  C   UNL     1     -43.832  58.453 -51.783  1.00  0.00     0.003 C 
HETATM   12  C   UNL     1     -44.690  57.749 -52.829  1.00  0.00     0.028 C 
HETATM   13  C   UNL     1     -43.901  57.429 -54.091  1.00  0.00     0.236 C 
ENDBRANCH   6   7
BRANCH   6  14
HETATM   14  C   UNL     1     -41.339  54.715 -54.720  1.00  0.00     0.085 A 
HETATM   15  O   UNL     1     -41.996  53.869 -53.873  1.00  0.00    -0.325 OA
HETATM   16  C   UNL     1     -41.260  52.731 -53.793  1.00  0.00     0.142 A 
HETATM   17  C   UNL     1     -40.136  52.833 -54.578  1.00  0.00     0.027 A 
HETATM   18  C   UNL     1     -40.186  54.114 -55.181  1.00  0.00     0.037 A 
ENDBRANCH   6  14
ENDBRANCH   5   6
ENDBRANCH   2   5
BRANCH   1  19
HETATM   19  C   UNL     1     -41.885  57.954 -59.279  1.00  0.00     0.075 C 
HETATM   20  C   UNL     1     -42.698  58.025 -60.344  1.00  0.00     0.020 C 
BRANCH  20  21
HETATM   21  C   UNL     1     -44.157  57.854 -60.304  1.00  0.00    -0.001 A 
HETATM   22  C   UNL     1     -44.750  56.578 -60.240  1.00  0.00     0.078 A 
HETATM   23  C   UNL     1     -46.145  56.469 -60.201  1.00  0.00     0.039 A 
HETATM   24  C   UNL     1     -46.943  57.618 -60.228  1.00  0.00     0.022 A 
HETATM   25  C   UNL     1     -46.349  58.875 -60.301  1.00  0.00     0.012 A 
HETATM   26  C   UNL     1     -44.963  59.000 -60.334  1.00  0.00     0.033 A 
HETATM   27 BR   UNL     1     -47.430  60.423 -60.382  1.00  0.00    -0.051 Br
BRANCH  22  28
HETATM   28  O   UNL     1     -43.897  55.505 -60.286  1.00  0.00    -0.355 OA
HETATM   29  C   UNL     1     -44.344  54.311 -59.648  1.00  0.00     0.210 C 
ENDBRANCH  22  28
ENDBRANCH  20  21
ENDBRANCH   1  19
TORSDOF 7
ENDMDL
MODEL 10
REMARK VINA RESULT:      -6.2      2.535      4.957
REMARK  7 active torsions:
REMARK  status: ('A' for Active; 'I' for Inactive)
REMARK    1  A    between atoms: O_2  and  C_3 
REMARK    2  A    between atoms: C_4  and  C_5 
REMARK    3  A    between atoms: C_6  and  C_7 
REMARK       I    between atoms: C_7  and  N_8 
REMARK    4  A    between atoms: N_8  and  C_9 
REMARK    5  A    between atoms: C_9  and  C_10 
REMARK    6  A    between atoms: C_10  and  N_11 
REMARK    7  A    between atoms: C_10  and  C_18 
ROOT
HETATM    1  C   UNL     1     -42.872  56.057 -50.605  1.00  0.00     0.241 C 
HETATM    2  N   UNL     1     -43.596  57.096 -51.120  1.00  0.00    -0.355 N 
HETATM    3  O   UNL     1     -41.750  56.195 -50.130  1.00  0.00    -0.269 OA
HETATM    4  H   UNL     1     -44.490  56.865 -51.551  1.00  0.00     0.162 HD
ENDROOT
BRANCH   2   5
HETATM    5  C   UNL     1     -43.062  58.439 -51.317  1.00  0.00     0.163 C 
BRANCH   5   6
HETATM    6  C   UNL     1     -41.989  58.571 -52.445  1.00  0.00     0.262 C 
BRANCH   6   7
HETATM    7  N   UNL     1     -42.447  59.509 -53.569  1.00  0.00    -0.059 N 
HETATM    8  H   UNL     1     -41.592  59.661 -54.141  1.00  0.00     0.280 HD
HETATM    9  C   UNL     1     -43.450  58.924 -54.532  1.00  0.00     0.236 C 
HETATM   10  C   UNL     1     -43.620  59.865 -55.718  1.00  0.00     0.028 C 
HETATM   11  C   UNL     1     -44.027  61.265 -55.268  1.00  0.00     0.003 C 
HETATM   12  C   UNL     1     -43.053  61.815 -54.231  1.00  0.00     0.028 C 
HETATM   13  C   UNL     1     -42.869  60.859 -53.060  1.00  0.00     0.236 C 
ENDBRANCH   6   7
BRANCH   6  14
HETATM   14  C   UNL     1     -40.651  58.927 -51.876  1.00  0.00     0.085 A 
HETATM   15  O   UNL     1     -39.603  58.969 -52.751  1.00  0.00    -0.325 OA
HETATM   16  C   UNL     1     -38.500  59.310 -52.037  1.00  0.00     0.142 A 
HETATM   17  C   UNL     1     -38.823  59.489 -50.713  1.00  0.00     0.027 A 
HETATM   18  C   UNL     1     -40.215  59.244 -50.606  1.00  0.00     0.037 A 
ENDBRANCH   6  14
ENDBRANCH   5   6
ENDBRANCH   2   5
BRANCH   1  19
HETATM   19  C   UNL     1     -43.532  54.742 -50.685  1.00  0.00     0.075 C 
HETATM   20  C   UNL     1     -43.303  53.854 -51.664  1.00  0.00     0.020 C 
BRANCH  20  21
HETATM   21  C   UNL     1     -42.418  54.078 -52.817  1.00  0.00    -0.001 A 
HETATM   22  C   UNL     1     -41.050  53.746 -52.773  1.00  0.00     0.078 A 
HETATM   23  C   UNL     1     -40.251  53.976 -53.898  1.00  0.00     0.039 A 
HETATM   24  C   UNL     1     -40.805  54.535 -55.055  1.00  0.00     0.022 A 
HETATM   25  C   UNL     1     -42.156  54.870 -55.086  1.00  0.00     0.012 A 
HETATM   26  C   UNL     1     -42.966  54.640 -53.977  1.00  0.00     0.033 A 
HETATM   27 BR   UNL     1     -42.893  55.665 -56.634  1.00  0.00    -0.051 Br
BRANCH  22  28
HETATM   28  O   UNL     1     -40.575  53.266 -51.579  1.00  0.00    -0.355 OA
HETATM   29  C   UNL     1     -39.900  52.012 -51.622  1.00  0.00     0.210 C 
ENDBRANCH  22  28
ENDBRANCH  20  21
ENDBRANCH   1  19
TORSDOF 7
ENDMDL
