MODEL 1
REMARK VINA RESULT:      -8.8      0.000      0.000
REMARK  8 active torsions:
REMARK  status: ('A' for Active; 'I' for Inactive)
REMARK    1  A    between atoms: C_5  and  S_6 
REMARK    2  A    between atoms: S_6  and  C_7 
REMARK    3  A    between atoms: C_7  and  C_8 
REMARK       I    between atoms: C_8  and  N_9 
REMARK    4  A    between atoms: N_9  and  C_10 
REMARK    5  A    between atoms: C_10  and  C_11 
REMARK    6  A    between atoms: C_11  and  C_12 
REMARK    7  A    between atoms: C_14  and  O_15 
REMARK    8  A    between atoms: C_17  and  O_18 
ROOT
HETATM    1  C   UNL     1     -42.614  58.335 -53.500  1.00  0.00     0.185 C 
ENDROOT
BRANCH   1   2
HETATM    2  S   UNL     1     -41.743  56.770 -53.804  1.00  0.00    -0.080 SA
BRANCH   2   3
HETATM    3  C   UNL     1     -41.537  56.192 -52.184  1.00  0.00     0.197 A 
HETATM    4  N   UNL     1     -41.030  54.965 -51.788  1.00  0.00    -0.271 N 
HETATM    5  C   UNL     1     -40.995  55.060 -50.397  1.00  0.00     0.165 A 
HETATM    6  C   UNL     1     -40.603  53.798 -52.485  1.00  0.00     0.053 A 
HETATM    7  C   UNL     1     -40.469  53.998 -49.601  1.00  0.00    -0.013 A 
HETATM    8  N   UNL     1     -41.498  56.215 -50.013  1.00  0.00    -0.128 NA
HETATM    9  C   UNL     1     -40.387  54.087 -48.097  1.00  0.00     0.052 C 
HETATM   10  C   UNL     1     -40.031  52.890 -50.229  1.00  0.00     0.024 A 
HETATM   11  C   UNL     1     -40.095  52.752 -51.688  1.00  0.00    -0.008 A 
HETATM   12  C   UNL     1     -39.650  51.567 -52.289  1.00  0.00     0.014 A 
HETATM   13  C   UNL     1     -39.718  51.414 -53.672  1.00  0.00     0.001 A 
HETATM   14  C   UNL     1     -40.231  52.442 -54.458  1.00  0.00     0.002 A 
HETATM   15  C   UNL     1     -40.675  53.631 -53.871  1.00  0.00     0.031 A 
HETATM   16  N   UNL     1     -41.838  56.920 -51.130  1.00  0.00    -0.122 NA
ENDBRANCH   2   3
ENDBRANCH   1   2
BRANCH   1  17
HETATM   17  C   UNL     1     -41.663  59.499 -53.705  1.00  0.00     0.227 C 
HETATM   18  N   UNL     1     -41.882  60.379 -54.734  1.00  0.00    -0.360 N 
HETATM   19  H   UNL     1     -41.130  61.056 -54.808  1.00  0.00     0.162 HD
HETATM   20  O   UNL     1     -40.702  59.696 -52.960  1.00  0.00    -0.273 OA
BRANCH  18  21
HETATM   21  C   UNL     1     -42.707  60.153 -55.908  1.00  0.00     0.127 C 
BRANCH  21  22
HETATM   22  C   UNL     1     -41.884  60.145 -57.197  1.00  0.00     0.058 C 
BRANCH  22  23
HETATM   23  C   UNL     1     -42.333  59.043 -58.125  1.00  0.00    -0.054 A 
HETATM   24  C   UNL     1     -42.582  57.755 -57.624  1.00  0.00     0.046 A 
HETATM   25  C   UNL     1     -42.949  56.710 -58.480  1.00  0.00     0.102 A 
HETATM   26  C   UNL     1     -43.097  56.957 -59.858  1.00  0.00     0.101 A 
HETATM   27  C   UNL     1     -42.859  58.242 -60.355  1.00  0.00     0.040 A 
HETATM   28  C   UNL     1     -42.474  59.276 -59.495  1.00  0.00     0.010 A 
BRANCH  25  29
HETATM   29  O   UNL     1     -43.196  55.424 -58.063  1.00  0.00    -0.353 OA
HETATM   30  C   UNL     1     -42.943  55.123 -56.696  1.00  0.00     0.210 C 
ENDBRANCH  25  29
BRANCH  26  31
HETATM   31  O   UNL     1     -43.466  55.883 -60.628  1.00  0.00    -0.353 OA
HETATM   32  C   UNL     1     -44.854  55.652 -60.817  1.00  0.00     0.210 C 
ENDBRANCH  26  31
ENDBRANCH  22  23
ENDBRANCH  21  22
ENDBRANCH  18  21
ENDBRANCH   1  17
TORSDOF 8
ENDMDL
MODEL 2
REMARK VINA RESULT:      -8.8      1.121      1.436
REMARK  8 active torsions:
REMARK  status: ('A' for Active; 'I' for Inactive)
REMARK    1  A    between atoms: C_5  and  S_6 
REMARK    2  A    between atoms: S_6  and  C_7 
REMARK    3  A    between atoms: C_7  and  C_8 
REMARK       I    between atoms: C_8  and  N_9 
REMARK    4  A    between atoms: N_9  and  C_10 
REMARK    5  A    between atoms: C_10  and  C_11 
REMARK    6  A    between atoms: C_11  and  C_12 
REMARK    7  A    between atoms: C_14  and  O_15 
REMARK    8  A    between atoms: C_17  and  O_18 
ROOT
HETATM    1  C   UNL     1     -42.503  58.078 -54.128  1.00  0.00     0.185 C 
ENDROOT
BRANCH   1   2
HETATM    2  S   UNL     1     -41.495  56.570 -54.225  1.00  0.00    -0.080 SA
BRANCH   2   3
HETATM    3  C   UNL     1     -41.417  56.122 -52.555  1.00  0.00     0.197 A 
HETATM    4  N   UNL     1     -40.977  54.918 -52.027  1.00  0.00    -0.271 N 
HETATM    5  C   UNL     1     -41.033  55.127 -50.649  1.00  0.00     0.165 A 
HETATM    6  C   UNL     1     -40.542  53.687 -52.596  1.00  0.00     0.053 A 
HETATM    7  C   UNL     1     -40.596  54.120 -49.735  1.00  0.00    -0.013 A 
HETATM    8  N   UNL     1     -41.524  56.322 -50.395  1.00  0.00    -0.128 NA
HETATM    9  C   UNL     1     -40.612  54.330 -48.241  1.00  0.00     0.052 C 
HETATM   10  C   UNL     1     -40.152  52.953 -50.241  1.00  0.00     0.024 A 
HETATM   11  C   UNL     1     -40.122  52.698 -51.685  1.00  0.00    -0.008 A 
HETATM   12  C   UNL     1     -39.676  51.456 -52.156  1.00  0.00     0.014 A 
HETATM   13  C   UNL     1     -39.655  51.191 -53.524  1.00  0.00     0.001 A 
HETATM   14  C   UNL     1     -40.082  52.164 -54.424  1.00  0.00     0.002 A 
HETATM   15  C   UNL     1     -40.526  53.409 -53.966  1.00  0.00     0.031 A 
HETATM   16  N   UNL     1     -41.764  56.942 -51.586  1.00  0.00    -0.122 NA
ENDBRANCH   2   3
ENDBRANCH   1   2
BRANCH   1  17
HETATM   17  C   UNL     1     -41.617  59.298 -54.302  1.00  0.00     0.227 C 
HETATM   18  N   UNL     1     -41.930  60.231 -55.257  1.00  0.00    -0.360 N 
HETATM   19  H   UNL     1     -41.214  60.947 -55.323  1.00  0.00     0.162 HD
HETATM   20  O   UNL     1     -40.627  59.492 -53.595  1.00  0.00    -0.273 OA
BRANCH  18  21
HETATM   21  C   UNL     1     -42.806  60.043 -56.401  1.00  0.00     0.127 C 
BRANCH  21  22
HETATM   22  C   UNL     1     -42.026  59.943 -57.713  1.00  0.00     0.058 C 
BRANCH  22  23
HETATM   23  C   UNL     1     -42.606  58.880 -58.614  1.00  0.00    -0.054 A 
HETATM   24  C   UNL     1     -43.982  58.864 -58.894  1.00  0.00     0.046 A 
HETATM   25  C   UNL     1     -44.542  57.855 -59.686  1.00  0.00     0.102 A 
HETATM   26  C   UNL     1     -43.713  56.856 -60.232  1.00  0.00     0.101 A 
HETATM   27  C   UNL     1     -42.341  56.879 -59.960  1.00  0.00     0.040 A 
HETATM   28  C   UNL     1     -41.793  57.880 -59.152  1.00  0.00     0.010 A 
BRANCH  25  29
HETATM   29  O   UNL     1     -45.879  57.769 -59.991  1.00  0.00    -0.353 OA
HETATM   30  C   UNL     1     -46.788  57.647 -58.906  1.00  0.00     0.210 C 
ENDBRANCH  25  29
BRANCH  26  31
HETATM   31  O   UNL     1     -44.337  55.908 -61.002  1.00  0.00    -0.353 OA
HETATM   32  C   UNL     1     -44.700  54.685 -60.377  1.00  0.00     0.210 C 
ENDBRANCH  26  31
ENDBRANCH  22  23
ENDBRANCH  21  22
ENDBRANCH  18  21
ENDBRANCH   1  17
TORSDOF 8
ENDMDL
MODEL 3
REMARK VINA RESULT:      -8.6      2.902      6.566
REMARK  8 active torsions:
REMARK  status: ('A' for Active; 'I' for Inactive)
REMARK    1  A    between atoms: C_5  and  S_6 
REMARK    2  A    between atoms: S_6  and  C_7 
REMARK    3  A    between atoms: C_7  and  C_8 
REMARK       I    between atoms: C_8  and  N_9 
REMARK    4  A    between atoms: N_9  and  C_10 
REMARK    5  A    between atoms: C_10  and  C_11 
REMARK    6  A    between atoms: C_11  and  C_12 
REMARK    7  A    between atoms: C_14  and  O_15 
REMARK    8  A    between atoms: C_17  and  O_18 
ROOT
HETATM    1  C   UNL     1     -42.616  57.463 -56.444  1.00  0.00     0.185 C 
ENDROOT
BRANCH   1   2
HETATM    2  S   UNL     1     -43.649  57.761 -54.979  1.00  0.00    -0.080 SA
BRANCH   2   3
HETATM    3  C   UNL     1     -42.488  58.456 -53.898  1.00  0.00     0.197 A 
HETATM    4  N   UNL     1     -42.065  57.949 -52.680  1.00  0.00    -0.271 N 
HETATM    5  C   UNL     1     -41.069  58.840 -52.284  1.00  0.00     0.165 A 
HETATM    6  C   UNL     1     -42.439  56.823 -51.892  1.00  0.00     0.053 A 
HETATM    7  C   UNL     1     -40.329  58.630 -51.081  1.00  0.00    -0.013 A 
HETATM    8  N   UNL     1     -40.965  59.818 -53.162  1.00  0.00    -0.128 NA
HETATM    9  C   UNL     1     -39.222  59.558 -50.646  1.00  0.00     0.052 C 
HETATM   10  C   UNL     1     -40.638  57.558 -50.325  1.00  0.00     0.024 A 
HETATM   11  C   UNL     1     -41.709  56.629 -50.703  1.00  0.00    -0.008 A 
HETATM   12  C   UNL     1     -42.007  55.545 -49.866  1.00  0.00     0.014 A 
HETATM   13  C   UNL     1     -43.031  54.662 -50.202  1.00  0.00     0.001 A 
HETATM   14  C   UNL     1     -43.760  54.860 -51.371  1.00  0.00     0.002 A 
HETATM   15  C   UNL     1     -43.470  55.936 -52.216  1.00  0.00     0.031 A 
HETATM   16  N   UNL     1     -41.854  59.577 -54.168  1.00  0.00    -0.122 NA
ENDBRANCH   2   3
ENDBRANCH   1   2
BRANCH   1  17
HETATM   17  C   UNL     1     -43.072  56.196 -57.143  1.00  0.00     0.227 C 
HETATM   18  N   UNL     1     -43.144  55.022 -56.438  1.00  0.00    -0.360 N 
HETATM   19  H   UNL     1     -43.381  54.242 -57.042  1.00  0.00     0.162 HD
HETATM   20  O   UNL     1     -43.404  56.188 -58.329  1.00  0.00    -0.273 OA
BRANCH  18  21
HETATM   21  C   UNL     1     -42.488  54.725 -55.176  1.00  0.00     0.127 C 
BRANCH  21  22
HETATM   22  C   UNL     1     -41.037  54.283 -55.372  1.00  0.00     0.058 C 
BRANCH  22  23
HETATM   23  C   UNL     1     -40.558  53.450 -54.208  1.00  0.00    -0.054 A 
HETATM   24  C   UNL     1     -40.222  52.100 -54.397  1.00  0.00     0.046 A 
HETATM   25  C   UNL     1     -39.825  51.301 -53.317  1.00  0.00     0.102 A 
HETATM   26  C   UNL     1     -39.735  51.863 -52.030  1.00  0.00     0.101 A 
HETATM   27  C   UNL     1     -40.061  53.211 -51.845  1.00  0.00     0.040 A 
HETATM   28  C   UNL     1     -40.474  53.997 -52.925  1.00  0.00     0.010 A 
BRANCH  25  29
HETATM   29  O   UNL     1     -39.494  49.972 -53.425  1.00  0.00    -0.353 OA
HETATM   30  C   UNL     1     -39.501  49.402 -54.727  1.00  0.00     0.210 C 
ENDBRANCH  25  29
BRANCH  26  31
HETATM   31  O   UNL     1     -39.333  51.017 -51.028  1.00  0.00    -0.353 OA
HETATM   32  C   UNL     1     -40.332  50.493 -50.165  1.00  0.00     0.210 C 
ENDBRANCH  26  31
ENDBRANCH  22  23
ENDBRANCH  21  22
ENDBRANCH  18  21
ENDBRANCH   1  17
TORSDOF 8
ENDMDL
MODEL 4
REMARK VINA RESULT:      -8.5      2.244      3.168
REMARK  8 active torsions:
REMARK  status: ('A' for Active; 'I' for Inactive)
REMARK    1  A    between atoms: C_5  and  S_6 
REMARK    2  A    between atoms: S_6  and  C_7 
REMARK    3  A    between atoms: C_7  and  C_8 
REMARK       I    between atoms: C_8  and  N_9 
REMARK    4  A    between atoms: N_9  and  C_10 
REMARK    5  A    between atoms: C_10  and  C_11 
REMARK    6  A    between atoms: C_11  and  C_12 
REMARK    7  A    between atoms: C_14  and  O_15 
REMARK    8  A    between atoms: C_17  and  O_18 
ROOT
HETATM    1  C   UNL     1     -43.051  56.055 -54.549  1.00  0.00     0.185 C 
ENDROOT
BRANCH   1   2
HETATM    2  S   UNL     1     -41.357  56.537 -54.103  1.00  0.00    -0.080 SA
BRANCH   2   3
HETATM    3  C   UNL     1     -41.314  56.072 -52.436  1.00  0.00     0.197 A 
HETATM    4  N   UNL     1     -40.906  54.855 -51.914  1.00  0.00    -0.271 N 
HETATM    5  C   UNL     1     -40.979  55.051 -50.535  1.00  0.00     0.165 A 
HETATM    6  C   UNL     1     -40.488  53.620 -52.489  1.00  0.00     0.053 A 
HETATM    7  C   UNL     1     -40.577  54.027 -49.625  1.00  0.00    -0.013 A 
HETATM    8  N   UNL     1     -41.449  56.254 -50.276  1.00  0.00    -0.128 NA
HETATM    9  C   UNL     1     -40.612  54.223 -48.129  1.00  0.00     0.052 C 
HETATM   10  C   UNL     1     -40.150  52.855 -50.135  1.00  0.00     0.024 A 
HETATM   11  C   UNL     1     -40.103  52.614 -51.581  1.00  0.00    -0.008 A 
HETATM   12  C   UNL     1     -39.675  51.367 -52.058  1.00  0.00     0.014 A 
HETATM   13  C   UNL     1     -39.638  51.116 -53.428  1.00  0.00     0.001 A 
HETATM   14  C   UNL     1     -40.031  52.106 -54.324  1.00  0.00     0.002 A 
HETATM   15  C   UNL     1     -40.457  53.356 -53.861  1.00  0.00     0.031 A 
HETATM   16  N   UNL     1     -41.659  56.889 -51.464  1.00  0.00    -0.122 NA
ENDBRANCH   2   3
ENDBRANCH   1   2
BRANCH   1  17
HETATM   17  C   UNL     1     -43.021  55.141 -55.759  1.00  0.00     0.227 C 
HETATM   18  N   UNL     1     -42.591  55.629 -56.966  1.00  0.00    -0.360 N 
HETATM   19  H   UNL     1     -42.700  54.942 -57.704  1.00  0.00     0.162 HD
HETATM   20  O   UNL     1     -43.354  53.957 -55.692  1.00  0.00    -0.273 OA
BRANCH  18  21
HETATM   21  C   UNL     1     -42.495  57.027 -57.353  1.00  0.00     0.127 C 
BRANCH  21  22
HETATM   22  C   UNL     1     -42.546  57.209 -58.871  1.00  0.00     0.058 C 
BRANCH  22  23
HETATM   23  C   UNL     1     -43.931  56.939 -59.408  1.00  0.00    -0.054 A 
HETATM   24  C   UNL     1     -44.993  57.797 -59.085  1.00  0.00     0.046 A 
HETATM   25  C   UNL     1     -46.293  57.531 -59.533  1.00  0.00     0.102 A 
HETATM   26  C   UNL     1     -46.535  56.403 -60.340  1.00  0.00     0.101 A 
HETATM   27  C   UNL     1     -45.473  55.554 -60.670  1.00  0.00     0.040 A 
HETATM   28  C   UNL     1     -44.181  55.817 -60.202  1.00  0.00     0.010 A 
BRANCH  25  29
HETATM   29  O   UNL     1     -47.382  58.319 -59.247  1.00  0.00    -0.353 OA
HETATM   30  C   UNL     1     -47.250  59.717 -59.468  1.00  0.00     0.210 C 
ENDBRANCH  25  29
BRANCH  26  31
HETATM   31  O   UNL     1     -47.832  56.217 -60.744  1.00  0.00    -0.353 OA
HETATM   32  C   UNL     1     -48.191  56.668 -62.042  1.00  0.00     0.210 C 
ENDBRANCH  26  31
ENDBRANCH  22  23
ENDBRANCH  21  22
ENDBRANCH  18  21
ENDBRANCH   1  17
TORSDOF 8
ENDMDL
MODEL 5
REMARK VINA RESULT:      -8.4      1.593      2.543
REMARK  8 active torsions:
REMARK  status: ('A' for Active; 'I' for Inactive)
REMARK    1  A    between atoms: C_5  and  S_6 
REMARK    2  A    between atoms: S_6  and  C_7 
REMARK    3  A    between atoms: C_7  and  C_8 
REMARK       I    between atoms: C_8  and  N_9 
REMARK    4  A    between atoms: N_9  and  C_10 
REMARK    5  A    between atoms: C_10  and  C_11 
REMARK    6  A    between atoms: C_11  and  C_12 
REMARK    7  A    between atoms: C_14  and  O_15 
REMARK    8  A    between atoms: C_17  and  O_18 
ROOT
HETATM    1  C   UNL     1     -43.000  57.528 -51.365  1.00  0.00     0.185 C 
ENDROOT
BRANCH   1   2
HETATM    2  S   UNL     1     -41.245  57.418 -50.906  1.00  0.00    -0.080 SA
BRANCH   2   3
HETATM    3  C   UNL     1     -41.152  55.777 -50.364  1.00  0.00     0.197 A 
HETATM    4  N   UNL     1     -40.878  54.654 -51.128  1.00  0.00    -0.271 N 
HETATM    5  C   UNL     1     -40.830  53.624 -50.189  1.00  0.00     0.165 A 
HETATM    6  C   UNL     1     -40.670  54.429 -52.519  1.00  0.00     0.053 A 
HETATM    7  C   UNL     1     -40.509  52.288 -50.578  1.00  0.00    -0.013 A 
HETATM    8  N   UNL     1     -41.115  54.094 -48.991  1.00  0.00    -0.128 NA
HETATM    9  C   UNL     1     -40.415  51.161 -49.579  1.00  0.00     0.052 C 
HETATM   10  C   UNL     1     -40.279  52.045 -51.883  1.00  0.00     0.024 A 
HETATM   11  C   UNL     1     -40.363  53.105 -52.893  1.00  0.00    -0.008 A 
HETATM   12  C   UNL     1     -40.140  52.792 -54.241  1.00  0.00     0.014 A 
HETATM   13  C   UNL     1     -40.231  53.784 -55.215  1.00  0.00     0.001 A 
HETATM   14  C   UNL     1     -40.547  55.089 -54.847  1.00  0.00     0.002 A 
HETATM   15  C   UNL     1     -40.768  55.415 -53.505  1.00  0.00     0.031 A 
HETATM   16  N   UNL     1     -41.318  55.438 -49.103  1.00  0.00    -0.122 NA
ENDBRANCH   2   3
ENDBRANCH   1   2
BRANCH   1  17
HETATM   17  C   UNL     1     -43.287  58.890 -51.969  1.00  0.00     0.227 C 
HETATM   18  N   UNL     1     -43.644  58.984 -53.289  1.00  0.00    -0.360 N 
HETATM   19  H   UNL     1     -43.725  59.951 -53.583  1.00  0.00     0.162 HD
HETATM   20  O   UNL     1     -43.231  59.924 -51.303  1.00  0.00    -0.273 OA
BRANCH  18  21
HETATM   21  C   UNL     1     -43.434  57.980 -54.319  1.00  0.00     0.127 C 
BRANCH  21  22
HETATM   22  C   UNL     1     -42.324  58.377 -55.293  1.00  0.00     0.058 C 
BRANCH  22  23
HETATM   23  C   UNL     1     -42.535  57.746 -56.648  1.00  0.00    -0.054 A 
HETATM   24  C   UNL     1     -42.120  58.415 -57.810  1.00  0.00     0.046 A 
HETATM   25  C   UNL     1     -42.354  57.867 -59.077  1.00  0.00     0.102 A 
HETATM   26  C   UNL     1     -42.990  56.615 -59.188  1.00  0.00     0.101 A 
HETATM   27  C   UNL     1     -43.393  55.945 -58.029  1.00  0.00     0.040 A 
HETATM   28  C   UNL     1     -43.172  56.509 -56.768  1.00  0.00     0.010 A 
BRANCH  25  29
HETATM   29  O   UNL     1     -41.988  58.469 -60.256  1.00  0.00    -0.353 OA
HETATM   30  C   UNL     1     -42.667  59.666 -60.615  1.00  0.00     0.210 C 
ENDBRANCH  25  29
BRANCH  26  31
HETATM   31  O   UNL     1     -43.176  56.143 -60.463  1.00  0.00    -0.353 OA
HETATM   32  C   UNL     1     -44.439  55.576 -60.778  1.00  0.00     0.210 C 
ENDBRANCH  26  31
ENDBRANCH  22  23
ENDBRANCH  21  22
ENDBRANCH  18  21
ENDBRANCH   1  17
TORSDOF 8
ENDMDL
MODEL 6
REMARK VINA RESULT:      -8.4      1.393      1.681
REMARK  8 active torsions:
REMARK  status: ('A' for Active; 'I' for Inactive)
REMARK    1  A    between atoms: C_5  and  S_6 
REMARK    2  A    between atoms: S_6  and  C_7 
REMARK    3  A    between atoms: C_7  and  C_8 
REMARK       I    between atoms: C_8  and  N_9 
REMARK    4  A    between atoms: N_9  and  C_10 
REMARK    5  A    between atoms: C_10  and  C_11 
REMARK    6  A    between atoms: C_11  and  C_12 
REMARK    7  A    between atoms: C_14  and  O_15 
REMARK    8  A    between atoms: C_17  and  O_18 
ROOT
HETATM    1  C   UNL     1     -42.545  58.326 -53.575  1.00  0.00     0.185 C 
ENDROOT
BRANCH   1   2
HETATM    2  S   UNL     1     -41.867  56.666 -53.870  1.00  0.00    -0.080 SA
BRANCH   2   3
HETATM    3  C   UNL     1     -41.628  56.119 -52.244  1.00  0.00     0.197 A 
HETATM    4  N   UNL     1     -41.084  54.912 -51.836  1.00  0.00    -0.271 N 
HETATM    5  C   UNL     1     -41.036  55.029 -50.447  1.00  0.00     0.165 A 
HETATM    6  C   UNL     1     -40.636  53.745 -52.520  1.00  0.00     0.053 A 
HETATM    7  C   UNL     1     -40.474  53.994 -49.641  1.00  0.00    -0.013 A 
HETATM    8  N   UNL     1     -41.565  56.177 -50.074  1.00  0.00    -0.128 NA
HETATM    9  C   UNL     1     -40.376  54.108 -48.139  1.00  0.00     0.052 C 
HETATM   10  C   UNL     1     -40.015  52.887 -50.257  1.00  0.00     0.024 A 
HETATM   11  C   UNL     1     -40.092  52.726 -51.713  1.00  0.00    -0.008 A 
HETATM   12  C   UNL     1     -39.623  51.543 -52.301  1.00  0.00     0.014 A 
HETATM   13  C   UNL     1     -39.703  51.367 -53.681  1.00  0.00     0.001 A 
HETATM   14  C   UNL     1     -40.252  52.369 -54.476  1.00  0.00     0.002 A 
HETATM   15  C   UNL     1     -40.719  53.556 -53.902  1.00  0.00     0.031 A 
HETATM   16  N   UNL     1     -41.935  56.855 -51.198  1.00  0.00    -0.122 NA
ENDBRANCH   2   3
ENDBRANCH   1   2
BRANCH   1  17
HETATM   17  C   UNL     1     -41.548  59.375 -54.034  1.00  0.00     0.227 C 
HETATM   18  N   UNL     1     -41.862  60.191 -55.090  1.00  0.00    -0.360 N 
HETATM   19  H   UNL     1     -41.080  60.785 -55.344  1.00  0.00     0.162 HD
HETATM   20  O   UNL     1     -40.464  59.535 -53.472  1.00  0.00    -0.273 OA
BRANCH  18  21
HETATM   21  C   UNL     1     -42.888  59.957 -56.093  1.00  0.00     0.127 C 
BRANCH  21  22
HETATM   22  C   UNL     1     -42.486  58.862 -57.083  1.00  0.00     0.058 C 
BRANCH  22  23
HETATM   23  C   UNL     1     -43.695  58.277 -57.771  1.00  0.00    -0.054 A 
HETATM   24  C   UNL     1     -43.547  57.210 -58.671  1.00  0.00     0.046 A 
HETATM   25  C   UNL     1     -44.653  56.691 -59.356  1.00  0.00     0.102 A 
HETATM   26  C   UNL     1     -45.933  57.226 -59.120  1.00  0.00     0.101 A 
HETATM   27  C   UNL     1     -46.081  58.282 -58.215  1.00  0.00     0.040 A 
HETATM   28  C   UNL     1     -44.968  58.807 -57.550  1.00  0.00     0.010 A 
BRANCH  25  29
HETATM   29  O   UNL     1     -44.582  55.658 -60.259  1.00  0.00    -0.353 OA
HETATM   30  C   UNL     1     -44.526  54.337 -59.736  1.00  0.00     0.210 C 
ENDBRANCH  25  29
BRANCH  26  31
HETATM   31  O   UNL     1     -46.965  56.657 -59.824  1.00  0.00    -0.353 OA
HETATM   32  C   UNL     1     -47.445  57.351 -60.966  1.00  0.00     0.210 C 
ENDBRANCH  26  31
ENDBRANCH  22  23
ENDBRANCH  21  22
ENDBRANCH  18  21
ENDBRANCH   1  17
TORSDOF 8
ENDMDL
MODEL 7
REMARK VINA RESULT:      -8.3      2.849      8.589
REMARK  8 active torsions:
REMARK  status: ('A' for Active; 'I' for Inactive)
REMARK    1  A    between atoms: C_5  and  S_6 
REMARK    2  A    between atoms: S_6  and  C_7 
REMARK    3  A    between atoms: C_7  and  C_8 
REMARK       I    between atoms: C_8  and  N_9 
REMARK    4  A    between atoms: N_9  and  C_10 
REMARK    5  A    between atoms: C_10  and  C_11 
REMARK    6  A    between atoms: C_11  and  C_12 
REMARK    7  A    between atoms: C_14  and  O_15 
REMARK    8  A    between atoms: C_17  and  O_18 
ROOT
HETATM    1  C   UNL     1     -42.211  59.015 -53.735  1.00  0.00     0.185 C 
ENDROOT
BRANCH   1   2
HETATM    2  S   UNL     1     -42.156  59.857 -55.344  1.00  0.00    -0.080 SA
BRANCH   2   3
HETATM    3  C   UNL     1     -42.685  58.585 -56.394  1.00  0.00     0.197 A 
HETATM    4  N   UNL     1     -42.616  58.555 -57.778  1.00  0.00    -0.271 N 
HETATM    5  C   UNL     1     -43.081  57.280 -58.100  1.00  0.00     0.165 A 
HETATM    6  C   UNL     1     -42.204  59.491 -58.770  1.00  0.00     0.053 A 
HETATM    7  C   UNL     1     -43.111  56.829 -59.454  1.00  0.00    -0.013 A 
HETATM    8  N   UNL     1     -43.450  56.646 -57.005  1.00  0.00    -0.128 NA
HETATM    9  C   UNL     1     -43.575  55.443 -59.829  1.00  0.00     0.052 C 
HETATM   10  C   UNL     1     -42.702  57.679 -60.416  1.00  0.00     0.024 A 
HETATM   11  C   UNL     1     -42.247  59.038 -60.104  1.00  0.00    -0.008 A 
HETATM   12  C   UNL     1     -41.857  59.891 -61.145  1.00  0.00     0.014 A 
HETATM   13  C   UNL     1     -41.436  61.190 -60.867  1.00  0.00     0.001 A 
HETATM   14  C   UNL     1     -41.406  61.641 -59.551  1.00  0.00     0.002 A 
HETATM   15  C   UNL     1     -41.789  60.798 -58.502  1.00  0.00     0.031 A 
HETATM   16  N   UNL     1     -43.203  57.464 -55.941  1.00  0.00    -0.122 NA
ENDBRANCH   2   3
ENDBRANCH   1   2
BRANCH   1  17
HETATM   17  C   UNL     1     -40.831  58.489 -53.386  1.00  0.00     0.227 C 
HETATM   18  N   UNL     1     -40.614  57.136 -53.340  1.00  0.00    -0.360 N 
HETATM   19  H   UNL     1     -39.677  56.922 -53.015  1.00  0.00     0.162 HD
HETATM   20  O   UNL     1     -39.883  59.242 -53.159  1.00  0.00    -0.273 OA
BRANCH  18  21
HETATM   21  C   UNL     1     -41.624  56.098 -53.223  1.00  0.00     0.127 C 
BRANCH  21  22
HETATM   22  C   UNL     1     -41.357  54.925 -54.167  1.00  0.00     0.058 C 
BRANCH  22  23
HETATM   23  C   UNL     1     -40.791  53.741 -53.422  1.00  0.00    -0.054 A 
HETATM   24  C   UNL     1     -40.819  53.710 -52.019  1.00  0.00     0.046 A 
HETATM   25  C   UNL     1     -40.251  52.643 -51.312  1.00  0.00     0.102 A 
HETATM   26  C   UNL     1     -39.669  51.572 -52.017  1.00  0.00     0.101 A 
HETATM   27  C   UNL     1     -39.651  51.598 -53.415  1.00  0.00     0.040 A 
HETATM   28  C   UNL     1     -40.203  52.678 -54.112  1.00  0.00     0.010 A 
BRANCH  25  29
HETATM   29  O   UNL     1     -40.231  52.552 -49.942  1.00  0.00    -0.353 OA
HETATM   30  C   UNL     1     -40.712  53.669 -49.207  1.00  0.00     0.210 C 
ENDBRANCH  25  29
BRANCH  26  31
HETATM   31  O   UNL     1     -39.142  50.562 -51.252  1.00  0.00    -0.353 OA
HETATM   32  C   UNL     1     -39.792  49.300 -51.287  1.00  0.00     0.210 C 
ENDBRANCH  26  31
ENDBRANCH  22  23
ENDBRANCH  21  22
ENDBRANCH  18  21
ENDBRANCH   1  17
TORSDOF 8
ENDMDL
MODEL 8
REMARK VINA RESULT:      -8.1      2.238      5.480
REMARK  8 active torsions:
REMARK  status: ('A' for Active; 'I' for Inactive)
REMARK    1  A    between atoms: C_5  and  S_6 
REMARK    2  A    between atoms: S_6  and  C_7 
REMARK    3  A    between atoms: C_7  and  C_8 
REMARK       I    between atoms: C_8  and  N_9 
REMARK    4  A    between atoms: N_9  and  C_10 
REMARK    5  A    between atoms: C_10  and  C_11 
REMARK    6  A    between atoms: C_11  and  C_12 
REMARK    7  A    between atoms: C_14  and  O_15 
REMARK    8  A    between atoms: C_17  and  O_18 
ROOT
HETATM    1  C   UNL     1     -42.773  55.090 -55.478  1.00  0.00     0.185 C 
ENDROOT
BRANCH   1   2
HETATM    2  S   UNL     1     -40.991  55.032 -55.129  1.00  0.00    -0.080 SA
BRANCH   2   3
HETATM    3  C   UNL     1     -41.001  54.965 -53.398  1.00  0.00     0.197 A 
HETATM    4  N   UNL     1     -40.671  53.884 -52.597  1.00  0.00    -0.271 N 
HETATM    5  C   UNL     1     -40.754  54.398 -51.304  1.00  0.00     0.165 A 
HETATM    6  C   UNL     1     -40.313  52.530 -52.859  1.00  0.00     0.053 A 
HETATM    7  C   UNL     1     -40.424  53.595 -50.170  1.00  0.00    -0.013 A 
HETATM    8  N   UNL     1     -41.160  55.651 -51.344  1.00  0.00    -0.128 NA
HETATM    9  C   UNL     1     -40.471  54.135 -48.763  1.00  0.00     0.052 C 
HETATM   10  C   UNL     1     -40.055  52.317 -50.384  1.00  0.00     0.024 A 
HETATM   11  C   UNL     1     -39.999  51.743 -51.733  1.00  0.00    -0.008 A 
HETATM   12  C   UNL     1     -39.634  50.400 -51.896  1.00  0.00     0.014 A 
HETATM   13  C   UNL     1     -39.591  49.835 -53.169  1.00  0.00     0.001 A 
HETATM   14  C   UNL     1     -39.913  50.609 -54.281  1.00  0.00     0.002 A 
HETATM   15  C   UNL     1     -40.275  51.952 -54.131  1.00  0.00     0.031 A 
HETATM   16  N   UNL     1     -41.315  56.003 -52.653  1.00  0.00    -0.122 NA
ENDBRANCH   2   3
ENDBRANCH   1   2
BRANCH   1  17
HETATM   17  C   UNL     1     -43.020  55.885 -56.747  1.00  0.00     0.227 C 
HETATM   18  N   UNL     1     -43.246  57.235 -56.667  1.00  0.00    -0.360 N 
HETATM   19  H   UNL     1     -43.478  57.626 -57.574  1.00  0.00     0.162 HD
HETATM   20  O   UNL     1     -43.005  55.358 -57.860  1.00  0.00    -0.273 OA
BRANCH  18  21
HETATM   21  C   UNL     1     -43.650  57.980 -55.487  1.00  0.00     0.127 C 
BRANCH  21  22
HETATM   22  C   UNL     1     -42.482  58.741 -54.858  1.00  0.00     0.058 C 
BRANCH  22  23
HETATM   23  C   UNL     1     -42.876  59.348 -53.533  1.00  0.00    -0.054 A 
HETATM   24  C   UNL     1     -41.904  59.582 -52.547  1.00  0.00     0.046 A 
HETATM   25  C   UNL     1     -42.261  60.096 -51.295  1.00  0.00     0.102 A 
HETATM   26  C   UNL     1     -43.608  60.409 -51.028  1.00  0.00     0.101 A 
HETATM   27  C   UNL     1     -44.573  60.184 -52.014  1.00  0.00     0.040 A 
HETATM   28  C   UNL     1     -44.210  59.652 -53.256  1.00  0.00     0.010 A 
BRANCH  25  29
HETATM   29  O   UNL     1     -41.368  60.339 -50.280  1.00  0.00    -0.353 OA
HETATM   30  C   UNL     1     -40.138  59.627 -50.310  1.00  0.00     0.210 C 
ENDBRANCH  25  29
BRANCH  26  31
HETATM   31  O   UNL     1     -43.874  60.915 -49.781  1.00  0.00    -0.353 OA
HETATM   32  C   UNL     1     -45.195  60.771 -49.279  1.00  0.00     0.210 C 
ENDBRANCH  26  31
ENDBRANCH  22  23
ENDBRANCH  21  22
ENDBRANCH  18  21
ENDBRANCH   1  17
TORSDOF 8
ENDMDL
MODEL 9
REMARK VINA RESULT:      -8.1      4.367      7.142
REMARK  8 active torsions:
REMARK  status: ('A' for Active; 'I' for Inactive)
REMARK    1  A    between atoms: C_5  and  S_6 
REMARK    2  A    between atoms: S_6  and  C_7 
REMARK    3  A    between atoms: C_7  and  C_8 
REMARK       I    between atoms: C_8  and  N_9 
REMARK    4  A    between atoms: N_9  and  C_10 
REMARK    5  A    between atoms: C_10  and  C_11 
REMARK    6  A    between atoms: C_11  and  C_12 
REMARK    7  A    between atoms: C_14  and  O_15 
REMARK    8  A    between atoms: C_17  and  O_18 
ROOT
HETATM    1  C   UNL     1     -42.730  57.958 -53.779  1.00  0.00     0.185 C 
ENDROOT
BRANCH   1   2
HETATM    2  S   UNL     1     -41.438  56.689 -53.927  1.00  0.00    -0.080 SA
BRANCH   2   3
HETATM    3  C   UNL     1     -41.326  56.146 -52.287  1.00  0.00     0.197 A 
HETATM    4  N   UNL     1     -40.911  54.902 -51.840  1.00  0.00    -0.271 N 
HETATM    5  C   UNL     1     -40.919  55.034 -50.452  1.00  0.00     0.165 A 
HETATM    6  C   UNL     1     -40.533  53.692 -52.490  1.00  0.00     0.053 A 
HETATM    7  C   UNL     1     -40.489  53.965 -49.609  1.00  0.00    -0.013 A 
HETATM    8  N   UNL     1     -41.363  56.228 -50.117  1.00  0.00    -0.128 NA
HETATM    9  C   UNL     1     -40.454  54.092 -48.106  1.00  0.00     0.052 C 
HETATM   10  C   UNL     1     -40.099  52.815 -50.192  1.00  0.00     0.024 A 
HETATM   11  C   UNL     1     -40.119  52.640 -51.648  1.00  0.00    -0.008 A 
HETATM   12  C   UNL     1     -39.728  51.414 -52.201  1.00  0.00     0.014 A 
HETATM   13  C   UNL     1     -39.756  51.226 -53.581  1.00  0.00     0.001 A 
HETATM   14  C   UNL     1     -40.176  52.261 -54.412  1.00  0.00     0.002 A 
HETATM   15  C   UNL     1     -40.566  53.491 -53.873  1.00  0.00     0.031 A 
HETATM   16  N   UNL     1     -41.618  56.921 -51.264  1.00  0.00    -0.122 NA
ENDBRANCH   2   3
ENDBRANCH   1   2
BRANCH   1  17
HETATM   17  C   UNL     1     -42.099  59.337 -53.806  1.00  0.00     0.227 C 
HETATM   18  N   UNL     1     -42.256  60.175 -52.732  1.00  0.00    -0.360 N 
HETATM   19  H   UNL     1     -41.857  61.090 -52.914  1.00  0.00     0.162 HD
HETATM   20  O   UNL     1     -41.425  59.729 -54.761  1.00  0.00    -0.273 OA
BRANCH  18  21
HETATM   21  C   UNL     1     -43.265  60.073 -51.692  1.00  0.00     0.127 C 
BRANCH  21  22
HETATM   22  C   UNL     1     -42.973  61.003 -50.513  1.00  0.00     0.058 C 
BRANCH  22  23
HETATM   23  C   UNL     1     -44.250  61.496 -49.876  1.00  0.00    -0.054 A 
HETATM   24  C   UNL     1     -44.483  61.285 -48.508  1.00  0.00     0.046 A 
HETATM   25  C   UNL     1     -45.685  61.691 -47.914  1.00  0.00     0.102 A 
HETATM   26  C   UNL     1     -46.661  62.342 -48.691  1.00  0.00     0.101 A 
HETATM   27  C   UNL     1     -46.423  62.560 -50.052  1.00  0.00     0.040 A 
HETATM   28  C   UNL     1     -45.228  62.135 -50.641  1.00  0.00     0.010 A 
BRANCH  25  29
HETATM   29  O   UNL     1     -45.987  61.508 -46.587  1.00  0.00    -0.353 OA
HETATM   30  C   UNL     1     -46.085  60.169 -46.119  1.00  0.00     0.210 C 
ENDBRANCH  25  29
BRANCH  26  31
HETATM   31  O   UNL     1     -47.807  62.715 -48.034  1.00  0.00    -0.353 OA
HETATM   32  C   UNL     1     -48.264  64.048 -48.208  1.00  0.00     0.210 C 
ENDBRANCH  26  31
ENDBRANCH  22  23
ENDBRANCH  21  22
ENDBRANCH  18  21
ENDBRANCH   1  17
TORSDOF 8
ENDMDL
MODEL 10
REMARK VINA RESULT:      -8.0      2.339      3.293
REMARK  8 active torsions:
REMARK  status: ('A' for Active; 'I' for Inactive)
REMARK    1  A    between atoms: C_5  and  S_6 
REMARK    2  A    between atoms: S_6  and  C_7 
REMARK    3  A    between atoms: C_7  and  C_8 
REMARK       I    between atoms: C_8  and  N_9 
REMARK    4  A    between atoms: N_9  and  C_10 
REMARK    5  A    between atoms: C_10  and  C_11 
REMARK    6  A    between atoms: C_11  and  C_12 
REMARK    7  A    between atoms: C_14  and  O_15 
REMARK    8  A    between atoms: C_17  and  O_18 
ROOT
HETATM    1  C   UNL     1     -42.643  58.365 -53.676  1.00  0.00     0.185 C 
ENDROOT
BRANCH   1   2
HETATM    2  S   UNL     1     -41.966  56.702 -53.955  1.00  0.00    -0.080 SA
BRANCH   2   3
HETATM    3  C   UNL     1     -41.718  56.174 -52.325  1.00  0.00     0.197 A 
HETATM    4  N   UNL     1     -41.157  54.979 -51.905  1.00  0.00    -0.271 N 
HETATM    5  C   UNL     1     -41.109  55.110 -50.518  1.00  0.00     0.165 A 
HETATM    6  C   UNL     1     -40.692  53.812 -52.578  1.00  0.00     0.053 A 
HETATM    7  C   UNL     1     -40.532  54.091 -49.702  1.00  0.00    -0.013 A 
HETATM    8  N   UNL     1     -41.655  56.254 -50.155  1.00  0.00    -0.128 NA
HETATM    9  C   UNL     1     -40.435  54.221 -48.202  1.00  0.00     0.052 C 
HETATM   10  C   UNL     1     -40.057  52.985 -50.309  1.00  0.00     0.024 A 
HETATM   11  C   UNL     1     -40.133  52.809 -51.763  1.00  0.00    -0.008 A 
HETATM   12  C   UNL     1     -39.647  51.628 -52.340  1.00  0.00     0.014 A 
HETATM   13  C   UNL     1     -39.725  51.437 -53.718  1.00  0.00     0.001 A 
HETATM   14  C   UNL     1     -40.289  52.424 -54.522  1.00  0.00     0.002 A 
HETATM   15  C   UNL     1     -40.774  53.609 -53.959  1.00  0.00     0.031 A 
HETATM   16  N   UNL     1     -42.036  56.916 -51.286  1.00  0.00    -0.122 NA
ENDBRANCH   2   3
ENDBRANCH   1   2
BRANCH   1  17
HETATM   17  C   UNL     1     -41.594  59.408 -54.016  1.00  0.00     0.227 C 
HETATM   18  N   UNL     1     -41.798  60.252 -55.078  1.00  0.00    -0.360 N 
HETATM   19  H   UNL     1     -40.988  60.839 -55.245  1.00  0.00     0.162 HD
HETATM   20  O   UNL     1     -40.564  59.539 -53.353  1.00  0.00    -0.273 OA
BRANCH  18  21
HETATM   21  C   UNL     1     -42.728  60.056 -56.177  1.00  0.00     0.127 C 
BRANCH  21  22
HETATM   22  C   UNL     1     -42.160  59.131 -57.254  1.00  0.00     0.058 C 
BRANCH  22  23
HETATM   23  C   UNL     1     -41.894  59.883 -58.535  1.00  0.00    -0.054 A 
HETATM   24  C   UNL     1     -41.341  61.173 -58.495  1.00  0.00     0.046 A 
HETATM   25  C   UNL     1     -41.135  61.903 -59.672  1.00  0.00     0.102 A 
HETATM   26  C   UNL     1     -41.462  61.328 -60.915  1.00  0.00     0.101 A 
HETATM   27  C   UNL     1     -42.003  60.038 -60.955  1.00  0.00     0.040 A 
HETATM   28  C   UNL     1     -42.222  59.324 -59.772  1.00  0.00     0.010 A 
BRANCH  25  29
HETATM   29  O   UNL     1     -40.611  63.172 -59.708  1.00  0.00    -0.353 OA
HETATM   30  C   UNL     1     -41.388  64.215 -59.134  1.00  0.00     0.210 C 
ENDBRANCH  25  29
BRANCH  26  31
HETATM   31  O   UNL     1     -41.224  62.104 -62.021  1.00  0.00    -0.353 OA
HETATM   32  C   UNL     1     -42.220  62.134 -63.032  1.00  0.00     0.210 C 
ENDBRANCH  26  31
ENDBRANCH  22  23
ENDBRANCH  21  22
ENDBRANCH  18  21
ENDBRANCH   1  17
TORSDOF 8
ENDMDL
