MODEL 1
REMARK VINA RESULT:      -8.9      0.000      0.000
REMARK  6 active torsions:
REMARK  status: ('A' for Active; 'I' for Inactive)
REMARK    1  A    between atoms: O_2  and  C_3 
REMARK    2  A    between atoms: C_5  and  C_6 
REMARK    3  A    between atoms: C_12  and  C_13 
REMARK       I    between atoms: C_13  and  N_14 
REMARK    4  A    between atoms: N_14  and  C_15 
REMARK    5  A    between atoms: C_15  and  C_16 
REMARK    6  A    between atoms: C_23  and  C_24 
ROOT
HETATM    1  C   UNL     1     -40.603  54.126 -53.598  1.00  0.00     0.118 C 
HETATM    2  N   UNL     1     -41.457  54.344 -54.759  1.00  0.00    -0.365 N 
HETATM    3  C   UNL     1     -42.012  55.565 -54.960  1.00  0.00     0.138 A 
HETATM    4  N   UNL     1     -42.084  56.462 -53.914  1.00  0.00    -0.240 N 
HETATM    5  N   UNL     1     -42.582  57.657 -54.260  1.00  0.00    -0.181 NA
HETATM    6  C   UNL     1     -42.958  57.475 -55.527  1.00  0.00     0.160 A 
HETATM    7  C   UNL     1     -42.615  56.196 -56.035  1.00  0.00     0.096 A 
HETATM    8  C   UNL     1     -41.565  56.219 -52.577  1.00  0.00     0.221 C 
HETATM    9  C   UNL     1     -41.290  54.718 -52.362  1.00  0.00     0.066 C 
HETATM   10  H   UNL     1     -41.519  53.575 -55.426  1.00  0.00     0.161 HD
ENDROOT
BRANCH   7  11
HETATM   11  C   UNL     1     -42.858  55.756 -57.397  1.00  0.00     0.257 C 
HETATM   12  N   UNL     1     -42.460  56.625 -58.386  1.00  0.00    -0.352 N 
HETATM   13  H   UNL     1     -42.250  57.572 -58.112  1.00  0.00     0.163 HD
HETATM   14  O   UNL     1     -43.434  54.699 -57.638  1.00  0.00    -0.267 OA
BRANCH  12  15
HETATM   15  C   UNL     1     -42.827  56.373 -59.758  1.00  0.00     0.161 C 
BRANCH  15  16
HETATM   16  C   UNL     1     -44.254  56.767 -60.023  1.00  0.00    -0.041 A 
HETATM   17  C   UNL     1     -45.182  55.807 -60.449  1.00  0.00     0.009 A 
HETATM   18  C   UNL     1     -46.510  56.161 -60.689  1.00  0.00     0.001 A 
HETATM   19  C   UNL     1     -46.920  57.482 -60.517  1.00  0.00     0.000 A 
HETATM   20  C   UNL     1     -46.002  58.449 -60.110  1.00  0.00     0.001 A 
HETATM   21  C   UNL     1     -44.673  58.096 -59.867  1.00  0.00     0.009 A 
ENDBRANCH  15  16
ENDBRANCH  12  15
ENDBRANCH   7  11
BRANCH   1  22
HETATM   22  C   UNL     1     -40.277  52.653 -53.459  1.00  0.00    -0.033 A 
HETATM   23  C   UNL     1     -39.935  52.134 -52.194  1.00  0.00     0.046 A 
HETATM   24  C   UNL     1     -39.639  50.778 -52.031  1.00  0.00     0.068 A 
HETATM   25  C   UNL     1     -39.682  49.933 -53.140  1.00  0.00     0.037 A 
HETATM   26  C   UNL     1     -40.001  50.432 -54.402  1.00  0.00     0.003 A 
HETATM   27  C   UNL     1     -40.290  51.786 -54.562  1.00  0.00     0.009 A 
BRANCH  24  28
HETATM   28  O   UNL     1     -39.303  50.164 -50.857  1.00  0.00    -0.356 OA
HETATM   29  C   UNL     1     -40.226  50.273 -49.781  1.00  0.00     0.210 C 
ENDBRANCH  24  28
ENDBRANCH   1  22
BRANCH   8  30
HETATM   30  C   UNL     1     -42.511  56.715 -51.502  1.00  0.00     0.409 C 
HETATM   31  F   UNL     1     -43.806  56.457 -51.792  1.00  0.00    -0.169 F 
HETATM   32  F   UNL     1     -42.242  56.071 -50.333  1.00  0.00    -0.169 F 
HETATM   33  F   UNL     1     -42.387  58.031 -51.236  1.00  0.00    -0.169 F 
ENDBRANCH   8  30
TORSDOF 6
ENDMDL
MODEL 2
REMARK VINA RESULT:      -8.5      1.358      2.140
REMARK  6 active torsions:
REMARK  status: ('A' for Active; 'I' for Inactive)
REMARK    1  A    between atoms: O_2  and  C_3 
REMARK    2  A    between atoms: C_5  and  C_6 
REMARK    3  A    between atoms: C_12  and  C_13 
REMARK       I    between atoms: C_13  and  N_14 
REMARK    4  A    between atoms: N_14  and  C_15 
REMARK    5  A    between atoms: C_15  and  C_16 
REMARK    6  A    between atoms: C_23  and  C_24 
ROOT
HETATM    1  C   UNL     1     -41.329  55.543 -52.963  1.00  0.00     0.118 C 
HETATM    2  N   UNL     1     -41.894  55.652 -54.303  1.00  0.00    -0.365 N 
HETATM    3  C   UNL     1     -42.605  56.757 -54.641  1.00  0.00     0.138 A 
HETATM    4  N   UNL     1     -43.105  57.576 -53.648  1.00  0.00    -0.240 N 
HETATM    5  N   UNL     1     -43.721  58.671 -54.111  1.00  0.00    -0.181 NA
HETATM    6  C   UNL     1     -43.729  58.482 -55.432  1.00  0.00     0.160 A 
HETATM    7  C   UNL     1     -43.032  57.314 -55.834  1.00  0.00     0.096 A 
HETATM    8  C   UNL     1     -42.898  57.372 -52.223  1.00  0.00     0.221 C 
HETATM    9  C   UNL     1     -42.402  55.939 -51.942  1.00  0.00     0.066 C 
HETATM   10  H   UNL     1     -41.640  54.917 -54.962  1.00  0.00     0.161 HD
ENDROOT
BRANCH   7  11
HETATM   11  C   UNL     1     -42.840  56.900 -57.212  1.00  0.00     0.257 C 
HETATM   12  N   UNL     1     -42.912  57.901 -58.153  1.00  0.00    -0.352 N 
HETATM   13  H   UNL     1     -43.309  58.782 -57.862  1.00  0.00     0.163 HD
HETATM   14  O   UNL     1     -42.682  55.721 -57.513  1.00  0.00    -0.267 OA
BRANCH  12  15
HETATM   15  C   UNL     1     -42.927  57.573 -59.557  1.00  0.00     0.161 C 
BRANCH  15  16
HETATM   16  C   UNL     1     -44.296  57.136 -60.000  1.00  0.00    -0.041 A 
HETATM   17  C   UNL     1     -44.480  55.869 -60.572  1.00  0.00     0.009 A 
HETATM   18  C   UNL     1     -45.748  55.451 -60.978  1.00  0.00     0.001 A 
HETATM   19  C   UNL     1     -46.842  56.300 -60.827  1.00  0.00     0.000 A 
HETATM   20  C   UNL     1     -46.669  57.568 -60.276  1.00  0.00     0.001 A 
HETATM   21  C   UNL     1     -45.402  57.987 -59.866  1.00  0.00     0.009 A 
ENDBRANCH  15  16
ENDBRANCH  12  15
ENDBRANCH   7  11
BRANCH   1  22
HETATM   22  C   UNL     1     -40.772  54.152 -52.744  1.00  0.00    -0.033 A 
HETATM   23  C   UNL     1     -40.713  53.250 -53.825  1.00  0.00     0.046 A 
HETATM   24  C   UNL     1     -40.196  51.962 -53.658  1.00  0.00     0.068 A 
HETATM   25  C   UNL     1     -39.736  51.571 -52.401  1.00  0.00     0.037 A 
HETATM   26  C   UNL     1     -39.802  52.443 -51.316  1.00  0.00     0.003 A 
HETATM   27  C   UNL     1     -40.324  53.725 -51.484  1.00  0.00     0.009 A 
BRANCH  24  28
HETATM   28  O   UNL     1     -40.085  51.009 -54.631  1.00  0.00    -0.356 OA
HETATM   29  C   UNL     1     -39.484  49.774 -54.263  1.00  0.00     0.210 C 
ENDBRANCH  24  28
ENDBRANCH   1  22
BRANCH   8  30
HETATM   30  C   UNL     1     -44.158  57.633 -51.423  1.00  0.00     0.409 C 
HETATM   31  F   UNL     1     -44.191  58.878 -50.900  1.00  0.00    -0.169 F 
HETATM   32  F   UNL     1     -45.241  57.530 -52.243  1.00  0.00    -0.169 F 
HETATM   33  F   UNL     1     -44.362  56.746 -50.428  1.00  0.00    -0.169 F 
ENDBRANCH   8  30
TORSDOF 6
ENDMDL
MODEL 3
REMARK VINA RESULT:      -8.5      1.596      2.207
REMARK  6 active torsions:
REMARK  status: ('A' for Active; 'I' for Inactive)
REMARK    1  A    between atoms: O_2  and  C_3 
REMARK    2  A    between atoms: C_5  and  C_6 
REMARK    3  A    between atoms: C_12  and  C_13 
REMARK       I    between atoms: C_13  and  N_14 
REMARK    4  A    between atoms: N_14  and  C_15 
REMARK    5  A    between atoms: C_15  and  C_16 
REMARK    6  A    between atoms: C_23  and  C_24 
ROOT
HETATM    1  C   UNL     1     -41.047  55.176 -53.542  1.00  0.00     0.118 C 
HETATM    2  N   UNL     1     -41.700  55.391 -54.828  1.00  0.00    -0.365 N 
HETATM    3  C   UNL     1     -42.345  56.561 -55.062  1.00  0.00     0.138 A 
HETATM    4  N   UNL     1     -42.704  57.366 -54.000  1.00  0.00    -0.240 N 
HETATM    5  N   UNL     1     -43.264  58.526 -54.368  1.00  0.00    -0.181 NA
HETATM    6  C   UNL     1     -43.386  58.401 -55.690  1.00  0.00     0.160 A 
HETATM    7  C   UNL     1     -42.815  57.205 -56.195  1.00  0.00     0.096 A 
HETATM    8  C   UNL     1     -42.407  57.079 -52.606  1.00  0.00     0.221 C 
HETATM    9  C   UNL     1     -42.006  55.602 -52.425  1.00  0.00     0.066 C 
HETATM   10  H   UNL     1     -41.555  54.671 -55.535  1.00  0.00     0.161 HD
ENDROOT
BRANCH   7  11
HETATM   11  C   UNL     1     -42.760  56.844 -57.599  1.00  0.00     0.257 C 
HETATM   12  N   UNL     1     -41.936  57.616 -58.384  1.00  0.00    -0.352 N 
HETATM   13  H   UNL     1     -41.618  58.492 -57.998  1.00  0.00     0.163 HD
HETATM   14  O   UNL     1     -43.453  55.940 -58.058  1.00  0.00    -0.267 OA
BRANCH  12  15
HETATM   15  C   UNL     1     -41.955  57.467 -59.818  1.00  0.00     0.161 C 
BRANCH  15  16
HETATM   16  C   UNL     1     -42.614  58.646 -60.481  1.00  0.00    -0.041 A 
HETATM   17  C   UNL     1     -41.833  59.630 -61.102  1.00  0.00     0.009 A 
HETATM   18  C   UNL     1     -42.435  60.723 -61.727  1.00  0.00     0.001 A 
HETATM   19  C   UNL     1     -43.822  60.847 -61.727  1.00  0.00     0.000 A 
HETATM   20  C   UNL     1     -44.609  59.884 -61.098  1.00  0.00     0.001 A 
HETATM   21  C   UNL     1     -44.008  58.788 -60.474  1.00  0.00     0.009 A 
ENDBRANCH  15  16
ENDBRANCH  12  15
ENDBRANCH   7  11
BRANCH   1  22
HETATM   22  C   UNL     1     -40.586  53.738 -53.425  1.00  0.00    -0.033 A 
HETATM   23  C   UNL     1     -40.380  53.177 -52.149  1.00  0.00     0.046 A 
HETATM   24  C   UNL     1     -39.964  51.850 -52.007  1.00  0.00     0.068 A 
HETATM   25  C   UNL     1     -39.751  51.077 -53.148  1.00  0.00     0.037 A 
HETATM   26  C   UNL     1     -39.933  51.620 -54.419  1.00  0.00     0.003 A 
HETATM   27  C   UNL     1     -40.341  52.946 -54.558  1.00  0.00     0.009 A 
BRANCH  24  28
HETATM   28  O   UNL     1     -39.739  51.200 -50.825  1.00  0.00    -0.356 OA
HETATM   29  C   UNL     1     -39.543  49.793 -50.886  1.00  0.00     0.210 C 
ENDBRANCH  24  28
ENDBRANCH   1  22
BRANCH   8  30
HETATM   30  C   UNL     1     -43.580  57.396 -51.699  1.00  0.00     0.409 C 
HETATM   31  F   UNL     1     -43.562  58.672 -51.256  1.00  0.00    -0.169 F 
HETATM   32  F   UNL     1     -44.741  57.247 -52.396  1.00  0.00    -0.169 F 
HETATM   33  F   UNL     1     -43.679  56.575 -50.635  1.00  0.00    -0.169 F 
ENDBRANCH   8  30
TORSDOF 6
ENDMDL
MODEL 4
REMARK VINA RESULT:      -8.3      1.717      2.591
REMARK  6 active torsions:
REMARK  status: ('A' for Active; 'I' for Inactive)
REMARK    1  A    between atoms: O_2  and  C_3 
REMARK    2  A    between atoms: C_5  and  C_6 
REMARK    3  A    between atoms: C_12  and  C_13 
REMARK       I    between atoms: C_13  and  N_14 
REMARK    4  A    between atoms: N_14  and  C_15 
REMARK    5  A    between atoms: C_15  and  C_16 
REMARK    6  A    between atoms: C_23  and  C_24 
ROOT
HETATM    1  C   UNL     1     -40.809  55.836 -54.236  1.00  0.00     0.118 C 
HETATM    2  N   UNL     1     -41.831  55.798 -55.277  1.00  0.00    -0.365 N 
HETATM    3  C   UNL     1     -42.297  56.960 -55.798  1.00  0.00     0.138 A 
HETATM    4  N   UNL     1     -42.101  58.142 -55.112  1.00  0.00    -0.240 N 
HETATM    5  N   UNL     1     -42.539  59.225 -55.767  1.00  0.00    -0.181 NA
HETATM    6  C   UNL     1     -43.147  58.709 -56.837  1.00  0.00     0.160 A 
HETATM    7  C   UNL     1     -43.018  57.300 -56.930  1.00  0.00     0.096 A 
HETATM    8  C   UNL     1     -41.381  58.260 -53.854  1.00  0.00     0.221 C 
HETATM    9  C   UNL     1     -41.212  56.880 -53.189  1.00  0.00     0.066 C 
HETATM   10  H   UNL     1     -42.079  54.876 -55.633  1.00  0.00     0.161 HD
ENDROOT
BRANCH   7  11
HETATM   11  C   UNL     1     -43.536  56.494 -58.020  1.00  0.00     0.257 C 
HETATM   12  N   UNL     1     -44.707  56.937 -58.588  1.00  0.00    -0.352 N 
HETATM   13  H   UNL     1     -45.234  57.631 -58.080  1.00  0.00     0.163 HD
HETATM   14  O   UNL     1     -42.985  55.453 -58.367  1.00  0.00    -0.267 OA
BRANCH  12  15
HETATM   15  C   UNL     1     -45.405  56.111 -59.542  1.00  0.00     0.161 C 
BRANCH  15  16
HETATM   16  C   UNL     1     -46.399  56.914 -60.335  1.00  0.00    -0.041 A 
HETATM   17  C   UNL     1     -47.296  56.270 -61.199  1.00  0.00     0.009 A 
HETATM   18  C   UNL     1     -48.227  57.006 -61.932  1.00  0.00     0.001 A 
HETATM   19  C   UNL     1     -48.263  58.394 -61.817  1.00  0.00     0.000 A 
HETATM   20  C   UNL     1     -47.365  59.047 -60.975  1.00  0.00     0.001 A 
HETATM   21  C   UNL     1     -46.434  58.312 -60.238  1.00  0.00     0.009 A 
ENDBRANCH  15  16
ENDBRANCH  12  15
ENDBRANCH   7  11
BRANCH   1  22
HETATM   22  C   UNL     1     -40.602  54.451 -53.658  1.00  0.00    -0.033 A 
HETATM   23  C   UNL     1     -40.393  53.361 -54.527  1.00  0.00     0.046 A 
HETATM   24  C   UNL     1     -40.190  52.073 -54.025  1.00  0.00     0.068 A 
HETATM   25  C   UNL     1     -40.196  51.869 -52.645  1.00  0.00     0.037 A 
HETATM   26  C   UNL     1     -40.419  52.933 -51.772  1.00  0.00     0.003 A 
HETATM   27  C   UNL     1     -40.628  54.216 -52.275  1.00  0.00     0.009 A 
BRANCH  24  28
HETATM   28  O   UNL     1     -39.972  50.946 -54.769  1.00  0.00    -0.356 OA
HETATM   29  C   UNL     1     -39.499  49.796 -54.079  1.00  0.00     0.210 C 
ENDBRANCH  24  28
ENDBRANCH   1  22
BRANCH   8  30
HETATM   30  C   UNL     1     -42.074  59.201 -52.890  1.00  0.00     0.409 C 
HETATM   31  F   UNL     1     -41.688  59.008 -51.609  1.00  0.00    -0.169 F 
HETATM   32  F   UNL     1     -41.746  60.486 -53.201  1.00  0.00    -0.169 F 
HETATM   33  F   UNL     1     -43.420  59.140 -52.945  1.00  0.00    -0.169 F 
ENDBRANCH   8  30
TORSDOF 6
ENDMDL
MODEL 5
REMARK VINA RESULT:      -8.2      4.173      7.094
REMARK  6 active torsions:
REMARK  status: ('A' for Active; 'I' for Inactive)
REMARK    1  A    between atoms: O_2  and  C_3 
REMARK    2  A    between atoms: C_5  and  C_6 
REMARK    3  A    between atoms: C_12  and  C_13 
REMARK       I    between atoms: C_13  and  N_14 
REMARK    4  A    between atoms: N_14  and  C_15 
REMARK    5  A    between atoms: C_15  and  C_16 
REMARK    6  A    between atoms: C_23  and  C_24 
ROOT
HETATM    1  C   UNL     1     -42.439  54.823 -53.354  1.00  0.00     0.118 C 
HETATM    2  N   UNL     1     -42.241  56.123 -52.721  1.00  0.00    -0.365 N 
HETATM    3  C   UNL     1     -42.887  57.210 -53.212  1.00  0.00     0.138 A 
HETATM    4  N   UNL     1     -43.409  57.173 -54.489  1.00  0.00    -0.240 N 
HETATM    5  N   UNL     1     -44.087  58.278 -54.827  1.00  0.00    -0.181 NA
HETATM    6  C   UNL     1     -43.881  59.092 -53.790  1.00  0.00     0.160 A 
HETATM    7  C   UNL     1     -43.155  58.482 -52.735  1.00  0.00     0.096 A 
HETATM    8  C   UNL     1     -43.359  56.019 -55.372  1.00  0.00     0.221 C 
HETATM    9  C   UNL     1     -42.323  54.993 -54.873  1.00  0.00     0.066 C 
HETATM   10  H   UNL     1     -41.689  56.129 -51.865  1.00  0.00     0.161 HD
ENDROOT
BRANCH   7  11
HETATM   11  C   UNL     1     -42.840  59.122 -51.471  1.00  0.00     0.257 C 
HETATM   12  N   UNL     1     -43.656  60.168 -51.111  1.00  0.00    -0.352 N 
HETATM   13  H   UNL     1     -44.250  60.559 -51.826  1.00  0.00     0.163 HD
HETATM   14  O   UNL     1     -41.870  58.780 -50.802  1.00  0.00    -0.267 OA
BRANCH  12  15
HETATM   15  C   UNL     1     -43.318  60.991 -49.976  1.00  0.00     0.161 C 
BRANCH  15  16
HETATM   16  C   UNL     1     -44.551  61.533 -49.307  1.00  0.00    -0.041 A 
HETATM   17  C   UNL     1     -44.722  61.388 -47.923  1.00  0.00     0.009 A 
HETATM   18  C   UNL     1     -45.859  61.895 -47.293  1.00  0.00     0.001 A 
HETATM   19  C   UNL     1     -46.841  62.541 -48.041  1.00  0.00     0.000 A 
HETATM   20  C   UNL     1     -46.690  62.675 -49.420  1.00  0.00     0.001 A 
HETATM   21  C   UNL     1     -45.552  62.171 -50.053  1.00  0.00     0.009 A 
ENDBRANCH  15  16
ENDBRANCH  12  15
ENDBRANCH   7  11
BRANCH   1  22
HETATM   22  C   UNL     1     -41.465  53.813 -52.784  1.00  0.00    -0.033 A 
HETATM   23  C   UNL     1     -40.830  52.897 -53.647  1.00  0.00     0.046 A 
HETATM   24  C   UNL     1     -39.920  51.959 -53.154  1.00  0.00     0.068 A 
HETATM   25  C   UNL     1     -39.641  51.932 -51.787  1.00  0.00     0.037 A 
HETATM   26  C   UNL     1     -40.272  52.818 -50.916  1.00  0.00     0.003 A 
HETATM   27  C   UNL     1     -41.185  53.749 -51.410  1.00  0.00     0.009 A 
BRANCH  24  28
HETATM   28  O   UNL     1     -39.242  51.030 -53.894  1.00  0.00    -0.356 OA
HETATM   29  C   UNL     1     -39.986  49.917 -54.375  1.00  0.00     0.210 C 
ENDBRANCH  24  28
ENDBRANCH   1  22
BRANCH   8  30
HETATM   30  C   UNL     1     -43.033  56.409 -56.799  1.00  0.00     0.409 C 
HETATM   31  F   UNL     1     -42.022  57.303 -56.874  1.00  0.00    -0.169 F 
HETATM   32  F   UNL     1     -42.622  55.306 -57.485  1.00  0.00    -0.169 F 
HETATM   33  F   UNL     1     -44.087  56.897 -57.483  1.00  0.00    -0.169 F 
ENDBRANCH   8  30
TORSDOF 6
ENDMDL
MODEL 6
REMARK VINA RESULT:      -8.1      2.235      8.316
REMARK  6 active torsions:
REMARK  status: ('A' for Active; 'I' for Inactive)
REMARK    1  A    between atoms: O_2  and  C_3 
REMARK    2  A    between atoms: C_5  and  C_6 
REMARK    3  A    between atoms: C_12  and  C_13 
REMARK       I    between atoms: C_13  and  N_14 
REMARK    4  A    between atoms: N_14  and  C_15 
REMARK    5  A    between atoms: C_15  and  C_16 
REMARK    6  A    between atoms: C_23  and  C_24 
ROOT
HETATM    1  C   UNL     1     -45.005  57.851 -55.562  1.00  0.00     0.118 C 
HETATM    2  N   UNL     1     -43.952  56.848 -55.444  1.00  0.00    -0.365 N 
HETATM    3  C   UNL     1     -43.302  56.698 -54.263  1.00  0.00     0.138 A 
HETATM    4  N   UNL     1     -43.361  57.704 -53.320  1.00  0.00    -0.240 N 
HETATM    5  N   UNL     1     -42.743  57.403 -52.170  1.00  0.00    -0.181 NA
HETATM    6  C   UNL     1     -42.165  56.229 -52.432  1.00  0.00     0.160 A 
HETATM    7  C   UNL     1     -42.488  55.720 -53.716  1.00  0.00     0.096 A 
HETATM    8  C   UNL     1     -44.114  58.939 -53.471  1.00  0.00     0.221 C 
HETATM    9  C   UNL     1     -44.508  59.162 -54.945  1.00  0.00     0.066 C 
HETATM   10  H   UNL     1     -43.820  56.234 -56.247  1.00  0.00     0.161 HD
ENDROOT
BRANCH   7  11
HETATM   11  C   UNL     1     -42.040  54.441 -54.234  1.00  0.00     0.257 C 
HETATM   12  N   UNL     1     -40.794  54.032 -53.821  1.00  0.00    -0.352 N 
HETATM   13  H   UNL     1     -40.198  54.724 -53.392  1.00  0.00     0.163 HD
HETATM   14  O   UNL     1     -42.714  53.799 -55.034  1.00  0.00    -0.267 OA
BRANCH  12  15
HETATM   15  C   UNL     1     -40.176  52.876 -54.424  1.00  0.00     0.161 C 
BRANCH  15  16
HETATM   16  C   UNL     1     -39.955  51.786 -53.412  1.00  0.00    -0.041 A 
HETATM   17  C   UNL     1     -39.824  50.454 -53.829  1.00  0.00     0.009 A 
HETATM   18  C   UNL     1     -39.610  49.436 -52.898  1.00  0.00     0.001 A 
HETATM   19  C   UNL     1     -39.536  49.740 -51.540  1.00  0.00     0.000 A 
HETATM   20  C   UNL     1     -39.682  51.058 -51.112  1.00  0.00     0.001 A 
HETATM   21  C   UNL     1     -39.893  52.078 -52.042  1.00  0.00     0.009 A 
ENDBRANCH  15  16
ENDBRANCH  12  15
ENDBRANCH   7  11
BRANCH   1  22
HETATM   22  C   UNL     1     -45.433  57.989 -57.009  1.00  0.00    -0.033 A 
HETATM   23  C   UNL     1     -44.526  57.658 -58.035  1.00  0.00     0.046 A 
HETATM   24  C   UNL     1     -44.893  57.766 -59.379  1.00  0.00     0.068 A 
HETATM   25  C   UNL     1     -46.175  58.210 -59.702  1.00  0.00     0.037 A 
HETATM   26  C   UNL     1     -47.079  58.558 -58.701  1.00  0.00     0.003 A 
HETATM   27  C   UNL     1     -46.708  58.456 -57.361  1.00  0.00     0.009 A 
BRANCH  24  28
HETATM   28  O   UNL     1     -44.102  57.468 -60.454  1.00  0.00    -0.356 OA
HETATM   29  C   UNL     1     -42.695  57.529 -60.261  1.00  0.00     0.210 C 
ENDBRANCH  24  28
ENDBRANCH   1  22
BRANCH   8  30
HETATM   30  C   UNL     1     -43.340  60.141 -52.970  1.00  0.00     0.409 C 
HETATM   31  F   UNL     1     -42.037  60.103 -53.322  1.00  0.00    -0.169 F 
HETATM   32  F   UNL     1     -43.857  61.273 -53.526  1.00  0.00    -0.169 F 
HETATM   33  F   UNL     1     -43.417  60.317 -51.635  1.00  0.00    -0.169 F 
ENDBRANCH   8  30
TORSDOF 6
ENDMDL
MODEL 7
REMARK VINA RESULT:      -8.1      4.124      6.810
REMARK  6 active torsions:
REMARK  status: ('A' for Active; 'I' for Inactive)
REMARK    1  A    between atoms: O_2  and  C_3 
REMARK    2  A    between atoms: C_5  and  C_6 
REMARK    3  A    between atoms: C_12  and  C_13 
REMARK       I    between atoms: C_13  and  N_14 
REMARK    4  A    between atoms: N_14  and  C_15 
REMARK    5  A    between atoms: C_15  and  C_16 
REMARK    6  A    between atoms: C_23  and  C_24 
ROOT
HETATM    1  C   UNL     1     -42.234  55.085 -54.231  1.00  0.00     0.118 C 
HETATM    2  N   UNL     1     -41.734  56.351 -53.705  1.00  0.00    -0.365 N 
HETATM    3  C   UNL     1     -42.251  57.517 -54.169  1.00  0.00     0.138 A 
HETATM    4  N   UNL     1     -42.946  57.529 -55.361  1.00  0.00    -0.240 N 
HETATM    5  N   UNL     1     -43.469  58.723 -55.669  1.00  0.00    -0.181 NA
HETATM    6  C   UNL     1     -42.986  59.522 -54.716  1.00  0.00     0.160 A 
HETATM    7  C   UNL     1     -42.232  58.832 -53.734  1.00  0.00     0.096 A 
HETATM    8  C   UNL     1     -43.214  56.354 -56.175  1.00  0.00     0.221 C 
HETATM    9  C   UNL     1     -42.305  55.181 -55.759  1.00  0.00     0.066 C 
HETATM   10  H   UNL     1     -41.074  56.290 -52.931  1.00  0.00     0.161 HD
ENDROOT
BRANCH   7  11
HETATM   11  C   UNL     1     -41.640  59.449 -52.561  1.00  0.00     0.257 C 
HETATM   12  N   UNL     1     -42.527  59.958 -51.642  1.00  0.00    -0.352 N 
HETATM   13  H   UNL     1     -43.484  60.075 -51.938  1.00  0.00     0.163 HD
HETATM   14  O   UNL     1     -40.424  59.555 -52.435  1.00  0.00    -0.267 OA
BRANCH  12  15
HETATM   15  C   UNL     1     -42.048  60.757 -50.541  1.00  0.00     0.161 C 
BRANCH  15  16
HETATM   16  C   UNL     1     -43.082  61.758 -50.103  1.00  0.00    -0.041 A 
HETATM   17  C   UNL     1     -44.291  61.322 -49.544  1.00  0.00     0.009 A 
HETATM   18  C   UNL     1     -45.252  62.244 -49.126  1.00  0.00     0.001 A 
HETATM   19  C   UNL     1     -45.018  63.609 -49.275  1.00  0.00     0.000 A 
HETATM   20  C   UNL     1     -43.827  64.054 -49.846  1.00  0.00     0.001 A 
HETATM   21  C   UNL     1     -42.862  63.134 -50.262  1.00  0.00     0.009 A 
ENDBRANCH  15  16
ENDBRANCH  12  15
ENDBRANCH   7  11
BRANCH   1  22
HETATM   22  C   UNL     1     -41.373  53.940 -53.738  1.00  0.00    -0.033 A 
HETATM   23  C   UNL     1     -41.114  53.812 -52.359  1.00  0.00     0.046 A 
HETATM   24  C   UNL     1     -40.332  52.761 -51.871  1.00  0.00     0.068 A 
HETATM   25  C   UNL     1     -39.802  51.833 -52.766  1.00  0.00     0.037 A 
HETATM   26  C   UNL     1     -40.033  51.954 -54.135  1.00  0.00     0.003 A 
HETATM   27  C   UNL     1     -40.808  53.007 -54.620  1.00  0.00     0.009 A 
BRANCH  24  28
HETATM   28  O   UNL     1     -40.021  52.533 -50.559  1.00  0.00    -0.356 OA
HETATM   29  C   UNL     1     -40.138  53.633 -49.664  1.00  0.00     0.210 C 
ENDBRANCH  24  28
ENDBRANCH   1  22
BRANCH   8  30
HETATM   30  C   UNL     1     -43.030  56.633 -57.653  1.00  0.00     0.409 C 
HETATM   31  F   UNL     1     -42.003  57.477 -57.897  1.00  0.00    -0.169 F 
HETATM   32  F   UNL     1     -42.733  55.470 -58.297  1.00  0.00    -0.169 F 
HETATM   33  F   UNL     1     -44.134  57.118 -58.256  1.00  0.00    -0.169 F 
ENDBRANCH   8  30
TORSDOF 6
ENDMDL
MODEL 8
REMARK VINA RESULT:      -8.0      2.240      3.233
REMARK  6 active torsions:
REMARK  status: ('A' for Active; 'I' for Inactive)
REMARK    1  A    between atoms: O_2  and  C_3 
REMARK    2  A    between atoms: C_5  and  C_6 
REMARK    3  A    between atoms: C_12  and  C_13 
REMARK       I    between atoms: C_13  and  N_14 
REMARK    4  A    between atoms: N_14  and  C_15 
REMARK    5  A    between atoms: C_15  and  C_16 
REMARK    6  A    between atoms: C_23  and  C_24 
ROOT
HETATM    1  C   UNL     1     -40.973  57.187 -53.603  1.00  0.00     0.118 C 
HETATM    2  N   UNL     1     -42.147  57.593 -54.367  1.00  0.00    -0.365 N 
HETATM    3  C   UNL     1     -42.593  58.871 -54.277  1.00  0.00     0.138 A 
HETATM    4  N   UNL     1     -42.193  59.660 -53.218  1.00  0.00    -0.240 N 
HETATM    5  N   UNL     1     -42.640  60.921 -53.285  1.00  0.00    -0.181 NA
HETATM    6  C   UNL     1     -43.451  60.901 -54.344  1.00  0.00     0.160 A 
HETATM    7  C   UNL     1     -43.455  59.656 -55.024  1.00  0.00     0.096 A 
HETATM    8  C   UNL     1     -41.274  59.239 -52.172  1.00  0.00     0.221 C 
HETATM    9  C   UNL     1     -41.116  57.706 -52.168  1.00  0.00     0.066 C 
HETATM   10  H   UNL     1     -42.524  56.904 -55.017  1.00  0.00     0.161 HD
ENDROOT
BRANCH   7  11
HETATM   11  C   UNL     1     -44.205  59.379 -56.235  1.00  0.00     0.257 C 
HETATM   12  N   UNL     1     -43.461  59.267 -57.386  1.00  0.00    -0.352 N 
HETATM   13  H   UNL     1     -42.510  59.603 -57.357  1.00  0.00     0.163 HD
HETATM   14  O   UNL     1     -45.430  59.307 -56.231  1.00  0.00    -0.267 OA
BRANCH  12  15
HETATM   15  C   UNL     1     -44.119  59.184 -58.667  1.00  0.00     0.161 C 
BRANCH  15  16
HETATM   16  C   UNL     1     -44.188  57.763 -59.154  1.00  0.00    -0.041 A 
HETATM   17  C   UNL     1     -43.032  56.970 -59.179  1.00  0.00     0.009 A 
HETATM   18  C   UNL     1     -43.088  55.647 -59.621  1.00  0.00     0.001 A 
HETATM   19  C   UNL     1     -44.298  55.109 -60.054  1.00  0.00     0.000 A 
HETATM   20  C   UNL     1     -45.451  55.893 -60.050  1.00  0.00     0.001 A 
HETATM   21  C   UNL     1     -45.397  57.215 -59.605  1.00  0.00     0.009 A 
ENDBRANCH  15  16
ENDBRANCH  12  15
ENDBRANCH   7  11
BRANCH   1  22
HETATM   22  C   UNL     1     -40.791  55.685 -53.686  1.00  0.00    -0.033 A 
HETATM   23  C   UNL     1     -40.970  54.900 -52.530  1.00  0.00     0.046 A 
HETATM   24  C   UNL     1     -40.818  53.511 -52.575  1.00  0.00     0.068 A 
HETATM   25  C   UNL     1     -40.484  52.901 -53.784  1.00  0.00     0.037 A 
HETATM   26  C   UNL     1     -40.285  53.664 -54.933  1.00  0.00     0.003 A 
HETATM   27  C   UNL     1     -40.430  55.049 -54.884  1.00  0.00     0.009 A 
BRANCH  24  28
HETATM   28  O   UNL     1     -40.973  52.651 -51.523  1.00  0.00    -0.356 OA
HETATM   29  C   UNL     1     -40.231  52.931 -50.343  1.00  0.00     0.210 C 
ENDBRANCH  24  28
ENDBRANCH   1  22
BRANCH   8  30
HETATM   30  C   UNL     1     -41.725  59.701 -50.801  1.00  0.00     0.409 C 
HETATM   31  F   UNL     1     -43.046  59.507 -50.596  1.00  0.00    -0.169 F 
HETATM   32  F   UNL     1     -41.077  58.977 -49.846  1.00  0.00    -0.169 F 
HETATM   33  F   UNL     1     -41.438  60.993 -50.543  1.00  0.00    -0.169 F 
ENDBRANCH   8  30
TORSDOF 6
ENDMDL
MODEL 9
REMARK VINA RESULT:      -8.0      5.072      6.712
REMARK  6 active torsions:
REMARK  status: ('A' for Active; 'I' for Inactive)
REMARK    1  A    between atoms: O_2  and  C_3 
REMARK    2  A    between atoms: C_5  and  C_6 
REMARK    3  A    between atoms: C_12  and  C_13 
REMARK       I    between atoms: C_13  and  N_14 
REMARK    4  A    between atoms: N_14  and  C_15 
REMARK    5  A    between atoms: C_15  and  C_16 
REMARK    6  A    between atoms: C_23  and  C_24 
ROOT
HETATM    1  C   UNL     1     -43.052  56.368 -56.297  1.00  0.00     0.118 C 
HETATM    2  N   UNL     1     -42.338  57.567 -56.721  1.00  0.00    -0.365 N 
HETATM    3  C   UNL     1     -42.726  58.212 -57.850  1.00  0.00     0.138 A 
HETATM    4  N   UNL     1     -43.515  57.555 -58.773  1.00  0.00    -0.240 N 
HETATM    5  N   UNL     1     -43.892  58.324 -59.803  1.00  0.00    -0.181 NA
HETATM    6  C   UNL     1     -43.221  59.459 -59.600  1.00  0.00     0.160 A 
HETATM    7  C   UNL     1     -42.487  59.466 -58.387  1.00  0.00     0.096 A 
HETATM    8  C   UNL     1     -44.014  56.198 -58.620  1.00  0.00     0.221 C 
HETATM    9  C   UNL     1     -43.244  55.454 -57.512  1.00  0.00     0.066 C 
HETATM   10  H   UNL     1     -41.627  57.920 -56.081  1.00  0.00     0.161 HD
ENDROOT
BRANCH   7  11
HETATM   11  C   UNL     1     -41.714  60.592 -57.895  1.00  0.00     0.257 C 
HETATM   12  N   UNL     1     -41.426  61.568 -58.819  1.00  0.00    -0.352 N 
HETATM   13  H   UNL     1     -41.561  61.339 -59.792  1.00  0.00     0.163 HD
HETATM   14  O   UNL     1     -41.301  60.633 -56.740  1.00  0.00    -0.267 OA
BRANCH  12  15
HETATM   15  C   UNL     1     -40.507  62.629 -58.487  1.00  0.00     0.161 C 
BRANCH  15  16
HETATM   16  C   UNL     1     -39.776  63.120 -59.706  1.00  0.00    -0.041 A 
HETATM   17  C   UNL     1     -40.153  62.673 -60.980  1.00  0.00     0.009 A 
HETATM   18  C   UNL     1     -39.485  63.129 -62.118  1.00  0.00     0.001 A 
HETATM   19  C   UNL     1     -38.427  64.027 -61.990  1.00  0.00     0.000 A 
HETATM   20  C   UNL     1     -38.032  64.464 -60.728  1.00  0.00     0.001 A 
HETATM   21  C   UNL     1     -38.701  64.012 -59.588  1.00  0.00     0.009 A 
ENDBRANCH  15  16
ENDBRANCH  12  15
ENDBRANCH   7  11
BRANCH   1  22
HETATM   22  C   UNL     1     -42.319  55.703 -55.150  1.00  0.00    -0.033 A 
HETATM   23  C   UNL     1     -42.141  54.305 -55.159  1.00  0.00     0.046 A 
HETATM   24  C   UNL     1     -41.461  53.662 -54.122  1.00  0.00     0.068 A 
HETATM   25  C   UNL     1     -40.956  54.419 -53.065  1.00  0.00     0.037 A 
HETATM   26  C   UNL     1     -41.138  55.801 -53.031  1.00  0.00     0.003 A 
HETATM   27  C   UNL     1     -41.823  56.439 -54.064  1.00  0.00     0.009 A 
BRANCH  24  28
HETATM   28  O   UNL     1     -41.223  52.319 -54.028  1.00  0.00    -0.356 OA
HETATM   29  C   UNL     1     -39.864  51.903 -53.973  1.00  0.00     0.210 C 
ENDBRANCH  24  28
ENDBRANCH   1  22
BRANCH   8  30
HETATM   30  C   UNL     1     -43.923  55.411 -59.911  1.00  0.00     0.409 C 
HETATM   31  F   UNL     1     -44.764  55.875 -60.862  1.00  0.00    -0.169 F 
HETATM   32  F   UNL     1     -42.665  55.525 -60.421  1.00  0.00    -0.169 F 
HETATM   33  F   UNL     1     -44.141  54.089 -59.757  1.00  0.00    -0.169 F 
ENDBRANCH   8  30
TORSDOF 6
ENDMDL
MODEL 10
REMARK VINA RESULT:      -7.9      2.650      3.507
REMARK  6 active torsions:
REMARK  status: ('A' for Active; 'I' for Inactive)
REMARK    1  A    between atoms: O_2  and  C_3 
REMARK    2  A    between atoms: C_5  and  C_6 
REMARK    3  A    between atoms: C_12  and  C_13 
REMARK       I    between atoms: C_13  and  N_14 
REMARK    4  A    between atoms: N_14  and  C_15 
REMARK    5  A    between atoms: C_15  and  C_16 
REMARK    6  A    between atoms: C_23  and  C_24 
ROOT
HETATM    1  C   UNL     1     -41.254  57.296 -52.828  1.00  0.00     0.118 C 
HETATM    2  N   UNL     1     -41.824  57.029 -54.144  1.00  0.00    -0.365 N 
HETATM    3  C   UNL     1     -41.989  58.051 -55.021  1.00  0.00     0.138 A 
HETATM    4  N   UNL     1     -41.978  59.353 -54.561  1.00  0.00    -0.240 N 
HETATM    5  N   UNL     1     -42.073  60.269 -55.533  1.00  0.00    -0.181 NA
HETATM    6  C   UNL     1     -42.281  59.534 -56.627  1.00  0.00     0.160 A 
HETATM    7  C   UNL     1     -42.222  58.138 -56.383  1.00  0.00     0.096 A 
HETATM    8  C   UNL     1     -41.762  59.740 -53.176  1.00  0.00     0.221 C 
HETATM    9  C   UNL     1     -41.941  58.532 -52.236  1.00  0.00     0.066 C 
HETATM   10  H   UNL     1     -41.987  56.050 -54.376  1.00  0.00     0.161 HD
ENDROOT
BRANCH   7  11
HETATM   11  C   UNL     1     -42.358  57.115 -57.403  1.00  0.00     0.257 C 
HETATM   12  N   UNL     1     -42.156  57.531 -58.698  1.00  0.00    -0.352 N 
HETATM   13  H   UNL     1     -42.158  58.525 -58.870  1.00  0.00     0.163 HD
HETATM   14  O   UNL     1     -42.688  55.967 -57.122  1.00  0.00    -0.267 OA
BRANCH  12  15
HETATM   15  C   UNL     1     -42.453  56.645 -59.797  1.00  0.00     0.161 C 
BRANCH  15  16
HETATM   16  C   UNL     1     -43.930  56.600 -60.077  1.00  0.00    -0.041 A 
HETATM   17  C   UNL     1     -44.687  57.780 -60.054  1.00  0.00     0.009 A 
HETATM   18  C   UNL     1     -46.057  57.749 -60.322  1.00  0.00     0.001 A 
HETATM   19  C   UNL     1     -46.684  56.537 -60.602  1.00  0.00     0.000 A 
HETATM   20  C   UNL     1     -45.945  55.355 -60.610  1.00  0.00     0.001 A 
HETATM   21  C   UNL     1     -44.574  55.385 -60.346  1.00  0.00     0.009 A 
ENDBRANCH  15  16
ENDBRANCH  12  15
ENDBRANCH   7  11
BRANCH   1  22
HETATM   22  C   UNL     1     -41.366  56.066 -51.952  1.00  0.00    -0.033 A 
HETATM   23  C   UNL     1     -41.139  56.178 -50.566  1.00  0.00     0.046 A 
HETATM   24  C   UNL     1     -41.244  55.064 -49.729  1.00  0.00     0.068 A 
HETATM   25  C   UNL     1     -41.576  53.826 -50.280  1.00  0.00     0.037 A 
HETATM   26  C   UNL     1     -41.786  53.693 -51.652  1.00  0.00     0.003 A 
HETATM   27  C   UNL     1     -41.675  54.805 -52.485  1.00  0.00     0.009 A 
BRANCH  24  28
HETATM   28  O   UNL     1     -41.053  55.055 -48.375  1.00  0.00    -0.356 OA
HETATM   29  C   UNL     1     -40.326  53.961 -47.830  1.00  0.00     0.210 C 
ENDBRANCH  24  28
ENDBRANCH   1  22
BRANCH   8  30
HETATM   30  C   UNL     1     -42.695  60.854 -52.746  1.00  0.00     0.409 C 
HETATM   31  F   UNL     1     -42.441  62.018 -53.383  1.00  0.00    -0.169 F 
HETATM   32  F   UNL     1     -43.976  60.515 -53.060  1.00  0.00    -0.169 F 
HETATM   33  F   UNL     1     -42.689  61.084 -51.417  1.00  0.00    -0.169 F 
ENDBRANCH   8  30
TORSDOF 6
ENDMDL
