MODEL 1
REMARK VINA RESULT:      -9.1      0.000      0.000
REMARK  5 active torsions:
REMARK  status: ('A' for Active; 'I' for Inactive)
REMARK    1  A    between atoms: C_5  and  C_6 
REMARK    2  A    between atoms: C_11  and  C_12 
REMARK       I    between atoms: C_12  and  N_13 
REMARK    3  A    between atoms: N_13  and  C_14 
REMARK    4  A    between atoms: C_16  and  O_17 
REMARK    5  A    between atoms: C_23  and  C_24 
ROOT
HETATM    1  C   UNL     1     -41.317  54.859 -53.038  1.00  0.00     0.118 C 
HETATM    2  N   UNL     1     -41.109  55.483 -54.345  1.00  0.00    -0.366 N 
HETATM    3  C   UNL     1     -42.061  56.208 -54.965  1.00  0.00     0.123 A 
HETATM    4  N   UNL     1     -43.221  56.544 -54.329  1.00  0.00    -0.240 N 
HETATM    5  N   UNL     1     -44.136  57.128 -55.124  1.00  0.00    -0.165 NA
HETATM    6  C   UNL     1     -43.468  57.291 -56.292  1.00  0.00     0.148 A 
HETATM    7  C   UNL     1     -42.157  56.741 -56.221  1.00  0.00     0.089 A 
HETATM    8  C   UNL     1     -43.500  56.189 -52.952  1.00  0.00     0.221 C 
HETATM    9  C   UNL     1     -42.807  54.857 -52.632  1.00  0.00     0.066 C 
HETATM   10  H   UNL     1     -40.236  55.239 -54.812  1.00  0.00     0.161 HD
ENDROOT
BRANCH   6  11
HETATM   11  C   UNL     1     -44.092  57.929 -57.466  1.00  0.00     0.276 C 
HETATM   12  N   UNL     1     -45.205  57.232 -57.894  1.00  0.00    -0.322 N 
HETATM   13  H   UNL     1     -45.393  56.397 -57.344  1.00  0.00     0.169 HD
HETATM   14  O   UNL     1     -43.619  58.939 -57.975  1.00  0.00    -0.266 OA
BRANCH  12  15
HETATM   15  C   UNL     1     -46.053  57.519 -58.976  1.00  0.00     0.037 A 
HETATM   16  C   UNL     1     -46.278  56.640 -60.038  1.00  0.00     0.066 A 
HETATM   17  C   UNL     1     -47.131  57.013 -61.076  1.00  0.00     0.067 A 
HETATM   18  C   UNL     1     -47.773  58.245 -61.070  1.00  0.00     0.036 A 
HETATM   19  C   UNL     1     -47.556  59.125 -60.013  1.00  0.00     0.005 A 
HETATM   20  C   UNL     1     -46.695  58.765 -58.972  1.00  0.00     0.029 A 
BRANCH  17  21
HETATM   21  O   UNL     1     -47.361  56.183 -62.135  1.00  0.00    -0.361 OA
HETATM   22  H   UNL     1     -48.003  55.508 -61.860  1.00  0.00     0.217 HD
ENDBRANCH  17  21
ENDBRANCH  12  15
ENDBRANCH   6  11
BRANCH   8  23
HETATM   23  C   UNL     1     -43.071  57.310 -52.032  1.00  0.00     0.409 C 
HETATM   24  F   UNL     1     -44.074  58.178 -51.778  1.00  0.00    -0.169 F 
HETATM   25  F   UNL     1     -42.693  56.796 -50.832  1.00  0.00    -0.169 F 
HETATM   26  F   UNL     1     -42.020  58.016 -52.495  1.00  0.00    -0.169 F 
ENDBRANCH   8  23
BRANCH   1  27
HETATM   27  C   UNL     1     -40.768  53.443 -53.078  1.00  0.00    -0.035 A 
HETATM   28  C   UNL     1     -40.188  52.870 -51.938  1.00  0.00     0.010 A 
HETATM   29  C   UNL     1     -39.689  51.563 -51.976  1.00  0.00     0.007 A 
HETATM   30  C   UNL     1     -39.752  50.809 -53.153  1.00  0.00    -0.062 A 
HETATM   31  C   UNL     1     -39.247  49.397 -53.190  1.00  0.00     0.048 C 
HETATM   32  C   UNL     1     -40.339  51.373 -54.289  1.00  0.00     0.007 A 
HETATM   33  C   UNL     1     -40.834  52.676 -54.254  1.00  0.00     0.010 A 
ENDBRANCH   1  27
TORSDOF 5
ENDMDL
MODEL 2
REMARK VINA RESULT:      -8.8      5.104      9.350
REMARK  5 active torsions:
REMARK  status: ('A' for Active; 'I' for Inactive)
REMARK    1  A    between atoms: C_5  and  C_6 
REMARK    2  A    between atoms: C_11  and  C_12 
REMARK       I    between atoms: C_12  and  N_13 
REMARK    3  A    between atoms: N_13  and  C_14 
REMARK    4  A    between atoms: C_16  and  O_17 
REMARK    5  A    between atoms: C_23  and  C_24 
ROOT
HETATM    1  C   UNL     1     -42.538  60.459 -51.387  1.00  0.00     0.118 C 
HETATM    2  N   UNL     1     -41.865  59.351 -50.711  1.00  0.00    -0.366 N 
HETATM    3  C   UNL     1     -41.875  58.092 -51.190  1.00  0.00     0.123 A 
HETATM    4  N   UNL     1     -42.377  57.810 -52.428  1.00  0.00    -0.240 N 
HETATM    5  N   UNL     1     -42.465  56.496 -52.700  1.00  0.00    -0.165 NA
HETATM    6  C   UNL     1     -41.864  55.919 -51.630  1.00  0.00     0.148 A 
HETATM    7  C   UNL     1     -41.466  56.893 -50.672  1.00  0.00     0.089 A 
HETATM    8  C   UNL     1     -42.890  58.826 -53.324  1.00  0.00     0.221 C 
HETATM    9  C   UNL     1     -43.499  59.962 -52.489  1.00  0.00     0.066 C 
HETATM   10  H   UNL     1     -41.482  59.568 -49.791  1.00  0.00     0.161 HD
ENDROOT
BRANCH   6  11
HETATM   11  C   UNL     1     -41.710  54.457 -51.515  1.00  0.00     0.276 C 
HETATM   12  N   UNL     1     -40.797  53.967 -52.429  1.00  0.00    -0.322 N 
HETATM   13  H   UNL     1     -40.405  54.687 -53.032  1.00  0.00     0.169 HD
HETATM   14  O   UNL     1     -42.360  53.805 -50.706  1.00  0.00    -0.266 OA
BRANCH  12  15
HETATM   15  C   UNL     1     -40.391  52.638 -52.632  1.00  0.00     0.037 A 
HETATM   16  C   UNL     1     -39.901  51.813 -51.617  1.00  0.00     0.066 A 
HETATM   17  C   UNL     1     -39.512  50.508 -51.913  1.00  0.00     0.067 A 
HETATM   18  C   UNL     1     -39.611  50.004 -53.205  1.00  0.00     0.036 A 
HETATM   19  C   UNL     1     -40.102  50.819 -54.221  1.00  0.00     0.005 A 
HETATM   20  C   UNL     1     -40.486  52.133 -53.937  1.00  0.00     0.029 A 
BRANCH  17  21
HETATM   21  O   UNL     1     -39.016  49.681 -50.947  1.00  0.00    -0.361 OA
HETATM   22  H   UNL     1     -39.341  49.989 -50.085  1.00  0.00     0.217 HD
ENDBRANCH  17  21
ENDBRANCH  12  15
ENDBRANCH   6  11
BRANCH   8  23
HETATM   23  C   UNL     1     -41.794  59.301 -54.250  1.00  0.00     0.409 C 
HETATM   24  F   UNL     1     -40.564  59.140 -53.715  1.00  0.00    -0.169 F 
HETATM   25  F   UNL     1     -41.814  58.569 -55.394  1.00  0.00    -0.169 F 
HETATM   26  F   UNL     1     -41.919  60.593 -54.618  1.00  0.00    -0.169 F 
ENDBRANCH   8  23
BRANCH   1  27
HETATM   27  C   UNL     1     -43.287  61.282 -50.353  1.00  0.00    -0.035 A 
HETATM   28  C   UNL     1     -44.216  60.678 -49.495  1.00  0.00     0.010 A 
HETATM   29  C   UNL     1     -44.900  61.437 -48.539  1.00  0.00     0.007 A 
HETATM   30  C   UNL     1     -44.676  62.814 -48.428  1.00  0.00    -0.062 A 
HETATM   31  C   UNL     1     -45.382  63.627 -47.384  1.00  0.00     0.048 C 
HETATM   32  C   UNL     1     -43.743  63.420 -49.274  1.00  0.00     0.007 A 
HETATM   33  C   UNL     1     -43.063  62.664 -50.230  1.00  0.00     0.010 A 
ENDBRANCH   1  27
TORSDOF 5
ENDMDL
MODEL 3
REMARK VINA RESULT:      -8.7      4.552      7.498
REMARK  5 active torsions:
REMARK  status: ('A' for Active; 'I' for Inactive)
REMARK    1  A    between atoms: C_5  and  C_6 
REMARK    2  A    between atoms: C_11  and  C_12 
REMARK       I    between atoms: C_12  and  N_13 
REMARK    3  A    between atoms: N_13  and  C_14 
REMARK    4  A    between atoms: C_16  and  O_17 
REMARK    5  A    between atoms: C_23  and  C_24 
ROOT
HETATM    1  C   UNL     1     -41.972  55.029 -53.505  1.00  0.00     0.118 C 
HETATM    2  N   UNL     1     -43.159  55.279 -52.688  1.00  0.00    -0.366 N 
HETATM    3  C   UNL     1     -43.514  56.514 -52.278  1.00  0.00     0.123 A 
HETATM    4  N   UNL     1     -42.874  57.625 -52.745  1.00  0.00    -0.240 N 
HETATM    5  N   UNL     1     -43.230  58.766 -52.128  1.00  0.00    -0.165 NA
HETATM    6  C   UNL     1     -44.245  58.373 -51.319  1.00  0.00     0.148 A 
HETATM    7  C   UNL     1     -44.460  56.969 -51.402  1.00  0.00     0.089 A 
HETATM    8  C   UNL     1     -41.811  57.572 -53.730  1.00  0.00     0.221 C 
HETATM    9  C   UNL     1     -41.037  56.258 -53.554  1.00  0.00     0.066 C 
HETATM   10  H   UNL     1     -43.641  54.447 -52.349  1.00  0.00     0.161 HD
ENDROOT
BRANCH   6  11
HETATM   11  C   UNL     1     -44.967  59.325 -50.455  1.00  0.00     0.276 C 
HETATM   12  N   UNL     1     -44.117  60.269 -49.913  1.00  0.00    -0.322 N 
HETATM   13  H   UNL     1     -43.144  60.138 -50.185  1.00  0.00     0.169 HD
HETATM   14  O   UNL     1     -46.172  59.224 -50.256  1.00  0.00    -0.266 OA
BRANCH  12  15
HETATM   15  C   UNL     1     -44.425  61.326 -49.042  1.00  0.00     0.037 A 
HETATM   16  C   UNL     1     -44.886  61.145 -47.736  1.00  0.00     0.066 A 
HETATM   17  C   UNL     1     -45.176  62.256 -46.945  1.00  0.00     0.067 A 
HETATM   18  C   UNL     1     -45.007  63.547 -47.428  1.00  0.00     0.036 A 
HETATM   19  C   UNL     1     -44.544  63.735 -48.728  1.00  0.00     0.005 A 
HETATM   20  C   UNL     1     -44.260  62.629 -49.533  1.00  0.00     0.029 A 
BRANCH  17  21
HETATM   21  O   UNL     1     -45.642  62.113 -45.670  1.00  0.00    -0.361 OA
HETATM   22  H   UNL     1     -45.967  62.976 -45.364  1.00  0.00     0.217 HD
ENDBRANCH  17  21
ENDBRANCH  12  15
ENDBRANCH   6  11
BRANCH   8  23
HETATM   23  C   UNL     1     -42.385  57.734 -55.119  1.00  0.00     0.409 C 
HETATM   24  F   UNL     1     -43.728  57.590 -55.140  1.00  0.00    -0.169 F 
HETATM   25  F   UNL     1     -42.125  58.987 -55.576  1.00  0.00    -0.169 F 
HETATM   26  F   UNL     1     -41.864  56.879 -56.022  1.00  0.00    -0.169 F 
ENDBRANCH   8  23
BRANCH   1  27
HETATM   27  C   UNL     1     -41.240  53.819 -52.949  1.00  0.00    -0.035 A 
HETATM   28  C   UNL     1     -41.101  53.642 -51.566  1.00  0.00     0.010 A 
HETATM   29  C   UNL     1     -40.432  52.523 -51.057  1.00  0.00     0.007 A 
HETATM   30  C   UNL     1     -39.882  51.567 -51.917  1.00  0.00    -0.062 A 
HETATM   31  C   UNL     1     -39.192  50.351 -51.376  1.00  0.00     0.048 C 
HETATM   32  C   UNL     1     -40.028  51.734 -53.298  1.00  0.00     0.007 A 
HETATM   33  C   UNL     1     -40.692  52.850 -53.807  1.00  0.00     0.010 A 
ENDBRANCH   1  27
TORSDOF 5
ENDMDL
MODEL 4
REMARK VINA RESULT:      -8.6      5.029      9.218
REMARK  5 active torsions:
REMARK  status: ('A' for Active; 'I' for Inactive)
REMARK    1  A    between atoms: C_5  and  C_6 
REMARK    2  A    between atoms: C_11  and  C_12 
REMARK       I    between atoms: C_12  and  N_13 
REMARK    3  A    between atoms: N_13  and  C_14 
REMARK    4  A    between atoms: C_16  and  O_17 
REMARK    5  A    between atoms: C_23  and  C_24 
ROOT
HETATM    1  C   UNL     1     -43.021  59.886 -51.044  1.00  0.00     0.118 C 
HETATM    2  N   UNL     1     -43.388  58.481 -50.870  1.00  0.00    -0.366 N 
HETATM    3  C   UNL     1     -42.739  57.477 -51.494  1.00  0.00     0.123 A 
HETATM    4  N   UNL     1     -41.591  57.705 -52.196  1.00  0.00    -0.240 N 
HETATM    5  N   UNL     1     -41.151  56.641 -52.891  1.00  0.00    -0.165 NA
HETATM    6  C   UNL     1     -41.991  55.651 -52.502  1.00  0.00     0.148 A 
HETATM    7  C   UNL     1     -42.989  56.137 -51.612  1.00  0.00     0.089 A 
HETATM    8  C   UNL     1     -40.968  59.009 -52.292  1.00  0.00     0.221 C 
HETATM    9  C   UNL     1     -42.060  60.087 -52.236  1.00  0.00     0.066 C 
HETATM   10  H   UNL     1     -44.240  58.314 -50.336  1.00  0.00     0.161 HD
ENDROOT
BRANCH   6  11
HETATM   11  C   UNL     1     -41.860  54.272 -53.007  1.00  0.00     0.276 C 
HETATM   12  N   UNL     1     -40.788  53.617 -52.432  1.00  0.00    -0.322 N 
HETATM   13  H   UNL     1     -40.267  54.197 -51.777  1.00  0.00     0.169 HD
HETATM   14  O   UNL     1     -42.622  53.824 -53.857  1.00  0.00    -0.266 OA
BRANCH  12  15
HETATM   15  C   UNL     1     -40.338  52.307 -52.661  1.00  0.00     0.037 A 
HETATM   16  C   UNL     1     -39.907  51.447 -51.648  1.00  0.00     0.066 A 
HETATM   17  C   UNL     1     -39.468  50.164 -51.970  1.00  0.00     0.067 A 
HETATM   18  C   UNL     1     -39.457  49.717 -53.286  1.00  0.00     0.036 A 
HETATM   19  C   UNL     1     -39.888  50.568 -54.300  1.00  0.00     0.005 A 
HETATM   20  C   UNL     1     -40.322  51.860 -53.989  1.00  0.00     0.029 A 
BRANCH  17  21
HETATM   21  O   UNL     1     -39.027  49.304 -51.006  1.00  0.00    -0.361 OA
HETATM   22  H   UNL     1     -39.392  49.591 -50.151  1.00  0.00     0.217 HD
ENDBRANCH  17  21
ENDBRANCH  12  15
ENDBRANCH   6  11
BRANCH   8  23
HETATM   23  C   UNL     1     -39.931  59.168 -51.203  1.00  0.00     0.409 C 
HETATM   24  F   UNL     1     -39.857  58.082 -50.402  1.00  0.00    -0.169 F 
HETATM   25  F   UNL     1     -38.701  59.318 -51.762  1.00  0.00    -0.169 F 
HETATM   26  F   UNL     1     -40.130  60.247 -50.419  1.00  0.00    -0.169 F 
ENDBRANCH   8  23
BRANCH   1  27
HETATM   27  C   UNL     1     -44.287  60.704 -51.231  1.00  0.00    -0.035 A 
HETATM   28  C   UNL     1     -45.325  60.237 -52.050  1.00  0.00     0.010 A 
HETATM   29  C   UNL     1     -46.493  60.989 -52.216  1.00  0.00     0.007 A 
HETATM   30  C   UNL     1     -46.643  62.224 -51.576  1.00  0.00    -0.062 A 
HETATM   31  C   UNL     1     -47.906  63.020 -51.725  1.00  0.00     0.048 C 
HETATM   32  C   UNL     1     -45.616  62.689 -50.750  1.00  0.00     0.007 A 
HETATM   33  C   UNL     1     -44.450  61.942 -50.586  1.00  0.00     0.010 A 
ENDBRANCH   1  27
TORSDOF 5
ENDMDL
MODEL 5
REMARK VINA RESULT:      -8.3      2.892      4.403
REMARK  5 active torsions:
REMARK  status: ('A' for Active; 'I' for Inactive)
REMARK    1  A    between atoms: C_5  and  C_6 
REMARK    2  A    between atoms: C_11  and  C_12 
REMARK       I    between atoms: C_12  and  N_13 
REMARK    3  A    between atoms: N_13  and  C_14 
REMARK    4  A    between atoms: C_16  and  O_17 
REMARK    5  A    between atoms: C_23  and  C_24 
ROOT
HETATM    1  C   UNL     1     -42.301  56.443 -53.636  1.00  0.00     0.118 C 
HETATM    2  N   UNL     1     -43.309  57.276 -54.292  1.00  0.00    -0.366 N 
HETATM    3  C   UNL     1     -43.622  57.149 -55.596  1.00  0.00     0.123 A 
HETATM    4  N   UNL     1     -43.132  56.118 -56.344  1.00  0.00    -0.240 N 
HETATM    5  N   UNL     1     -43.401  56.214 -57.659  1.00  0.00    -0.165 NA
HETATM    6  C   UNL     1     -44.217  57.295 -57.726  1.00  0.00     0.148 A 
HETATM    7  C   UNL     1     -44.390  57.895 -56.448  1.00  0.00     0.089 A 
HETATM    8  C   UNL     1     -42.287  55.075 -55.797  1.00  0.00     0.221 C 
HETATM    9  C   UNL     1     -41.443  55.665 -54.659  1.00  0.00     0.066 C 
HETATM   10  H   UNL     1     -43.680  58.040 -53.727  1.00  0.00     0.161 HD
ENDROOT
BRANCH   6  11
HETATM   11  C   UNL     1     -44.788  57.763 -59.003  1.00  0.00     0.276 C 
HETATM   12  N   UNL     1     -46.117  57.409 -59.128  1.00  0.00    -0.322 N 
HETATM   13  H   UNL     1     -46.468  56.875 -58.335  1.00  0.00     0.169 HD
HETATM   14  O   UNL     1     -44.109  58.366 -59.827  1.00  0.00    -0.266 OA
BRANCH  12  15
HETATM   15  C   UNL     1     -46.993  57.664 -60.195  1.00  0.00     0.037 A 
HETATM   16  C   UNL     1     -47.403  56.693 -61.111  1.00  0.00     0.066 A 
HETATM   17  C   UNL     1     -48.270  57.041 -62.147  1.00  0.00     0.067 A 
HETATM   18  C   UNL     1     -48.745  58.340 -62.281  1.00  0.00     0.036 A 
HETATM   19  C   UNL     1     -48.343  59.312 -61.369  1.00  0.00     0.005 A 
HETATM   20  C   UNL     1     -47.467  58.977 -60.334  1.00  0.00     0.029 A 
BRANCH  17  21
HETATM   21  O   UNL     1     -48.678  56.119 -63.066  1.00  0.00    -0.361 OA
HETATM   22  H   UNL     1     -49.290  56.553 -63.684  1.00  0.00     0.217 HD
ENDBRANCH  17  21
ENDBRANCH  12  15
ENDBRANCH   6  11
BRANCH   8  23
HETATM   23  C   UNL     1     -43.134  53.904 -55.354  1.00  0.00     0.409 C 
HETATM   24  F   UNL     1     -43.729  53.277 -56.392  1.00  0.00    -0.169 F 
HETATM   25  F   UNL     1     -42.348  52.978 -54.744  1.00  0.00    -0.169 F 
HETATM   26  F   UNL     1     -44.094  54.236 -54.467  1.00  0.00    -0.169 F 
ENDBRANCH   8  23
BRANCH   1  27
HETATM   27  C   UNL     1     -41.426  57.327 -52.764  1.00  0.00    -0.035 A 
HETATM   28  C   UNL     1     -40.571  58.277 -53.339  1.00  0.00     0.010 A 
HETATM   29  C   UNL     1     -39.771  59.093 -52.532  1.00  0.00     0.007 A 
HETATM   30  C   UNL     1     -39.803  58.971 -51.139  1.00  0.00    -0.062 A 
HETATM   31  C   UNL     1     -38.972  59.866 -50.268  1.00  0.00     0.048 C 
HETATM   32  C   UNL     1     -40.662  58.032 -50.560  1.00  0.00     0.007 A 
HETATM   33  C   UNL     1     -41.458  57.215 -51.363  1.00  0.00     0.010 A 
ENDBRANCH   1  27
TORSDOF 5
ENDMDL
MODEL 6
REMARK VINA RESULT:      -8.1     16.480     18.611
REMARK  5 active torsions:
REMARK  status: ('A' for Active; 'I' for Inactive)
REMARK    1  A    between atoms: C_5  and  C_6 
REMARK    2  A    between atoms: C_11  and  C_12 
REMARK       I    between atoms: C_12  and  N_13 
REMARK    3  A    between atoms: N_13  and  C_14 
REMARK    4  A    between atoms: C_16  and  O_17 
REMARK    5  A    between atoms: C_23  and  C_24 
ROOT
HETATM    1  C   UNL     1     -36.293  41.395 -54.014  1.00  0.00     0.118 C 
HETATM    2  N   UNL     1     -37.590  41.320 -53.341  1.00  0.00    -0.366 N 
HETATM    3  C   UNL     1     -37.860  40.413 -52.382  1.00  0.00     0.123 A 
HETATM    4  N   UNL     1     -36.880  39.616 -51.865  1.00  0.00    -0.240 N 
HETATM    5  N   UNL     1     -37.330  38.656 -51.037  1.00  0.00    -0.165 NA
HETATM    6  C   UNL     1     -38.649  38.945 -50.920  1.00  0.00     0.148 A 
HETATM    7  C   UNL     1     -39.012  40.052 -51.737  1.00  0.00     0.089 A 
HETATM    8  C   UNL     1     -35.491  39.708 -52.268  1.00  0.00     0.221 C 
HETATM    9  C   UNL     1     -35.428  40.146 -53.738  1.00  0.00     0.066 C 
HETATM   10  H   UNL     1     -38.317  41.925 -53.722  1.00  0.00     0.161 HD
ENDROOT
BRANCH   6  11
HETATM   11  C   UNL     1     -39.550  38.147 -50.069  1.00  0.00     0.276 C 
HETATM   12  N   UNL     1     -40.762  38.781 -49.873  1.00  0.00    -0.322 N 
HETATM   13  H   UNL     1     -40.819  39.689 -50.329  1.00  0.00     0.169 HD
HETATM   14  O   UNL     1     -39.202  37.070 -49.597  1.00  0.00    -0.266 OA
BRANCH  12  15
HETATM   15  C   UNL     1     -41.865  38.346 -49.121  1.00  0.00     0.037 A 
HETATM   16  C   UNL     1     -43.093  37.989 -49.682  1.00  0.00     0.066 A 
HETATM   17  C   UNL     1     -44.138  37.577 -48.855  1.00  0.00     0.067 A 
HETATM   18  C   UNL     1     -43.978  37.505 -47.477  1.00  0.00     0.036 A 
HETATM   19  C   UNL     1     -42.755  37.856 -46.911  1.00  0.00     0.005 A 
HETATM   20  C   UNL     1     -41.704  38.280 -47.730  1.00  0.00     0.029 A 
BRANCH  17  21
HETATM   21  O   UNL     1     -45.354  37.235 -49.371  1.00  0.00    -0.361 OA
HETATM   22  H   UNL     1     -45.640  36.404 -48.956  1.00  0.00     0.217 HD
ENDBRANCH  17  21
ENDBRANCH  12  15
ENDBRANCH   6  11
BRANCH   8  23
HETATM   23  C   UNL     1     -34.746  40.644 -51.344  1.00  0.00     0.409 C 
HETATM   24  F   UNL     1     -35.566  41.531 -50.740  1.00  0.00    -0.169 F 
HETATM   25  F   UNL     1     -34.154  39.930 -50.350  1.00  0.00    -0.169 F 
HETATM   26  F   UNL     1     -33.763  41.338 -51.954  1.00  0.00    -0.169 F 
ENDBRANCH   8  23
BRANCH   1  27
HETATM   27  C   UNL     1     -36.525  41.569 -55.505  1.00  0.00    -0.035 A 
HETATM   28  C   UNL     1     -37.740  41.185 -56.089  1.00  0.00     0.010 A 
HETATM   29  C   UNL     1     -37.953  41.352 -57.462  1.00  0.00     0.007 A 
HETATM   30  C   UNL     1     -36.955  41.896 -58.278  1.00  0.00    -0.062 A 
HETATM   31  C   UNL     1     -37.190  42.107 -59.744  1.00  0.00     0.048 C 
HETATM   32  C   UNL     1     -35.745  42.291 -57.699  1.00  0.00     0.007 A 
HETATM   33  C   UNL     1     -35.531  42.122 -56.331  1.00  0.00     0.010 A 
ENDBRANCH   1  27
TORSDOF 5
ENDMDL
MODEL 7
REMARK VINA RESULT:      -8.1      1.960      2.192
REMARK  5 active torsions:
REMARK  status: ('A' for Active; 'I' for Inactive)
REMARK    1  A    between atoms: C_5  and  C_6 
REMARK    2  A    between atoms: C_11  and  C_12 
REMARK       I    between atoms: C_12  and  N_13 
REMARK    3  A    between atoms: N_13  and  C_14 
REMARK    4  A    between atoms: C_16  and  O_17 
REMARK    5  A    between atoms: C_23  and  C_24 
ROOT
HETATM    1  C   UNL     1     -41.319  54.999 -52.909  1.00  0.00     0.118 C 
HETATM    2  N   UNL     1     -41.201  55.681 -54.198  1.00  0.00    -0.366 N 
HETATM    3  C   UNL     1     -42.190  56.436 -54.715  1.00  0.00     0.123 A 
HETATM    4  N   UNL     1     -43.300  56.746 -53.984  1.00  0.00    -0.240 N 
HETATM    5  N   UNL     1     -44.265  57.368 -54.684  1.00  0.00    -0.165 NA
HETATM    6  C   UNL     1     -43.681  57.582 -55.889  1.00  0.00     0.148 A 
HETATM    7  C   UNL     1     -42.372  57.025 -55.937  1.00  0.00     0.089 A 
HETATM    8  C   UNL     1     -43.483  56.330 -52.608  1.00  0.00     0.221 C 
HETATM    9  C   UNL     1     -42.777  54.982 -52.399  1.00  0.00     0.066 C 
HETATM   10  H   UNL     1     -40.365  55.456 -54.737  1.00  0.00     0.161 HD
ENDROOT
BRANCH   6  11
HETATM   11  C   UNL     1     -44.383  58.274 -56.985  1.00  0.00     0.276 C 
HETATM   12  N   UNL     1     -43.572  59.206 -57.603  1.00  0.00    -0.322 N 
HETATM   13  H   UNL     1     -42.643  59.268 -57.190  1.00  0.00     0.169 HD
HETATM   14  O   UNL     1     -45.555  58.031 -57.252  1.00  0.00    -0.266 OA
BRANCH  12  15
HETATM   15  C   UNL     1     -43.880  60.062 -58.672  1.00  0.00     0.037 A 
HETATM   16  C   UNL     1     -44.057  59.628 -59.988  1.00  0.00     0.066 A 
HETATM   17  C   UNL     1     -44.353  60.553 -60.988  1.00  0.00     0.067 A 
HETATM   18  C   UNL     1     -44.485  61.905 -60.700  1.00  0.00     0.036 A 
HETATM   19  C   UNL     1     -44.314  62.345 -59.390  1.00  0.00     0.005 A 
HETATM   20  C   UNL     1     -44.007  61.428 -58.381  1.00  0.00     0.029 A 
BRANCH  17  21
HETATM   21  O   UNL     1     -44.518  60.162 -62.286  1.00  0.00    -0.361 OA
HETATM   22  H   UNL     1     -43.640  60.001 -62.670  1.00  0.00     0.217 HD
ENDBRANCH  17  21
ENDBRANCH  12  15
ENDBRANCH   6  11
BRANCH   8  23
HETATM   23  C   UNL     1     -42.982  57.406 -51.672  1.00  0.00     0.409 C 
HETATM   24  F   UNL     1     -43.972  58.228 -51.259  1.00  0.00    -0.169 F 
HETATM   25  F   UNL     1     -42.466  56.833 -50.553  1.00  0.00    -0.169 F 
HETATM   26  F   UNL     1     -42.004  58.169 -52.199  1.00  0.00    -0.169 F 
ENDBRANCH   8  23
BRANCH   1  27
HETATM   27  C   UNL     1     -40.783  53.585 -53.052  1.00  0.00    -0.035 A 
HETATM   28  C   UNL     1     -40.146  52.951 -51.977  1.00  0.00     0.010 A 
HETATM   29  C   UNL     1     -39.658  51.646 -52.110  1.00  0.00     0.007 A 
HETATM   30  C   UNL     1     -39.791  50.954 -53.318  1.00  0.00    -0.062 A 
HETATM   31  C   UNL     1     -39.299  49.543 -53.456  1.00  0.00     0.048 C 
HETATM   32  C   UNL     1     -40.436  51.578 -54.390  1.00  0.00     0.007 A 
HETATM   33  C   UNL     1     -40.919  52.880 -54.261  1.00  0.00     0.010 A 
ENDBRANCH   1  27
TORSDOF 5
ENDMDL
MODEL 8
REMARK VINA RESULT:      -8.0      3.597      9.554
REMARK  5 active torsions:
REMARK  status: ('A' for Active; 'I' for Inactive)
REMARK    1  A    between atoms: C_5  and  C_6 
REMARK    2  A    between atoms: C_11  and  C_12 
REMARK       I    between atoms: C_12  and  N_13 
REMARK    3  A    between atoms: N_13  and  C_14 
REMARK    4  A    between atoms: C_16  and  O_17 
REMARK    5  A    between atoms: C_23  and  C_24 
ROOT
HETATM    1  C   UNL     1     -44.791  58.728 -58.922  1.00  0.00     0.118 C 
HETATM    2  N   UNL     1     -44.507  58.578 -57.495  1.00  0.00    -0.366 N 
HETATM    3  C   UNL     1     -43.927  57.476 -56.980  1.00  0.00     0.123 A 
HETATM    4  N   UNL     1     -43.417  56.501 -57.789  1.00  0.00    -0.240 N 
HETATM    5  N   UNL     1     -43.017  55.396 -57.135  1.00  0.00    -0.165 NA
HETATM    6  C   UNL     1     -43.159  55.742 -55.832  1.00  0.00     0.148 A 
HETATM    7  C   UNL     1     -43.711  57.047 -55.699  1.00  0.00     0.089 A 
HETATM    8  C   UNL     1     -43.421  56.591 -59.235  1.00  0.00     0.221 C 
HETATM    9  C   UNL     1     -44.655  57.389 -59.680  1.00  0.00     0.066 C 
HETATM   10  H   UNL     1     -44.880  59.313 -56.895  1.00  0.00     0.161 HD
ENDROOT
BRANCH   6  11
HETATM   11  C   UNL     1     -42.807  54.821 -54.736  1.00  0.00     0.276 C 
HETATM   12  N   UNL     1     -41.550  54.275 -54.912  1.00  0.00    -0.322 N 
HETATM   13  H   UNL     1     -41.094  54.585 -55.768  1.00  0.00     0.169 HD
HETATM   14  O   UNL     1     -43.586  54.584 -53.820  1.00  0.00    -0.266 OA
BRANCH  12  15
HETATM   15  C   UNL     1     -40.873  53.357 -54.094  1.00  0.00     0.037 A 
HETATM   16  C   UNL     1     -40.422  52.111 -54.536  1.00  0.00     0.066 A 
HETATM   17  C   UNL     1     -39.765  51.259 -53.650  1.00  0.00     0.067 A 
HETATM   18  C   UNL     1     -39.541  51.629 -52.329  1.00  0.00     0.036 A 
HETATM   19  C   UNL     1     -39.985  52.871 -51.883  1.00  0.00     0.005 A 
HETATM   20  C   UNL     1     -40.653  53.729 -52.761  1.00  0.00     0.029 A 
BRANCH  17  21
HETATM   21  O   UNL     1     -39.325  50.029 -54.046  1.00  0.00    -0.361 OA
HETATM   22  H   UNL     1     -38.651  49.727 -53.414  1.00  0.00     0.217 HD
ENDBRANCH  17  21
ENDBRANCH  12  15
ENDBRANCH   6  11
BRANCH   8  23
HETATM   23  C   UNL     1     -42.124  57.197 -59.719  1.00  0.00     0.409 C 
HETATM   24  F   UNL     1     -41.284  56.272 -60.234  1.00  0.00    -0.169 F 
HETATM   25  F   UNL     1     -42.379  58.083 -60.718  1.00  0.00    -0.169 F 
HETATM   26  F   UNL     1     -41.455  57.876 -58.765  1.00  0.00    -0.169 F 
ENDBRANCH   8  23
BRANCH   1  27
HETATM   27  C   UNL     1     -46.189  59.299 -59.087  1.00  0.00    -0.035 A 
HETATM   28  C   UNL     1     -46.743  59.474 -60.362  1.00  0.00     0.010 A 
HETATM   29  C   UNL     1     -48.034  59.995 -60.510  1.00  0.00     0.007 A 
HETATM   30  C   UNL     1     -48.790  60.358 -59.390  1.00  0.00    -0.062 A 
HETATM   31  C   UNL     1     -50.185  60.887 -59.542  1.00  0.00     0.048 C 
HETATM   32  C   UNL     1     -48.245  60.175 -58.115  1.00  0.00     0.007 A 
HETATM   33  C   UNL     1     -46.957  59.659 -57.967  1.00  0.00     0.010 A 
ENDBRANCH   1  27
TORSDOF 5
ENDMDL
MODEL 9
REMARK VINA RESULT:      -7.7      2.901      3.364
REMARK  5 active torsions:
REMARK  status: ('A' for Active; 'I' for Inactive)
REMARK    1  A    between atoms: C_5  and  C_6 
REMARK    2  A    between atoms: C_11  and  C_12 
REMARK       I    between atoms: C_12  and  N_13 
REMARK    3  A    between atoms: N_13  and  C_14 
REMARK    4  A    between atoms: C_16  and  O_17 
REMARK    5  A    between atoms: C_23  and  C_24 
ROOT
HETATM    1  C   UNL     1     -42.192  56.082 -54.084  1.00  0.00     0.118 C 
HETATM    2  N   UNL     1     -41.698  56.583 -55.367  1.00  0.00    -0.366 N 
HETATM    3  C   UNL     1     -42.515  57.073 -56.320  1.00  0.00     0.123 A 
HETATM    4  N   UNL     1     -43.841  57.286 -56.075  1.00  0.00    -0.240 N 
HETATM    5  N   UNL     1     -44.555  57.624 -57.163  1.00  0.00    -0.165 NA
HETATM    6  C   UNL     1     -43.606  57.763 -58.122  1.00  0.00     0.148 A 
HETATM    7  C   UNL     1     -42.313  57.441 -57.622  1.00  0.00     0.089 A 
HETATM    8  C   UNL     1     -44.456  57.045 -54.785  1.00  0.00     0.221 C 
HETATM    9  C   UNL     1     -43.724  55.885 -54.095  1.00  0.00     0.066 C 
HETATM   10  H   UNL     1     -40.705  56.432 -55.542  1.00  0.00     0.161 HD
ENDROOT
BRANCH   6  11
HETATM   11  C   UNL     1     -43.943  58.159 -59.502  1.00  0.00     0.276 C 
HETATM   12  N   UNL     1     -43.409  59.392 -59.823  1.00  0.00    -0.322 N 
HETATM   13  H   UNL     1     -42.896  59.821 -59.056  1.00  0.00     0.169 HD
HETATM   14  O   UNL     1     -44.639  57.452 -60.221  1.00  0.00    -0.266 OA
BRANCH  12  15
HETATM   15  C   UNL     1     -43.517  60.105 -61.028  1.00  0.00     0.037 A 
HETATM   16  C   UNL     1     -42.420  60.492 -61.801  1.00  0.00     0.066 A 
HETATM   17  C   UNL     1     -42.623  61.206 -62.981  1.00  0.00     0.067 A 
HETATM   18  C   UNL     1     -43.902  61.535 -63.411  1.00  0.00     0.036 A 
HETATM   19  C   UNL     1     -45.001  61.149 -62.648  1.00  0.00     0.005 A 
HETATM   20  C   UNL     1     -44.809  60.441 -61.458  1.00  0.00     0.029 A 
BRANCH  17  21
HETATM   21  O   UNL     1     -41.571  61.612 -63.751  1.00  0.00    -0.361 OA
HETATM   22  H   UNL     1     -40.773  61.624 -63.197  1.00  0.00     0.217 HD
ENDBRANCH  17  21
ENDBRANCH  12  15
ENDBRANCH   6  11
BRANCH   8  23
HETATM   23  C   UNL     1     -44.449  58.314 -53.964  1.00  0.00     0.409 C 
HETATM   24  F   UNL     1     -43.434  59.139 -54.301  1.00  0.00    -0.169 F 
HETATM   25  F   UNL     1     -45.597  59.007 -54.186  1.00  0.00    -0.169 F 
HETATM   26  F   UNL     1     -44.382  58.098 -52.634  1.00  0.00    -0.169 F 
ENDBRANCH   8  23
BRANCH   1  27
HETATM   27  C   UNL     1     -41.485  54.777 -53.763  1.00  0.00    -0.035 A 
HETATM   28  C   UNL     1     -41.414  54.309 -52.443  1.00  0.00     0.010 A 
HETATM   29  C   UNL     1     -40.766  53.103 -52.151  1.00  0.00     0.007 A 
HETATM   30  C   UNL     1     -40.171  52.348 -53.167  1.00  0.00    -0.062 A 
HETATM   31  C   UNL     1     -39.504  51.039 -52.864  1.00  0.00     0.048 C 
HETATM   32  C   UNL     1     -40.249  52.805 -54.486  1.00  0.00     0.007 A 
HETATM   33  C   UNL     1     -40.891  54.008 -54.779  1.00  0.00     0.010 A 
ENDBRANCH   1  27
TORSDOF 5
ENDMDL
MODEL 10
REMARK VINA RESULT:      -7.6     16.662     19.312
REMARK  5 active torsions:
REMARK  status: ('A' for Active; 'I' for Inactive)
REMARK    1  A    between atoms: C_5  and  C_6 
REMARK    2  A    between atoms: C_11  and  C_12 
REMARK       I    between atoms: C_12  and  N_13 
REMARK    3  A    between atoms: N_13  and  C_14 
REMARK    4  A    between atoms: C_16  and  O_17 
REMARK    5  A    between atoms: C_23  and  C_24 
ROOT
HETATM    1  C   UNL     1     -35.553  41.529 -53.557  1.00  0.00     0.118 C 
HETATM    2  N   UNL     1     -36.773  41.369 -52.767  1.00  0.00    -0.366 N 
HETATM    3  C   UNL     1     -36.887  40.456 -51.781  1.00  0.00     0.123 A 
HETATM    4  N   UNL     1     -35.807  39.741 -51.351  1.00  0.00    -0.240 N 
HETATM    5  N   UNL     1     -36.108  38.762 -50.479  1.00  0.00    -0.165 NA
HETATM    6  C   UNL     1     -37.429  38.955 -50.243  1.00  0.00     0.148 A 
HETATM    7  C   UNL     1     -37.945  40.021 -51.031  1.00  0.00     0.089 A 
HETATM    8  C   UNL     1     -34.472  39.929 -51.881  1.00  0.00     0.221 C 
HETATM    9  C   UNL     1     -34.576  40.351 -53.353  1.00  0.00     0.066 C 
HETATM   10  H   UNL     1     -37.575  41.913 -53.084  1.00  0.00     0.161 HD
ENDROOT
BRANCH   6  11
HETATM   11  C   UNL     1     -38.187  38.105 -49.307  1.00  0.00     0.276 C 
HETATM   12  N   UNL     1     -39.126  38.833 -48.602  1.00  0.00    -0.322 N 
HETATM   13  H   UNL     1     -39.122  39.824 -48.833  1.00  0.00     0.169 HD
HETATM   14  O   UNL     1     -37.950  36.907 -49.191  1.00  0.00    -0.266 OA
BRANCH  12  15
HETATM   15  C   UNL     1     -40.025  38.383 -47.622  1.00  0.00     0.037 A 
HETATM   16  C   UNL     1     -39.630  37.864 -46.387  1.00  0.00     0.066 A 
HETATM   17  C   UNL     1     -40.594  37.433 -45.477  1.00  0.00     0.067 A 
HETATM   18  C   UNL     1     -41.950  37.518 -45.772  1.00  0.00     0.036 A 
HETATM   19  C   UNL     1     -42.351  38.038 -47.000  1.00  0.00     0.005 A 
HETATM   20  C   UNL     1     -41.392  38.464 -47.924  1.00  0.00     0.029 A 
BRANCH  17  21
HETATM   21  O   UNL     1     -40.241  36.908 -44.268  1.00  0.00    -0.361 OA
HETATM   22  H   UNL     1     -40.001  37.639 -43.675  1.00  0.00     0.217 HD
ENDBRANCH  17  21
ENDBRANCH  12  15
ENDBRANCH   6  11
BRANCH   8  23
HETATM   23  C   UNL     1     -33.717  40.929 -51.035  1.00  0.00     0.409 C 
HETATM   24  F   UNL     1     -32.713  41.523 -51.717  1.00  0.00    -0.169 F 
HETATM   25  F   UNL     1     -34.558  41.922 -50.645  1.00  0.00    -0.169 F 
HETATM   26  F   UNL     1     -33.196  40.401 -49.909  1.00  0.00    -0.169 F 
ENDBRANCH   8  23
BRANCH   1  27
HETATM   27  C   UNL     1     -35.932  41.665 -55.022  1.00  0.00    -0.035 A 
HETATM   28  C   UNL     1     -34.953  41.912 -55.993  1.00  0.00     0.010 A 
HETATM   29  C   UNL     1     -35.305  42.031 -57.343  1.00  0.00     0.007 A 
HETATM   30  C   UNL     1     -36.639  41.916 -57.745  1.00  0.00    -0.062 A 
HETATM   31  C   UNL     1     -37.018  42.010 -59.193  1.00  0.00     0.048 C 
HETATM   32  C   UNL     1     -37.619  41.658 -56.781  1.00  0.00     0.007 A 
HETATM   33  C   UNL     1     -37.270  41.543 -55.435  1.00  0.00     0.010 A 
ENDBRANCH   1  27
TORSDOF 5
ENDMDL
