MODEL 1
REMARK VINA RESULT:      -8.6      0.000      0.000
REMARK  8 active torsions:
REMARK  status: ('A' for Active; 'I' for Inactive)
REMARK    1  A    between atoms: C_7  and  C_8 
REMARK       I    between atoms: C_8  and  N_9 
REMARK    2  A    between atoms: N_9  and  S_10 
REMARK    3  A    between atoms: S_10  and  N_11 
REMARK    4  A    between atoms: N_11  and  C_12 
REMARK    5  A    between atoms: C_12  and  C_13 
REMARK    6  A    between atoms: C_13  and  C_14 
REMARK    7  A    between atoms: C_16  and  O_17 
REMARK    8  A    between atoms: C_19  and  O_20 
ROOT
HETATM    1  S   UNL     1     -43.993  57.160 -51.787  1.00  0.00     0.303 S 
HETATM    2  O   UNL     1     -45.143  57.213 -50.920  1.00  0.00    -0.188 OA
HETATM    3  O   UNL     1     -43.296  58.362 -52.180  1.00  0.00    -0.188 OA
ENDROOT
BRANCH   1   4
HETATM    4  N   UNL     1     -42.873  56.180 -51.075  1.00  0.00    -0.237 N 
HETATM    5  C   UNL     1     -41.661  55.880 -51.709  1.00  0.00     0.268 C 
HETATM    6  O   UNL     1     -41.175  56.644 -52.536  1.00  0.00    -0.267 OA
HETATM    7  H   UNL     1     -43.340  55.428 -50.591  1.00  0.00     0.183 HD
BRANCH   5   8
HETATM    8  C   UNL     1     -41.037  54.602 -51.347  1.00  0.00     0.067 A 
HETATM    9  C   UNL     1     -40.705  54.095 -50.087  1.00  0.00     0.022 A 
HETATM   10  C   UNL     1     -40.812  54.635 -48.705  1.00  0.00     0.069 C 
HETATM   11  N   UNL     1     -40.157  52.846 -50.274  1.00  0.00    -0.358 N 
HETATM   12  H   UNL     1     -39.827  52.239 -49.534  1.00  0.00     0.166 HD
HETATM   13  C   UNL     1     -40.089  52.528 -51.604  1.00  0.00     0.043 A 
HETATM   14  C   UNL     1     -40.627  53.602 -52.307  1.00  0.00     0.008 A 
HETATM   15  C   UNL     1     -39.591  51.377 -52.229  1.00  0.00     0.030 A 
HETATM   16  C   UNL     1     -40.670  53.512 -53.717  1.00  0.00     0.015 A 
HETATM   17  C   UNL     1     -40.176  52.372 -54.361  1.00  0.00     0.001 A 
HETATM   18  C   UNL     1     -39.645  51.320 -53.624  1.00  0.00     0.002 A 
ENDBRANCH   5   8
ENDBRANCH   1   4
BRANCH   1  19
HETATM   19  N   UNL     1     -44.397  56.291 -53.163  1.00  0.00    -0.202 NA
HETATM   20  H   UNL     1     -45.425  56.223 -53.179  1.00  0.00     0.141 HD
BRANCH  19  21
HETATM   21  C   UNL     1     -43.941  56.887 -54.447  1.00  0.00     0.110 C 
BRANCH  21  22
HETATM   22  C   UNL     1     -43.232  55.884 -55.354  1.00  0.00     0.054 C 
BRANCH  22  23
HETATM   23  C   UNL     1     -42.964  56.503 -56.707  1.00  0.00    -0.054 A 
HETATM   24  C   UNL     1     -43.274  55.789 -57.876  1.00  0.00     0.046 A 
HETATM   25  C   UNL     1     -42.969  56.310 -59.139  1.00  0.00     0.102 A 
HETATM   26  C   UNL     1     -42.335  57.564 -59.235  1.00  0.00     0.101 A 
HETATM   27  C   UNL     1     -42.043  58.282 -58.071  1.00  0.00     0.040 A 
HETATM   28  C   UNL     1     -42.351  57.753 -56.814  1.00  0.00     0.010 A 
BRANCH  25  29
HETATM   29  O   UNL     1     -43.227  55.670 -60.326  1.00  0.00    -0.353 OA
HETATM   30  C   UNL     1     -44.546  55.186 -60.540  1.00  0.00     0.210 C 
ENDBRANCH  25  29
BRANCH  26  31
HETATM   31  O   UNL     1     -42.060  58.010 -60.504  1.00  0.00    -0.353 OA
HETATM   32  C   UNL     1     -42.183  59.406 -60.738  1.00  0.00     0.210 C 
ENDBRANCH  26  31
ENDBRANCH  22  23
ENDBRANCH  21  22
ENDBRANCH  19  21
ENDBRANCH   1  19
TORSDOF 8
ENDMDL
MODEL 2
REMARK VINA RESULT:      -8.4      0.739      1.877
REMARK  8 active torsions:
REMARK  status: ('A' for Active; 'I' for Inactive)
REMARK    1  A    between atoms: C_7  and  C_8 
REMARK       I    between atoms: C_8  and  N_9 
REMARK    2  A    between atoms: N_9  and  S_10 
REMARK    3  A    between atoms: S_10  and  N_11 
REMARK    4  A    between atoms: N_11  and  C_12 
REMARK    5  A    between atoms: C_12  and  C_13 
REMARK    6  A    between atoms: C_13  and  C_14 
REMARK    7  A    between atoms: C_16  and  O_17 
REMARK    8  A    between atoms: C_19  and  O_20 
ROOT
HETATM    1  S   UNL     1     -43.891  57.224 -51.331  1.00  0.00     0.303 S 
HETATM    2  O   UNL     1     -45.175  57.053 -50.701  1.00  0.00    -0.188 OA
HETATM    3  O   UNL     1     -43.192  58.486 -51.275  1.00  0.00    -0.188 OA
ENDROOT
BRANCH   1   4
HETATM    4  N   UNL     1     -42.869  56.093 -50.700  1.00  0.00    -0.237 N 
HETATM    5  C   UNL     1     -41.558  55.954 -51.171  1.00  0.00     0.268 C 
HETATM    6  O   UNL     1     -40.970  56.897 -51.690  1.00  0.00    -0.267 OA
HETATM    7  H   UNL     1     -43.382  55.246 -50.502  1.00  0.00     0.183 HD
BRANCH   5   8
HETATM    8  C   UNL     1     -40.954  54.624 -51.032  1.00  0.00     0.067 A 
HETATM    9  C   UNL     1     -40.575  53.931 -49.879  1.00  0.00     0.022 A 
HETATM   10  C   UNL     1     -40.597  54.265 -48.429  1.00  0.00     0.069 C 
HETATM   11  N   UNL     1     -40.075  52.710 -50.273  1.00  0.00    -0.358 N 
HETATM   12  H   UNL     1     -39.727  51.995 -49.648  1.00  0.00     0.166 HD
HETATM   13  C   UNL     1     -40.082  52.588 -51.637  1.00  0.00     0.043 A 
HETATM   14  C   UNL     1     -40.622  53.766 -52.148  1.00  0.00     0.008 A 
HETATM   15  C   UNL     1     -39.651  51.530 -52.448  1.00  0.00     0.030 A 
HETATM   16  C   UNL     1     -40.739  53.884 -53.551  1.00  0.00     0.015 A 
HETATM   17  C   UNL     1     -40.312  52.839 -54.379  1.00  0.00     0.001 A 
HETATM   18  C   UNL     1     -39.776  51.679 -53.832  1.00  0.00     0.002 A 
ENDBRANCH   5   8
ENDBRANCH   1   4
BRANCH   1  19
HETATM   19  N   UNL     1     -44.009  56.738 -52.931  1.00  0.00    -0.202 NA
HETATM   20  H   UNL     1     -44.989  56.459 -53.085  1.00  0.00     0.141 HD
BRANCH  19  21
HETATM   21  C   UNL     1     -43.648  57.772 -53.937  1.00  0.00     0.110 C 
BRANCH  21  22
HETATM   22  C   UNL     1     -42.297  57.515 -54.602  1.00  0.00     0.054 C 
BRANCH  22  23
HETATM   23  C   UNL     1     -42.498  56.997 -56.007  1.00  0.00    -0.054 A 
HETATM   24  C   UNL     1     -42.486  57.891 -57.091  1.00  0.00     0.046 A 
HETATM   25  C   UNL     1     -42.741  57.446 -58.393  1.00  0.00     0.102 A 
HETATM   26  C   UNL     1     -43.021  56.084 -58.616  1.00  0.00     0.101 A 
HETATM   27  C   UNL     1     -43.015  55.191 -57.540  1.00  0.00     0.040 A 
HETATM   28  C   UNL     1     -42.760  55.645 -56.243  1.00  0.00     0.010 A 
BRANCH  25  29
HETATM   29  O   UNL     1     -42.761  58.257 -59.501  1.00  0.00    -0.353 OA
HETATM   30  C   UNL     1     -42.145  59.533 -59.394  1.00  0.00     0.210 C 
ENDBRANCH  25  29
BRANCH  26  31
HETATM   31  O   UNL     1     -43.268  55.719 -59.917  1.00  0.00    -0.353 OA
HETATM   32  C   UNL     1     -44.460  54.988 -60.166  1.00  0.00     0.210 C 
ENDBRANCH  26  31
ENDBRANCH  22  23
ENDBRANCH  21  22
ENDBRANCH  19  21
ENDBRANCH   1  19
TORSDOF 8
ENDMDL
MODEL 3
REMARK VINA RESULT:      -8.3      2.634      3.524
REMARK  8 active torsions:
REMARK  status: ('A' for Active; 'I' for Inactive)
REMARK    1  A    between atoms: C_7  and  C_8 
REMARK       I    between atoms: C_8  and  N_9 
REMARK    2  A    between atoms: N_9  and  S_10 
REMARK    3  A    between atoms: S_10  and  N_11 
REMARK    4  A    between atoms: N_11  and  C_12 
REMARK    5  A    between atoms: C_12  and  C_13 
REMARK    6  A    between atoms: C_13  and  C_14 
REMARK    7  A    between atoms: C_16  and  O_17 
REMARK    8  A    between atoms: C_19  and  O_20 
ROOT
HETATM    1  S   UNL     1     -42.974  55.543 -55.198  1.00  0.00     0.303 S 
HETATM    2  O   UNL     1     -43.109  54.399 -56.064  1.00  0.00    -0.188 OA
HETATM    3  O   UNL     1     -44.131  56.269 -54.731  1.00  0.00    -0.188 OA
ENDROOT
BRANCH   1   4
HETATM    4  N   UNL     1     -42.150  55.058 -53.853  1.00  0.00    -0.237 N 
HETATM    5  C   UNL     1     -40.890  54.455 -53.950  1.00  0.00     0.268 C 
HETATM    6  O   UNL     1     -40.158  54.673 -54.909  1.00  0.00    -0.267 OA
HETATM    7  H   UNL     1     -42.797  54.673 -53.181  1.00  0.00     0.183 HD
BRANCH   5   8
HETATM    8  C   UNL     1     -40.521  53.542 -52.862  1.00  0.00     0.067 A 
HETATM    9  C   UNL     1     -40.388  53.791 -51.493  1.00  0.00     0.022 A 
HETATM   10  C   UNL     1     -40.523  55.014 -50.656  1.00  0.00     0.069 C 
HETATM   11  N   UNL     1     -40.042  52.604 -50.887  1.00  0.00    -0.358 N 
HETATM   12  H   UNL     1     -39.883  52.482 -49.895  1.00  0.00     0.166 HD
HETATM   13  C   UNL     1     -39.912  51.597 -51.806  1.00  0.00     0.043 A 
HETATM   14  C   UNL     1     -40.201  52.145 -53.053  1.00  0.00     0.008 A 
HETATM   15  C   UNL     1     -39.561  50.253 -51.624  1.00  0.00     0.030 A 
HETATM   16  C   UNL     1     -40.137  51.293 -54.179  1.00  0.00     0.015 A 
HETATM   17  C   UNL     1     -39.785  49.948 -54.019  1.00  0.00     0.001 A 
HETATM   18  C   UNL     1     -39.502  49.438 -52.758  1.00  0.00     0.002 A 
ENDBRANCH   5   8
ENDBRANCH   1   4
BRANCH   1  19
HETATM   19  N   UNL     1     -41.900  56.624 -55.898  1.00  0.00    -0.202 NA
HETATM   20  H   UNL     1     -41.277  56.071 -56.505  1.00  0.00     0.141 HD
BRANCH  19  21
HETATM   21  C   UNL     1     -42.523  57.700 -56.713  1.00  0.00     0.110 C 
BRANCH  21  22
HETATM   22  C   UNL     1     -42.366  57.480 -58.216  1.00  0.00     0.054 C 
BRANCH  22  23
HETATM   23  C   UNL     1     -43.699  57.119 -58.831  1.00  0.00    -0.054 A 
HETATM   24  C   UNL     1     -44.825  57.919 -58.580  1.00  0.00     0.046 A 
HETATM   25  C   UNL     1     -46.084  57.565 -59.080  1.00  0.00     0.102 A 
HETATM   26  C   UNL     1     -46.222  56.386 -59.836  1.00  0.00     0.101 A 
HETATM   27  C   UNL     1     -45.096  55.599 -60.102  1.00  0.00     0.040 A 
HETATM   28  C   UNL     1     -43.843  55.960 -59.598  1.00  0.00     0.010 A 
BRANCH  25  29
HETATM   29  O   UNL     1     -47.234  58.285 -58.867  1.00  0.00    -0.353 OA
HETATM   30  C   UNL     1     -47.276  59.619 -59.357  1.00  0.00     0.210 C 
ENDBRANCH  25  29
BRANCH  26  31
HETATM   31  O   UNL     1     -47.486  56.098 -60.288  1.00  0.00    -0.353 OA
HETATM   32  C   UNL     1     -47.806  56.503 -61.611  1.00  0.00     0.210 C 
ENDBRANCH  26  31
ENDBRANCH  22  23
ENDBRANCH  21  22
ENDBRANCH  19  21
ENDBRANCH   1  19
TORSDOF 8
ENDMDL
MODEL 4
REMARK VINA RESULT:      -8.1      2.841      7.798
REMARK  8 active torsions:
REMARK  status: ('A' for Active; 'I' for Inactive)
REMARK    1  A    between atoms: C_7  and  C_8 
REMARK       I    between atoms: C_8  and  N_9 
REMARK    2  A    between atoms: N_9  and  S_10 
REMARK    3  A    between atoms: S_10  and  N_11 
REMARK    4  A    between atoms: N_11  and  C_12 
REMARK    5  A    between atoms: C_12  and  C_13 
REMARK    6  A    between atoms: C_13  and  C_14 
REMARK    7  A    between atoms: C_16  and  O_17 
REMARK    8  A    between atoms: C_19  and  O_20 
ROOT
HETATM    1  S   UNL     1     -41.290  59.172 -53.158  1.00  0.00     0.303 S 
HETATM    2  O   UNL     1     -39.885  59.059 -52.860  1.00  0.00    -0.188 OA
HETATM    3  O   UNL     1     -42.142  60.071 -52.416  1.00  0.00    -0.188 OA
ENDROOT
BRANCH   1   4
HETATM    4  N   UNL     1     -41.434  59.593 -54.746  1.00  0.00    -0.237 N 
HETATM    5  C   UNL     1     -42.561  59.232 -55.495  1.00  0.00     0.268 C 
HETATM    6  O   UNL     1     -43.641  59.030 -54.952  1.00  0.00    -0.267 OA
HETATM    7  H   UNL     1     -40.535  59.519 -55.199  1.00  0.00     0.183 HD
BRANCH   5   8
HETATM    8  C   UNL     1     -42.361  59.088 -56.942  1.00  0.00     0.067 A 
HETATM    9  C   UNL     1     -41.941  60.032 -57.884  1.00  0.00     0.022 A 
HETATM   10  C   UNL     1     -41.590  61.476 -57.802  1.00  0.00     0.069 C 
HETATM   11  N   UNL     1     -41.893  59.403 -59.108  1.00  0.00    -0.358 N 
HETATM   12  H   UNL     1     -41.617  59.842 -59.977  1.00  0.00     0.166 HD
HETATM   13  C   UNL     1     -42.294  58.097 -59.011  1.00  0.00     0.043 A 
HETATM   14  C   UNL     1     -42.597  57.863 -57.673  1.00  0.00     0.008 A 
HETATM   15  C   UNL     1     -42.410  57.116 -60.004  1.00  0.00     0.030 A 
HETATM   16  C   UNL     1     -43.038  56.570 -57.312  1.00  0.00     0.015 A 
HETATM   17  C   UNL     1     -43.164  55.576 -58.290  1.00  0.00     0.001 A 
HETATM   18  C   UNL     1     -42.853  55.848 -59.617  1.00  0.00     0.002 A 
ENDBRANCH   5   8
ENDBRANCH   1   4
BRANCH   1  19
HETATM   19  N   UNL     1     -41.969  57.639 -53.137  1.00  0.00    -0.202 NA
HETATM   20  H   UNL     1     -42.747  57.650 -53.813  1.00  0.00     0.141 HD
BRANCH  19  21
HETATM   21  C   UNL     1     -41.044  56.531 -53.497  1.00  0.00     0.110 C 
BRANCH  21  22
HETATM   22  C   UNL     1     -41.762  55.204 -53.730  1.00  0.00     0.054 C 
BRANCH  22  23
HETATM   23  C   UNL     1     -41.004  54.077 -53.068  1.00  0.00    -0.054 A 
HETATM   24  C   UNL     1     -40.467  53.040 -53.850  1.00  0.00     0.046 A 
HETATM   25  C   UNL     1     -39.823  51.949 -53.254  1.00  0.00     0.102 A 
HETATM   26  C   UNL     1     -39.721  51.889 -51.851  1.00  0.00     0.101 A 
HETATM   27  C   UNL     1     -40.239  52.930 -51.073  1.00  0.00     0.040 A 
HETATM   28  C   UNL     1     -40.881  54.015 -51.678  1.00  0.00     0.010 A 
BRANCH  25  29
HETATM   29  O   UNL     1     -39.286  50.893 -53.946  1.00  0.00    -0.353 OA
HETATM   30  C   UNL     1     -40.187  49.955 -54.521  1.00  0.00     0.210 C 
ENDBRANCH  25  29
BRANCH  26  31
HETATM   31  O   UNL     1     -39.083  50.787 -51.335  1.00  0.00    -0.353 OA
HETATM   32  C   UNL     1     -39.884  49.847 -50.634  1.00  0.00     0.210 C 
ENDBRANCH  26  31
ENDBRANCH  22  23
ENDBRANCH  21  22
ENDBRANCH  19  21
ENDBRANCH   1  19
TORSDOF 8
ENDMDL
MODEL 5
REMARK VINA RESULT:      -8.0      4.961      7.742
REMARK  8 active torsions:
REMARK  status: ('A' for Active; 'I' for Inactive)
REMARK    1  A    between atoms: C_7  and  C_8 
REMARK       I    between atoms: C_8  and  N_9 
REMARK    2  A    between atoms: N_9  and  S_10 
REMARK    3  A    between atoms: S_10  and  N_11 
REMARK    4  A    between atoms: N_11  and  C_12 
REMARK    5  A    between atoms: C_12  and  C_13 
REMARK    6  A    between atoms: C_13  and  C_14 
REMARK    7  A    between atoms: C_16  and  O_17 
REMARK    8  A    between atoms: C_19  and  O_20 
ROOT
HETATM    1  S   UNL     1     -43.862  57.370 -51.293  1.00  0.00     0.303 S 
HETATM    2  O   UNL     1     -43.723  57.341 -52.727  1.00  0.00    -0.188 OA
HETATM    3  O   UNL     1     -45.157  57.257 -50.664  1.00  0.00    -0.188 OA
ENDROOT
BRANCH   1   4
HETATM    4  N   UNL     1     -42.933  56.156 -50.674  1.00  0.00    -0.237 N 
HETATM    5  C   UNL     1     -41.565  56.067 -50.964  1.00  0.00     0.268 C 
HETATM    6  O   UNL     1     -40.917  57.064 -51.262  1.00  0.00    -0.267 OA
HETATM    7  H   UNL     1     -43.461  55.296 -50.666  1.00  0.00     0.183 HD
BRANCH   5   8
HETATM    8  C   UNL     1     -40.976  54.724 -50.914  1.00  0.00     0.067 A 
HETATM    9  C   UNL     1     -40.585  53.960 -49.810  1.00  0.00     0.022 A 
HETATM   10  C   UNL     1     -40.576  54.209 -48.343  1.00  0.00     0.069 C 
HETATM   11  N   UNL     1     -40.107  52.760 -50.284  1.00  0.00    -0.358 N 
HETATM   12  H   UNL     1     -39.756  52.005 -49.709  1.00  0.00     0.166 HD
HETATM   13  C   UNL     1     -40.140  52.718 -51.653  1.00  0.00     0.043 A 
HETATM   14  C   UNL     1     -40.675  53.929 -52.083  1.00  0.00     0.008 A 
HETATM   15  C   UNL     1     -39.737  51.705 -52.532  1.00  0.00     0.030 A 
HETATM   16  C   UNL     1     -40.816  54.131 -53.475  1.00  0.00     0.015 A 
HETATM   17  C   UNL     1     -40.416  53.132 -54.371  1.00  0.00     0.001 A 
HETATM   18  C   UNL     1     -39.885  51.936 -53.902  1.00  0.00     0.002 A 
ENDBRANCH   5   8
ENDBRANCH   1   4
BRANCH   1  19
HETATM   19  N   UNL     1     -43.090  58.738 -50.706  1.00  0.00    -0.202 NA
HETATM   20  H   UNL     1     -42.111  58.686 -51.025  1.00  0.00     0.141 HD
BRANCH  19  21
HETATM   21  C   UNL     1     -43.665  60.034 -51.155  1.00  0.00     0.110 C 
BRANCH  21  22
HETATM   22  C   UNL     1     -43.187  61.222 -50.324  1.00  0.00     0.054 C 
BRANCH  22  23
HETATM   23  C   UNL     1     -44.350  61.846 -49.587  1.00  0.00    -0.054 A 
HETATM   24  C   UNL     1     -45.016  61.118 -48.587  1.00  0.00     0.046 A 
HETATM   25  C   UNL     1     -46.141  61.646 -47.942  1.00  0.00     0.102 A 
HETATM   26  C   UNL     1     -46.613  62.920 -48.308  1.00  0.00     0.101 A 
HETATM   27  C   UNL     1     -45.939  63.652 -49.291  1.00  0.00     0.040 A 
HETATM   28  C   UNL     1     -44.818  63.116 -49.930  1.00  0.00     0.010 A 
BRANCH  25  29
HETATM   29  O   UNL     1     -46.853  60.993 -46.966  1.00  0.00    -0.353 OA
HETATM   30  C   UNL     1     -46.133  60.148 -46.079  1.00  0.00     0.210 C 
ENDBRANCH  25  29
BRANCH  26  31
HETATM   31  O   UNL     1     -47.724  63.372 -47.639  1.00  0.00    -0.353 OA
HETATM   32  C   UNL     1     -48.664  64.130 -48.386  1.00  0.00     0.210 C 
ENDBRANCH  26  31
ENDBRANCH  22  23
ENDBRANCH  21  22
ENDBRANCH  19  21
ENDBRANCH   1  19
TORSDOF 8
ENDMDL
MODEL 6
REMARK VINA RESULT:      -8.0      2.713      7.295
REMARK  8 active torsions:
REMARK  status: ('A' for Active; 'I' for Inactive)
REMARK    1  A    between atoms: C_7  and  C_8 
REMARK       I    between atoms: C_8  and  N_9 
REMARK    2  A    between atoms: N_9  and  S_10 
REMARK    3  A    between atoms: S_10  and  N_11 
REMARK    4  A    between atoms: N_11  and  C_12 
REMARK    5  A    between atoms: C_12  and  C_13 
REMARK    6  A    between atoms: C_13  and  C_14 
REMARK    7  A    between atoms: C_16  and  O_17 
REMARK    8  A    between atoms: C_19  and  O_20 
ROOT
HETATM    1  S   UNL     1     -41.324  59.375 -53.104  1.00  0.00     0.303 S 
HETATM    2  O   UNL     1     -39.942  59.148 -52.766  1.00  0.00    -0.188 OA
HETATM    3  O   UNL     1     -41.868  60.710 -53.178  1.00  0.00    -0.188 OA
ENDROOT
BRANCH   1   4
HETATM    4  N   UNL     1     -41.602  58.674 -54.571  1.00  0.00    -0.237 N 
HETATM    5  C   UNL     1     -42.896  58.327 -54.978  1.00  0.00     0.268 C 
HETATM    6  O   UNL     1     -43.877  58.913 -54.532  1.00  0.00    -0.267 OA
HETATM    7  H   UNL     1     -40.861  58.021 -54.781  1.00  0.00     0.183 HD
BRANCH   5   8
HETATM    8  C   UNL     1     -43.002  57.219 -55.934  1.00  0.00     0.067 A 
HETATM    9  C   UNL     1     -43.387  55.891 -55.724  1.00  0.00     0.022 A 
HETATM   10  C   UNL     1     -43.779  55.117 -54.515  1.00  0.00     0.069 C 
HETATM   11  N   UNL     1     -43.344  55.249 -56.942  1.00  0.00    -0.358 N 
HETATM   12  H   UNL     1     -43.577  54.276 -57.095  1.00  0.00     0.166 HD
HETATM   13  C   UNL     1     -42.918  56.093 -57.933  1.00  0.00     0.043 A 
HETATM   14  C   UNL     1     -42.691  57.333 -57.342  1.00  0.00     0.008 A 
HETATM   15  C   UNL     1     -42.716  55.848 -59.297  1.00  0.00     0.030 A 
HETATM   16  C   UNL     1     -42.241  58.386 -58.170  1.00  0.00     0.015 A 
HETATM   17  C   UNL     1     -42.031  58.162 -59.535  1.00  0.00     0.001 A 
HETATM   18  C   UNL     1     -42.267  56.908 -60.089  1.00  0.00     0.002 A 
ENDBRANCH   5   8
ENDBRANCH   1   4
BRANCH   1  19
HETATM   19  N   UNL     1     -42.285  58.452 -52.086  1.00  0.00    -0.202 NA
HETATM   20  H   UNL     1     -43.262  58.631 -52.357  1.00  0.00     0.141 HD
BRANCH  19  21
HETATM   21  C   UNL     1     -42.039  56.986 -52.137  1.00  0.00     0.110 C 
BRANCH  21  22
HETATM   22  C   UNL     1     -41.683  56.390 -50.777  1.00  0.00     0.054 C 
BRANCH  22  23
HETATM   23  C   UNL     1     -41.036  55.035 -50.955  1.00  0.00    -0.054 A 
HETATM   24  C   UNL     1     -40.976  54.451 -52.231  1.00  0.00     0.046 A 
HETATM   25  C   UNL     1     -40.448  53.167 -52.409  1.00  0.00     0.102 A 
HETATM   26  C   UNL     1     -39.978  52.451 -51.292  1.00  0.00     0.101 A 
HETATM   27  C   UNL     1     -40.020  53.041 -50.024  1.00  0.00     0.040 A 
HETATM   28  C   UNL     1     -40.551  54.323 -49.856  1.00  0.00     0.010 A 
BRANCH  25  29
HETATM   29  O   UNL     1     -40.367  52.522 -53.619  1.00  0.00    -0.353 OA
HETATM   30  C   UNL     1     -40.240  53.324 -54.785  1.00  0.00     0.210 C 
ENDBRANCH  25  29
BRANCH  26  31
HETATM   31  O   UNL     1     -39.479  51.196 -51.540  1.00  0.00    -0.353 OA
HETATM   32  C   UNL     1     -39.854  50.163 -50.639  1.00  0.00     0.210 C 
ENDBRANCH  26  31
ENDBRANCH  22  23
ENDBRANCH  21  22
ENDBRANCH  19  21
ENDBRANCH   1  19
TORSDOF 8
ENDMDL
MODEL 7
REMARK VINA RESULT:      -7.9      2.688      8.871
REMARK  8 active torsions:
REMARK  status: ('A' for Active; 'I' for Inactive)
REMARK    1  A    between atoms: C_7  and  C_8 
REMARK       I    between atoms: C_8  and  N_9 
REMARK    2  A    between atoms: N_9  and  S_10 
REMARK    3  A    between atoms: S_10  and  N_11 
REMARK    4  A    between atoms: N_11  and  C_12 
REMARK    5  A    between atoms: C_12  and  C_13 
REMARK    6  A    between atoms: C_13  and  C_14 
REMARK    7  A    between atoms: C_16  and  O_17 
REMARK    8  A    between atoms: C_19  and  O_20 
ROOT
HETATM    1  S   UNL     1     -43.541  56.790 -54.940  1.00  0.00     0.303 S 
HETATM    2  O   UNL     1     -43.843  57.932 -54.116  1.00  0.00    -0.188 OA
HETATM    3  O   UNL     1     -43.912  55.455 -54.534  1.00  0.00    -0.188 OA
ENDROOT
BRANCH   1   4
HETATM    4  N   UNL     1     -44.231  57.040 -56.417  1.00  0.00    -0.237 N 
HETATM    5  C   UNL     1     -43.665  56.511 -57.583  1.00  0.00     0.268 C 
HETATM    6  O   UNL     1     -42.965  55.505 -57.545  1.00  0.00    -0.267 OA
HETATM    7  H   UNL     1     -44.595  57.981 -56.465  1.00  0.00     0.183 HD
BRANCH   5   8
HETATM    8  C   UNL     1     -43.939  57.239 -58.828  1.00  0.00     0.067 A 
HETATM    9  C   UNL     1     -44.843  56.948 -59.853  1.00  0.00     0.022 A 
HETATM   10  C   UNL     1     -45.799  55.832 -60.091  1.00  0.00     0.069 C 
HETATM   11  N   UNL     1     -44.738  57.947 -60.795  1.00  0.00    -0.358 N 
HETATM   12  H   UNL     1     -45.278  58.000 -61.649  1.00  0.00     0.166 HD
HETATM   13  C   UNL     1     -43.781  58.861 -60.444  1.00  0.00     0.043 A 
HETATM   14  C   UNL     1     -43.257  58.452 -59.221  1.00  0.00     0.008 A 
HETATM   15  C   UNL     1     -43.345  60.010 -61.116  1.00  0.00     0.030 A 
HETATM   16  C   UNL     1     -42.241  59.244 -58.640  1.00  0.00     0.015 A 
HETATM   17  C   UNL     1     -41.789  60.395 -59.297  1.00  0.00     0.001 A 
HETATM   18  C   UNL     1     -42.336  60.770 -60.519  1.00  0.00     0.002 A 
ENDBRANCH   5   8
ENDBRANCH   1   4
BRANCH   1  19
HETATM   19  N   UNL     1     -41.905  56.811 -55.308  1.00  0.00    -0.202 NA
HETATM   20  H   UNL     1     -41.600  57.793 -55.246  1.00  0.00     0.141 HD
BRANCH  19  21
HETATM   21  C   UNL     1     -41.043  55.990 -54.417  1.00  0.00     0.110 C 
BRANCH  21  22
HETATM   22  C   UNL     1     -40.663  54.642 -55.026  1.00  0.00     0.054 C 
BRANCH  22  23
HETATM   23  C   UNL     1     -40.444  53.620 -53.934  1.00  0.00    -0.054 A 
HETATM   24  C   UNL     1     -40.566  53.998 -52.587  1.00  0.00     0.046 A 
HETATM   25  C   UNL     1     -40.298  53.088 -51.558  1.00  0.00     0.102 A 
HETATM   26  C   UNL     1     -39.891  51.780 -51.880  1.00  0.00     0.101 A 
HETATM   27  C   UNL     1     -39.787  51.398 -53.222  1.00  0.00     0.040 A 
HETATM   28  C   UNL     1     -40.057  52.314 -54.243  1.00  0.00     0.010 A 
BRANCH  25  29
HETATM   29  O   UNL     1     -40.381  53.384 -50.219  1.00  0.00    -0.353 OA
HETATM   30  C   UNL     1     -40.614  54.738 -49.857  1.00  0.00     0.210 C 
ENDBRANCH  25  29
BRANCH  26  31
HETATM   31  O   UNL     1     -39.639  50.943 -50.821  1.00  0.00    -0.353 OA
HETATM   32  C   UNL     1     -39.668  49.547 -51.079  1.00  0.00     0.210 C 
ENDBRANCH  26  31
ENDBRANCH  22  23
ENDBRANCH  21  22
ENDBRANCH  19  21
ENDBRANCH   1  19
TORSDOF 8
ENDMDL
MODEL 8
REMARK VINA RESULT:      -7.8      2.000      2.776
REMARK  8 active torsions:
REMARK  status: ('A' for Active; 'I' for Inactive)
REMARK    1  A    between atoms: C_7  and  C_8 
REMARK       I    between atoms: C_8  and  N_9 
REMARK    2  A    between atoms: N_9  and  S_10 
REMARK    3  A    between atoms: S_10  and  N_11 
REMARK    4  A    between atoms: N_11  and  C_12 
REMARK    5  A    between atoms: C_12  and  C_13 
REMARK    6  A    between atoms: C_13  and  C_14 
REMARK    7  A    between atoms: C_16  and  O_17 
REMARK    8  A    between atoms: C_19  and  O_20 
ROOT
HETATM    1  S   UNL     1     -41.710  58.512 -53.715  1.00  0.00     0.303 S 
HETATM    2  O   UNL     1     -42.874  58.605 -52.871  1.00  0.00    -0.188 OA
HETATM    3  O   UNL     1     -40.679  59.522 -53.684  1.00  0.00    -0.188 OA
ENDROOT
BRANCH   1   4
HETATM    4  N   UNL     1     -40.969  57.075 -53.389  1.00  0.00    -0.237 N 
HETATM    5  C   UNL     1     -41.700  55.884 -53.292  1.00  0.00     0.268 C 
HETATM    6  O   UNL     1     -42.769  55.751 -53.876  1.00  0.00    -0.267 OA
HETATM    7  H   UNL     1     -40.230  57.220 -52.716  1.00  0.00     0.183 HD
BRANCH   5   8
HETATM    8  C   UNL     1     -41.126  54.836 -52.440  1.00  0.00     0.067 A 
HETATM    9  C   UNL     1     -40.897  54.832 -51.061  1.00  0.00     0.022 A 
HETATM   10  C   UNL     1     -41.096  55.841 -49.986  1.00  0.00     0.069 C 
HETATM   11  N   UNL     1     -40.360  53.607 -50.733  1.00  0.00    -0.358 N 
HETATM   12  H   UNL     1     -40.096  53.319 -49.800  1.00  0.00     0.166 HD
HETATM   13  C   UNL     1     -40.199  52.823 -51.844  1.00  0.00     0.043 A 
HETATM   14  C   UNL     1     -40.664  53.557 -52.932  1.00  0.00     0.008 A 
HETATM   15  C   UNL     1     -39.678  51.528 -51.963  1.00  0.00     0.030 A 
HETATM   16  C   UNL     1     -40.606  52.955 -54.209  1.00  0.00     0.015 A 
HETATM   17  C   UNL     1     -40.086  51.663 -54.349  1.00  0.00     0.001 A 
HETATM   18  C   UNL     1     -39.629  50.961 -53.240  1.00  0.00     0.002 A 
ENDBRANCH   5   8
ENDBRANCH   1   4
BRANCH   1  19
HETATM   19  N   UNL     1     -42.213  58.296 -55.301  1.00  0.00    -0.202 NA
HETATM   20  H   UNL     1     -43.075  57.734 -55.264  1.00  0.00     0.141 HD
BRANCH  19  21
HETATM   21  C   UNL     1     -42.493  59.547 -56.053  1.00  0.00     0.110 C 
BRANCH  21  22
HETATM   22  C   UNL     1     -42.064  59.475 -57.517  1.00  0.00     0.054 C 
BRANCH  22  23
HETATM   23  C   UNL     1     -42.862  58.417 -58.243  1.00  0.00    -0.054 A 
HETATM   24  C   UNL     1     -44.265  58.489 -58.264  1.00  0.00     0.046 A 
HETATM   25  C   UNL     1     -45.028  57.484 -58.867  1.00  0.00     0.102 A 
HETATM   26  C   UNL     1     -44.379  56.381 -59.454  1.00  0.00     0.101 A 
HETATM   27  C   UNL     1     -42.982  56.317 -59.450  1.00  0.00     0.040 A 
HETATM   28  C   UNL     1     -42.228  57.326 -58.844  1.00  0.00     0.010 A 
BRANCH  25  29
HETATM   29  O   UNL     1     -46.400  57.475 -58.917  1.00  0.00    -0.353 OA
HETATM   30  C   UNL     1     -47.028  58.255 -59.926  1.00  0.00     0.210 C 
ENDBRANCH  25  29
BRANCH  26  31
HETATM   31  O   UNL     1     -45.190  55.429 -60.021  1.00  0.00    -0.353 OA
HETATM   32  C   UNL     1     -44.842  54.070 -59.801  1.00  0.00     0.210 C 
ENDBRANCH  26  31
ENDBRANCH  22  23
ENDBRANCH  21  22
ENDBRANCH  19  21
ENDBRANCH   1  19
TORSDOF 8
ENDMDL
MODEL 9
REMARK VINA RESULT:      -7.8      2.492      3.719
REMARK  8 active torsions:
REMARK  status: ('A' for Active; 'I' for Inactive)
REMARK    1  A    between atoms: C_7  and  C_8 
REMARK       I    between atoms: C_8  and  N_9 
REMARK    2  A    between atoms: N_9  and  S_10 
REMARK    3  A    between atoms: S_10  and  N_11 
REMARK    4  A    between atoms: N_11  and  C_12 
REMARK    5  A    between atoms: C_12  and  C_13 
REMARK    6  A    between atoms: C_13  and  C_14 
REMARK    7  A    between atoms: C_16  and  O_17 
REMARK    8  A    between atoms: C_19  and  O_20 
ROOT
HETATM    1  S   UNL     1     -42.930  55.396 -55.258  1.00  0.00     0.303 S 
HETATM    2  O   UNL     1     -43.112  54.222 -56.074  1.00  0.00    -0.188 OA
HETATM    3  O   UNL     1     -44.056  56.189 -54.827  1.00  0.00    -0.188 OA
ENDROOT
BRANCH   1   4
HETATM    4  N   UNL     1     -42.127  54.938 -53.892  1.00  0.00    -0.237 N 
HETATM    5  C   UNL     1     -40.858  54.350 -53.956  1.00  0.00     0.268 C 
HETATM    6  O   UNL     1     -40.110  54.565 -54.903  1.00  0.00    -0.267 OA
HETATM    7  H   UNL     1     -42.782  54.553 -53.227  1.00  0.00     0.183 HD
BRANCH   5   8
HETATM    8  C   UNL     1     -40.499  53.455 -52.850  1.00  0.00     0.067 A 
HETATM    9  C   UNL     1     -40.410  53.718 -51.480  1.00  0.00     0.022 A 
HETATM   10  C   UNL     1     -40.595  54.945 -50.658  1.00  0.00     0.069 C 
HETATM   11  N   UNL     1     -40.055  52.544 -50.854  1.00  0.00    -0.358 N 
HETATM   12  H   UNL     1     -39.921  52.435 -49.857  1.00  0.00     0.166 HD
HETATM   13  C   UNL     1     -39.878  51.533 -51.760  1.00  0.00     0.043 A 
HETATM   14  C   UNL     1     -40.144  52.063 -53.019  1.00  0.00     0.008 A 
HETATM   15  C   UNL     1     -39.503  50.199 -51.556  1.00  0.00     0.030 A 
HETATM   16  C   UNL     1     -40.030  51.203 -54.135  1.00  0.00     0.015 A 
HETATM   17  C   UNL     1     -39.653  49.868 -53.953  1.00  0.00     0.001 A 
HETATM   18  C   UNL     1     -39.394  49.375 -52.679  1.00  0.00     0.002 A 
ENDBRANCH   5   8
ENDBRANCH   1   4
BRANCH   1  19
HETATM   19  N   UNL     1     -41.811  56.399 -56.003  1.00  0.00    -0.202 NA
HETATM   20  H   UNL     1     -41.316  55.824 -56.701  1.00  0.00     0.141 HD
BRANCH  19  21
HETATM   21  C   UNL     1     -42.383  57.588 -56.689  1.00  0.00     0.110 C 
BRANCH  21  22
HETATM   22  C   UNL     1     -42.642  57.356 -58.175  1.00  0.00     0.054 C 
BRANCH  22  23
HETATM   23  C   UNL     1     -42.234  58.573 -58.973  1.00  0.00    -0.054 A 
HETATM   24  C   UNL     1     -41.918  59.770 -58.309  1.00  0.00     0.046 A 
HETATM   25  C   UNL     1     -41.607  60.931 -59.028  1.00  0.00     0.102 A 
HETATM   26  C   UNL     1     -41.621  60.897 -60.435  1.00  0.00     0.101 A 
HETATM   27  C   UNL     1     -41.918  59.700 -61.096  1.00  0.00     0.040 A 
HETATM   28  C   UNL     1     -42.228  58.547 -60.369  1.00  0.00     0.010 A 
BRANCH  25  29
HETATM   29  O   UNL     1     -41.302  62.140 -58.454  1.00  0.00    -0.353 OA
HETATM   30  C   UNL     1     -42.336  62.816 -57.750  1.00  0.00     0.210 C 
ENDBRANCH  25  29
BRANCH  26  31
HETATM   31  O   UNL     1     -41.314  62.073 -61.074  1.00  0.00    -0.353 OA
HETATM   32  C   UNL     1     -41.799  62.233 -62.400  1.00  0.00     0.210 C 
ENDBRANCH  26  31
ENDBRANCH  22  23
ENDBRANCH  21  22
ENDBRANCH  19  21
ENDBRANCH   1  19
TORSDOF 8
ENDMDL
MODEL 10
REMARK VINA RESULT:      -7.7      2.323      3.811
REMARK  8 active torsions:
REMARK  status: ('A' for Active; 'I' for Inactive)
REMARK    1  A    between atoms: C_7  and  C_8 
REMARK       I    between atoms: C_8  and  N_9 
REMARK    2  A    between atoms: N_9  and  S_10 
REMARK    3  A    between atoms: S_10  and  N_11 
REMARK    4  A    between atoms: N_11  and  C_12 
REMARK    5  A    between atoms: C_12  and  C_13 
REMARK    6  A    between atoms: C_13  and  C_14 
REMARK    7  A    between atoms: C_16  and  O_17 
REMARK    8  A    between atoms: C_19  and  O_20 
ROOT
HETATM    1  S   UNL     1     -42.971  55.887 -55.556  1.00  0.00     0.303 S 
HETATM    2  O   UNL     1     -42.964  54.742 -56.432  1.00  0.00    -0.188 OA
HETATM    3  O   UNL     1     -44.198  56.580 -55.241  1.00  0.00    -0.188 OA
ENDROOT
BRANCH   1   4
HETATM    4  N   UNL     1     -42.312  55.421 -54.118  1.00  0.00    -0.237 N 
HETATM    5  C   UNL     1     -41.003  54.929 -54.042  1.00  0.00     0.268 C 
HETATM    6  O   UNL     1     -40.162  55.244 -54.876  1.00  0.00    -0.267 OA
HETATM    7  H   UNL     1     -43.013  54.958 -53.558  1.00  0.00     0.183 HD
BRANCH   5   8
HETATM    8  C   UNL     1     -40.717  54.009 -52.936  1.00  0.00     0.067 A 
HETATM    9  C   UNL     1     -40.313  52.671 -52.968  1.00  0.00     0.022 A 
HETATM   10  C   UNL     1     -40.067  51.701 -54.070  1.00  0.00     0.069 C 
HETATM   11  N   UNL     1     -40.156  52.253 -51.666  1.00  0.00    -0.358 N 
HETATM   12  H   UNL     1     -39.865  51.326 -51.383  1.00  0.00     0.166 HD
HETATM   13  C   UNL     1     -40.470  53.252 -50.783  1.00  0.00     0.043 A 
HETATM   14  C   UNL     1     -40.829  54.365 -51.539  1.00  0.00     0.008 A 
HETATM   15  C   UNL     1     -40.465  53.248 -49.382  1.00  0.00     0.030 A 
HETATM   16  C   UNL     1     -41.198  55.541 -50.847  1.00  0.00     0.015 A 
HETATM   17  C   UNL     1     -41.202  55.557 -49.448  1.00  0.00     0.001 A 
HETATM   18  C   UNL     1     -40.839  54.425 -48.727  1.00  0.00     0.002 A 
ENDBRANCH   5   8
ENDBRANCH   1   4
BRANCH   1  19
HETATM   19  N   UNL     1     -41.846  56.998 -56.115  1.00  0.00    -0.202 NA
HETATM   20  H   UNL     1     -41.351  56.550 -56.900  1.00  0.00     0.141 HD
BRANCH  19  21
HETATM   21  C   UNL     1     -42.411  58.290 -56.587  1.00  0.00     0.110 C 
BRANCH  21  22
HETATM   22  C   UNL     1     -42.488  58.390 -58.108  1.00  0.00     0.054 C 
BRANCH  22  23
HETATM   23  C   UNL     1     -43.775  57.773 -58.607  1.00  0.00    -0.054 A 
HETATM   24  C   UNL     1     -43.754  56.508 -59.217  1.00  0.00     0.046 A 
HETATM   25  C   UNL     1     -44.921  55.948 -59.751  1.00  0.00     0.102 A 
HETATM   26  C   UNL     1     -46.128  56.668 -59.681  1.00  0.00     0.101 A 
HETATM   27  C   UNL     1     -46.153  57.920 -59.057  1.00  0.00     0.040 A 
HETATM   28  C   UNL     1     -44.982  58.471 -58.527  1.00  0.00     0.010 A 
BRANCH  25  29
HETATM   29  O   UNL     1     -44.980  54.726 -60.374  1.00  0.00    -0.353 OA
HETATM   30  C   UNL     1     -44.838  53.566 -59.565  1.00  0.00     0.210 C 
ENDBRANCH  25  29
BRANCH  26  31
HETATM   31  O   UNL     1     -47.231  56.061 -60.230  1.00  0.00    -0.353 OA
HETATM   32  C   UNL     1     -47.697  56.572 -61.471  1.00  0.00     0.210 C 
ENDBRANCH  26  31
ENDBRANCH  22  23
ENDBRANCH  21  22
ENDBRANCH  19  21
ENDBRANCH   1  19
TORSDOF 8
ENDMDL
