MODEL 1
REMARK VINA RESULT:      -7.7      0.000      0.000
REMARK  5 active torsions:
REMARK  status: ('A' for Active; 'I' for Inactive)
REMARK    1  A    between atoms: C_3  and  O_4 
REMARK    2  A    between atoms: O_4  and  C_5 
REMARK    3  A    between atoms: C_10  and  N_11 
REMARK       I    between atoms: N_11  and  C_12 
REMARK       I    between atoms: C_12  and  N_13 
REMARK    4  A    between atoms: N_13  and  C_14 
REMARK    5  A    between atoms: C_14  and  C_15 
ROOT
HETATM    1  N   UNL     1     -43.573  54.873 -53.208  1.00  0.00    -0.309 N 
HETATM    2  C   UNL     1     -42.739  54.302 -52.309  1.00  0.00     0.321 C 
HETATM    3  N   UNL     1     -41.404  54.291 -52.540  1.00  0.00    -0.337 N 
HETATM    4  O   UNL     1     -43.230  53.825 -51.286  1.00  0.00    -0.247 OA
HETATM    5  H   UNL     1     -44.508  54.895 -52.823  1.00  0.00     0.170 HD
HETATM    6  H   UNL     1     -41.024  55.070 -53.055  1.00  0.00     0.164 HD
ENDROOT
BRANCH   1   7
HETATM    7  C   UNL     1     -43.446  55.379 -54.513  1.00  0.00     0.037 A 
HETATM    8  C   UNL     1     -42.941  54.690 -55.612  1.00  0.00     0.032 A 
HETATM    9  C   UNL     1     -42.863  55.313 -56.869  1.00  0.00     0.039 A 
HETATM   10  C   UNL     1     -43.312  56.624 -57.050  1.00  0.00     0.075 A 
HETATM   11  C   UNL     1     -43.857  57.315 -55.959  1.00  0.00    -0.026 A 
HETATM   12  C   UNL     1     -44.369  58.722 -56.109  1.00  0.00     0.051 C 
HETATM   13  C   UNL     1     -43.913  56.687 -54.705  1.00  0.00     0.039 A 
BRANCH  10  14
HETATM   14  O   UNL     1     -43.252  57.334 -58.216  1.00  0.00    -0.346 OA
BRANCH  14  15
HETATM   15  C   UNL     1     -42.876  56.687 -59.434  1.00  0.00     0.121 C 
HETATM   16  C   UNL     1     -44.093  56.525 -60.341  1.00  0.00     0.040 C 
HETATM   17  C   UNL     1     -41.848  57.596 -60.104  1.00  0.00     0.040 C 
ENDBRANCH  14  15
ENDBRANCH  10  14
ENDBRANCH   1   7
BRANCH   3  18
HETATM   18  C   UNL     1     -40.533  53.774 -51.504  1.00  0.00     0.183 C 
BRANCH  18  19
HETATM   19  C   UNL     1     -40.175  52.315 -51.675  1.00  0.00     0.053 A 
HETATM   20  N   UNL     1     -40.101  51.524 -50.571  1.00  0.00    -0.264 NA
HETATM   21  C   UNL     1     -39.798  50.219 -50.760  1.00  0.00     0.118 A 
HETATM   22  C   UNL     1     -39.579  49.649 -51.999  1.00  0.00     0.043 A 
HETATM   23  C   UNL     1     -39.682  50.471 -53.110  1.00  0.00     0.037 A 
HETATM   24 CL   UNL     1     -39.435  49.822 -54.684  1.00  0.00    -0.084 Cl
HETATM   25  C   UNL     1     -39.984  51.818 -52.961  1.00  0.00     0.052 A 
ENDBRANCH  18  19
ENDBRANCH   3  18
TORSDOF 5
ENDMDL
MODEL 2
REMARK VINA RESULT:      -7.4      3.507      8.146
REMARK  5 active torsions:
REMARK  status: ('A' for Active; 'I' for Inactive)
REMARK    1  A    between atoms: C_3  and  O_4 
REMARK    2  A    between atoms: O_4  and  C_5 
REMARK    3  A    between atoms: C_10  and  N_11 
REMARK       I    between atoms: N_11  and  C_12 
REMARK       I    between atoms: C_12  and  N_13 
REMARK    4  A    between atoms: N_13  and  C_14 
REMARK    5  A    between atoms: C_14  and  C_15 
ROOT
HETATM    1  N   UNL     1     -42.147  56.329 -54.398  1.00  0.00    -0.309 N 
HETATM    2  C   UNL     1     -42.458  57.066 -55.489  1.00  0.00     0.321 C 
HETATM    3  N   UNL     1     -42.210  56.576 -56.727  1.00  0.00    -0.337 N 
HETATM    4  O   UNL     1     -42.983  58.166 -55.314  1.00  0.00    -0.247 OA
HETATM    5  H   UNL     1     -42.505  56.794 -53.573  1.00  0.00     0.170 HD
HETATM    6  H   UNL     1     -42.274  55.576 -56.843  1.00  0.00     0.164 HD
ENDROOT
BRANCH   1   7
HETATM    7  C   UNL     1     -41.436  55.141 -54.161  1.00  0.00     0.037 A 
HETATM    8  C   UNL     1     -40.857  54.326 -55.129  1.00  0.00     0.032 A 
HETATM    9  C   UNL     1     -40.171  53.156 -54.759  1.00  0.00     0.039 A 
HETATM   10  C   UNL     1     -40.033  52.799 -53.415  1.00  0.00     0.075 A 
HETATM   11  C   UNL     1     -40.580  53.632 -52.429  1.00  0.00    -0.026 A 
HETATM   12  C   UNL     1     -40.442  53.297 -50.969  1.00  0.00     0.051 C 
HETATM   13  C   UNL     1     -41.277  54.788 -52.813  1.00  0.00     0.039 A 
BRANCH  10  14
HETATM   14  O   UNL     1     -39.418  51.671 -52.949  1.00  0.00    -0.346 OA
BRANCH  14  15
HETATM   15  C   UNL     1     -40.000  50.386 -53.182  1.00  0.00     0.121 C 
HETATM   16  C   UNL     1     -39.419  49.770 -54.451  1.00  0.00     0.040 C 
HETATM   17  C   UNL     1     -39.636  49.525 -51.975  1.00  0.00     0.040 C 
ENDBRANCH  14  15
ENDBRANCH  10  14
ENDBRANCH   1   7
BRANCH   3  18
HETATM   18  C   UNL     1     -42.659  57.343 -57.872  1.00  0.00     0.183 C 
BRANCH  18  19
HETATM   19  C   UNL     1     -43.668  56.622 -58.737  1.00  0.00     0.053 A 
HETATM   20  N   UNL     1     -43.466  55.308 -59.023  1.00  0.00    -0.264 NA
HETATM   21  C   UNL     1     -44.397  54.687 -59.783  1.00  0.00     0.118 A 
HETATM   22  C   UNL     1     -45.537  55.303 -60.264  1.00  0.00     0.043 A 
HETATM   23  C   UNL     1     -45.731  56.636 -59.939  1.00  0.00     0.037 A 
HETATM   24 CL   UNL     1     -47.136  57.459 -60.494  1.00  0.00    -0.084 Cl
HETATM   25  C   UNL     1     -44.796  57.314 -59.167  1.00  0.00     0.052 A 
ENDBRANCH  18  19
ENDBRANCH   3  18
TORSDOF 5
ENDMDL
MODEL 3
REMARK VINA RESULT:      -7.3      3.343      8.042
REMARK  5 active torsions:
REMARK  status: ('A' for Active; 'I' for Inactive)
REMARK    1  A    between atoms: C_3  and  O_4 
REMARK    2  A    between atoms: O_4  and  C_5 
REMARK    3  A    between atoms: C_10  and  N_11 
REMARK       I    between atoms: N_11  and  C_12 
REMARK       I    between atoms: C_12  and  N_13 
REMARK    4  A    between atoms: N_13  and  C_14 
REMARK    5  A    between atoms: C_14  and  C_15 
ROOT
HETATM    1  N   UNL     1     -43.790  55.535 -53.508  1.00  0.00    -0.309 N 
HETATM    2  C   UNL     1     -44.178  56.489 -54.385  1.00  0.00     0.321 C 
HETATM    3  N   UNL     1     -43.635  56.525 -55.625  1.00  0.00    -0.337 N 
HETATM    4  O   UNL     1     -45.041  57.290 -54.024  1.00  0.00    -0.247 OA
HETATM    5  H   UNL     1     -44.376  55.586 -52.684  1.00  0.00     0.170 HD
HETATM    6  H   UNL     1     -43.366  55.642 -56.031  1.00  0.00     0.164 HD
ENDROOT
BRANCH   1   7
HETATM    7  C   UNL     1     -42.776  54.563 -53.467  1.00  0.00     0.037 A 
HETATM    8  C   UNL     1     -42.377  53.753 -54.526  1.00  0.00     0.032 A 
HETATM    9  C   UNL     1     -41.347  52.812 -54.353  1.00  0.00     0.039 A 
HETATM   10  C   UNL     1     -40.685  52.687 -53.129  1.00  0.00     0.075 A 
HETATM   11  C   UNL     1     -41.054  53.524 -52.067  1.00  0.00    -0.026 A 
HETATM   12  C   UNL     1     -40.359  53.438 -50.735  1.00  0.00     0.051 C 
HETATM   13  C   UNL     1     -42.096  54.447 -52.246  1.00  0.00     0.039 A 
BRANCH  10  14
HETATM   14  O   UNL     1     -39.697  51.787 -52.844  1.00  0.00    -0.346 OA
BRANCH  14  15
HETATM   15  C   UNL     1     -39.956  50.384 -52.932  1.00  0.00     0.121 C 
HETATM   16  C   UNL     1     -39.207  49.785 -54.120  1.00  0.00     0.040 C 
HETATM   17  C   UNL     1     -39.440  49.769 -51.632  1.00  0.00     0.040 C 
ENDBRANCH  14  15
ENDBRANCH  10  14
ENDBRANCH   1   7
BRANCH   3  18
HETATM   18  C   UNL     1     -44.156  57.489 -56.574  1.00  0.00     0.183 C 
BRANCH  18  19
HETATM   19  C   UNL     1     -43.419  57.510 -57.894  1.00  0.00     0.053 A 
HETATM   20  N   UNL     1     -43.198  56.334 -58.541  1.00  0.00    -0.264 NA
HETATM   21  C   UNL     1     -42.554  56.390 -59.729  1.00  0.00     0.118 A 
HETATM   22  C   UNL     1     -42.129  57.563 -60.323  1.00  0.00     0.043 A 
HETATM   23  C   UNL     1     -42.386  58.749 -59.654  1.00  0.00     0.037 A 
HETATM   24 CL   UNL     1     -41.896  60.246 -60.345  1.00  0.00    -0.084 Cl
HETATM   25  C   UNL     1     -43.038  58.737 -58.429  1.00  0.00     0.052 A 
ENDBRANCH  18  19
ENDBRANCH   3  18
TORSDOF 5
ENDMDL
MODEL 4
REMARK VINA RESULT:      -7.1      3.290      8.020
REMARK  5 active torsions:
REMARK  status: ('A' for Active; 'I' for Inactive)
REMARK    1  A    between atoms: C_3  and  O_4 
REMARK    2  A    between atoms: O_4  and  C_5 
REMARK    3  A    between atoms: C_10  and  N_11 
REMARK       I    between atoms: N_11  and  C_12 
REMARK       I    between atoms: C_12  and  N_13 
REMARK    4  A    between atoms: N_13  and  C_14 
REMARK    5  A    between atoms: C_14  and  C_15 
ROOT
HETATM    1  N   UNL     1     -41.088  57.487 -54.010  1.00  0.00    -0.309 N 
HETATM    2  C   UNL     1     -41.775  58.333 -54.812  1.00  0.00     0.321 C 
HETATM    3  N   UNL     1     -42.709  57.846 -55.662  1.00  0.00    -0.337 N 
HETATM    4  O   UNL     1     -41.537  59.538 -54.721  1.00  0.00    -0.247 OA
HETATM    5  H   UNL     1     -40.524  58.028 -53.366  1.00  0.00     0.170 HD
HETATM    6  H   UNL     1     -43.209  57.021 -55.367  1.00  0.00     0.164 HD
ENDROOT
BRANCH   1   7
HETATM    7  C   UNL     1     -40.954  56.093 -53.905  1.00  0.00     0.037 A 
HETATM    8  C   UNL     1     -40.412  55.248 -54.869  1.00  0.00     0.032 A 
HETATM    9  C   UNL     1     -40.338  53.862 -54.642  1.00  0.00     0.039 A 
HETATM   10  C   UNL     1     -40.781  53.307 -53.439  1.00  0.00     0.075 A 
HETATM   11  C   UNL     1     -41.295  54.153 -52.446  1.00  0.00    -0.026 A 
HETATM   12  C   UNL     1     -41.768  53.602 -51.128  1.00  0.00     0.051 C 
HETATM   13  C   UNL     1     -41.379  55.532 -52.692  1.00  0.00     0.039 A 
BRANCH  10  14
HETATM   14  O   UNL     1     -40.787  51.976 -53.130  1.00  0.00    -0.346 OA
BRANCH  14  15
HETATM   15  C   UNL     1     -39.559  51.246 -53.074  1.00  0.00     0.121 C 
HETATM   16  C   UNL     1     -39.397  50.596 -51.702  1.00  0.00     0.040 C 
HETATM   17  C   UNL     1     -39.652  50.166 -54.150  1.00  0.00     0.040 C 
ENDBRANCH  14  15
ENDBRANCH  10  14
ENDBRANCH   1   7
BRANCH   3  18
HETATM   18  C   UNL     1     -43.504  58.790 -56.422  1.00  0.00     0.183 C 
BRANCH  18  19
HETATM   19  C   UNL     1     -44.426  58.145 -57.432  1.00  0.00     0.053 A 
HETATM   20  N   UNL     1     -45.719  58.560 -57.498  1.00  0.00    -0.264 NA
HETATM   21  C   UNL     1     -46.513  57.976 -58.425  1.00  0.00     0.118 A 
HETATM   22  C   UNL     1     -46.082  57.005 -59.309  1.00  0.00     0.043 A 
HETATM   23  C   UNL     1     -44.754  56.615 -59.236  1.00  0.00     0.037 A 
HETATM   24 CL   UNL     1     -44.150  55.421 -60.316  1.00  0.00    -0.084 Cl
HETATM   25  C   UNL     1     -43.907  57.184 -58.294  1.00  0.00     0.052 A 
ENDBRANCH  18  19
ENDBRANCH   3  18
TORSDOF 5
ENDMDL
MODEL 5
REMARK VINA RESULT:      -7.1     13.970     15.913
REMARK  5 active torsions:
REMARK  status: ('A' for Active; 'I' for Inactive)
REMARK    1  A    between atoms: C_3  and  O_4 
REMARK    2  A    between atoms: O_4  and  C_5 
REMARK    3  A    between atoms: C_10  and  N_11 
REMARK       I    between atoms: N_11  and  C_12 
REMARK       I    between atoms: C_12  and  N_13 
REMARK    4  A    between atoms: N_13  and  C_14 
REMARK    5  A    between atoms: C_14  and  C_15 
ROOT
HETATM    1  N   UNL     1     -36.847  42.200 -55.112  1.00  0.00    -0.309 N 
HETATM    2  C   UNL     1     -35.995  41.931 -54.097  1.00  0.00     0.321 C 
HETATM    3  N   UNL     1     -35.160  40.868 -54.181  1.00  0.00    -0.337 N 
HETATM    4  O   UNL     1     -35.993  42.689 -53.126  1.00  0.00    -0.247 OA
HETATM    5  H   UNL     1     -37.305  43.085 -54.933  1.00  0.00     0.170 HD
HETATM    6  H   UNL     1     -34.837  40.614 -55.102  1.00  0.00     0.164 HD
ENDROOT
BRANCH   1   7
HETATM    7  C   UNL     1     -37.254  41.536 -56.282  1.00  0.00     0.037 A 
HETATM    8  C   UNL     1     -37.833  40.272 -56.346  1.00  0.00     0.032 A 
HETATM    9  C   UNL     1     -38.193  39.715 -57.585  1.00  0.00     0.039 A 
HETATM   10  C   UNL     1     -38.003  40.425 -58.774  1.00  0.00     0.075 A 
HETATM   11  C   UNL     1     -37.455  41.714 -58.718  1.00  0.00    -0.026 A 
HETATM   12  C   UNL     1     -37.247  42.522 -59.970  1.00  0.00     0.051 C 
HETATM   13  C   UNL     1     -37.083  42.251 -57.476  1.00  0.00     0.039 A 
BRANCH  10  14
HETATM   14  O   UNL     1     -38.285  39.967 -60.030  1.00  0.00    -0.346 OA
BRANCH  14  15
HETATM   15  C   UNL     1     -37.835  38.674 -60.442  1.00  0.00     0.121 C 
HETATM   16  C   UNL     1     -38.760  38.114 -61.519  1.00  0.00     0.040 C 
HETATM   17  C   UNL     1     -36.433  38.870 -61.015  1.00  0.00     0.040 C 
ENDBRANCH  14  15
ENDBRANCH  10  14
ENDBRANCH   1   7
BRANCH   3  18
HETATM   18  C   UNL     1     -34.183  40.678 -53.128  1.00  0.00     0.183 C 
BRANCH  18  19
HETATM   19  C   UNL     1     -33.018  39.798 -53.522  1.00  0.00     0.053 A 
HETATM   20  N   UNL     1     -32.720  38.719 -52.749  1.00  0.00    -0.264 NA
HETATM   21  C   UNL     1     -31.685  37.942 -53.140  1.00  0.00     0.118 A 
HETATM   22  C   UNL     1     -30.934  38.169 -54.277  1.00  0.00     0.043 A 
HETATM   23  C   UNL     1     -31.272  39.262 -55.060  1.00  0.00     0.037 A 
HETATM   24 CL   UNL     1     -30.387  39.594 -56.497  1.00  0.00    -0.084 Cl
HETATM   25  C   UNL     1     -32.323  40.091 -54.692  1.00  0.00     0.052 A 
ENDBRANCH  18  19
ENDBRANCH   3  18
TORSDOF 5
ENDMDL
MODEL 6
REMARK VINA RESULT:      -6.9     13.983     15.623
REMARK  5 active torsions:
REMARK  status: ('A' for Active; 'I' for Inactive)
REMARK    1  A    between atoms: C_3  and  O_4 
REMARK    2  A    between atoms: O_4  and  C_5 
REMARK    3  A    between atoms: C_10  and  N_11 
REMARK       I    between atoms: N_11  and  C_12 
REMARK       I    between atoms: C_12  and  N_13 
REMARK    4  A    between atoms: N_13  and  C_14 
REMARK    5  A    between atoms: C_14  and  C_15 
ROOT
HETATM    1  N   UNL     1     -36.349  42.255 -55.103  1.00  0.00    -0.309 N 
HETATM    2  C   UNL     1     -36.145  41.992 -53.792  1.00  0.00     0.321 C 
HETATM    3  N   UNL     1     -36.307  40.732 -53.324  1.00  0.00    -0.337 N 
HETATM    4  O   UNL     1     -35.793  42.921 -53.063  1.00  0.00    -0.247 OA
HETATM    5  H   UNL     1     -36.072  43.210 -55.295  1.00  0.00     0.170 HD
HETATM    6  H   UNL     1     -36.092  39.978 -53.959  1.00  0.00     0.164 HD
ENDROOT
BRANCH   1   7
HETATM    7  C   UNL     1     -36.875  41.548 -56.197  1.00  0.00     0.037 A 
HETATM    8  C   UNL     1     -37.438  40.276 -56.154  1.00  0.00     0.032 A 
HETATM    9  C   UNL     1     -37.928  39.674 -57.327  1.00  0.00     0.039 A 
HETATM   10  C   UNL     1     -37.884  40.346 -58.551  1.00  0.00     0.075 A 
HETATM   11  C   UNL     1     -37.353  41.642 -58.599  1.00  0.00    -0.026 A 
HETATM   12  C   UNL     1     -37.301  42.411 -59.891  1.00  0.00     0.051 C 
HETATM   13  C   UNL     1     -36.852  42.225 -57.425  1.00  0.00     0.039 A 
BRANCH  10  14
HETATM   14  O   UNL     1     -38.300  39.843 -59.752  1.00  0.00    -0.346 OA
BRANCH  14  15
HETATM   15  C   UNL     1     -37.775  38.603 -60.233  1.00  0.00     0.121 C 
HETATM   16  C   UNL     1     -38.895  37.753 -60.824  1.00  0.00     0.040 C 
HETATM   17  C   UNL     1     -36.764  38.957 -61.321  1.00  0.00     0.040 C 
ENDBRANCH  14  15
ENDBRANCH  10  14
ENDBRANCH   1   7
BRANCH   3  18
HETATM   18  C   UNL     1     -35.970  40.465 -51.939  1.00  0.00     0.183 C 
BRANCH  18  19
HETATM   19  C   UNL     1     -34.526  40.073 -51.723  1.00  0.00     0.053 A 
HETATM   20  N   UNL     1     -33.798  39.641 -52.787  1.00  0.00    -0.264 NA
HETATM   21  C   UNL     1     -32.504  39.316 -52.564  1.00  0.00     0.118 A 
HETATM   22  C   UNL     1     -31.885  39.414 -51.333  1.00  0.00     0.043 A 
HETATM   23  C   UNL     1     -32.643  39.878 -50.269  1.00  0.00     0.037 A 
HETATM   24 CL   UNL     1     -31.929  40.037 -48.712  1.00  0.00    -0.084 Cl
HETATM   25  C   UNL     1     -33.977  40.215 -50.453  1.00  0.00     0.052 A 
ENDBRANCH  18  19
ENDBRANCH   3  18
TORSDOF 5
ENDMDL
MODEL 7
REMARK VINA RESULT:      -6.8      3.877      8.598
REMARK  5 active torsions:
REMARK  status: ('A' for Active; 'I' for Inactive)
REMARK    1  A    between atoms: C_3  and  O_4 
REMARK    2  A    between atoms: O_4  and  C_5 
REMARK    3  A    between atoms: C_10  and  N_11 
REMARK       I    between atoms: N_11  and  C_12 
REMARK       I    between atoms: C_12  and  N_13 
REMARK    4  A    between atoms: N_13  and  C_14 
REMARK    5  A    between atoms: C_14  and  C_15 
ROOT
HETATM    1  N   UNL     1     -43.235  54.667 -56.686  1.00  0.00    -0.309 N 
HETATM    2  C   UNL     1     -43.088  55.675 -57.576  1.00  0.00     0.321 C 
HETATM    3  N   UNL     1     -42.337  56.755 -57.254  1.00  0.00    -0.337 N 
HETATM    4  O   UNL     1     -43.635  55.562 -58.674  1.00  0.00    -0.247 OA
HETATM    5  H   UNL     1     -43.724  53.901 -57.132  1.00  0.00     0.170 HD
HETATM    6  H   UNL     1     -41.554  56.598 -56.638  1.00  0.00     0.164 HD
ENDROOT
BRANCH   1   7
HETATM    7  C   UNL     1     -42.916  54.471 -55.332  1.00  0.00     0.037 A 
HETATM    8  C   UNL     1     -43.595  55.011 -54.244  1.00  0.00     0.032 A 
HETATM    9  C   UNL     1     -43.170  54.741 -52.932  1.00  0.00     0.039 A 
HETATM   10  C   UNL     1     -42.076  53.906 -52.689  1.00  0.00     0.075 A 
HETATM   11  C   UNL     1     -41.407  53.326 -53.776  1.00  0.00    -0.026 A 
HETATM   12  C   UNL     1     -40.234  52.408 -53.563  1.00  0.00     0.051 C 
HETATM   13  C   UNL     1     -41.830  53.619 -55.081  1.00  0.00     0.039 A 
BRANCH  10  14
HETATM   14  O   UNL     1     -41.560  53.604 -51.460  1.00  0.00    -0.346 OA
BRANCH  14  15
HETATM   15  C   UNL     1     -40.859  54.599 -50.711  1.00  0.00     0.121 C 
HETATM   16  C   UNL     1     -41.734  55.112 -49.571  1.00  0.00     0.040 C 
HETATM   17  C   UNL     1     -39.618  53.913 -50.142  1.00  0.00     0.040 C 
ENDBRANCH  14  15
ENDBRANCH  10  14
ENDBRANCH   1   7
BRANCH   3  18
HETATM   18  C   UNL     1     -42.109  57.760 -58.272  1.00  0.00     0.183 C 
BRANCH  18  19
HETATM   19  C   UNL     1     -42.318  59.179 -57.792  1.00  0.00     0.053 A 
HETATM   20  N   UNL     1     -43.252  59.416 -56.833  1.00  0.00    -0.264 NA
HETATM   21  C   UNL     1     -43.400  60.692 -56.411  1.00  0.00     0.118 A 
HETATM   22  C   UNL     1     -42.651  61.753 -56.882  1.00  0.00     0.043 A 
HETATM   23  C   UNL     1     -41.690  61.482 -57.843  1.00  0.00     0.037 A 
HETATM   24 CL   UNL     1     -40.713  62.755 -58.463  1.00  0.00    -0.084 Cl
HETATM   25  C   UNL     1     -41.510  60.187 -58.309  1.00  0.00     0.052 A 
ENDBRANCH  18  19
ENDBRANCH   3  18
TORSDOF 5
ENDMDL
MODEL 8
REMARK VINA RESULT:      -6.7     14.332     17.249
REMARK  5 active torsions:
REMARK  status: ('A' for Active; 'I' for Inactive)
REMARK    1  A    between atoms: C_3  and  O_4 
REMARK    2  A    between atoms: O_4  and  C_5 
REMARK    3  A    between atoms: C_10  and  N_11 
REMARK       I    between atoms: N_11  and  C_12 
REMARK       I    between atoms: C_12  and  N_13 
REMARK    4  A    between atoms: N_13  and  C_14 
REMARK    5  A    between atoms: C_14  and  C_15 
ROOT
HETATM    1  N   UNL     1     -36.635  42.402 -58.281  1.00  0.00    -0.309 N 
HETATM    2  C   UNL     1     -37.111  41.712 -59.343  1.00  0.00     0.321 C 
HETATM    3  N   UNL     1     -37.391  40.393 -59.220  1.00  0.00    -0.337 N 
HETATM    4  O   UNL     1     -37.295  42.325 -60.396  1.00  0.00    -0.247 OA
HETATM    5  H   UNL     1     -36.595  43.385 -58.518  1.00  0.00     0.170 HD
HETATM    6  H   UNL     1     -37.708  40.077 -58.316  1.00  0.00     0.164 HD
ENDROOT
BRANCH   1   7
HETATM    7  C   UNL     1     -36.166  42.070 -56.999  1.00  0.00     0.037 A 
HETATM    8  C   UNL     1     -36.878  42.192 -55.810  1.00  0.00     0.032 A 
HETATM    9  C   UNL     1     -36.290  41.826 -54.587  1.00  0.00     0.039 A 
HETATM   10  C   UNL     1     -34.992  41.311 -54.539  1.00  0.00     0.075 A 
HETATM   11  C   UNL     1     -34.279  41.148 -55.735  1.00  0.00    -0.026 A 
HETATM   12  C   UNL     1     -32.886  40.581 -55.735  1.00  0.00     0.051 C 
HETATM   13  C   UNL     1     -34.871  41.533 -56.948  1.00  0.00     0.039 A 
BRANCH  10  14
HETATM   14  O   UNL     1     -34.316  40.957 -53.405  1.00  0.00    -0.346 OA
BRANCH  14  15
HETATM   15  C   UNL     1     -35.007  40.849 -52.159  1.00  0.00     0.121 C 
HETATM   16  C   UNL     1     -34.687  39.514 -51.494  1.00  0.00     0.040 C 
HETATM   17  C   UNL     1     -34.502  41.996 -51.287  1.00  0.00     0.040 C 
ENDBRANCH  14  15
ENDBRANCH  10  14
ENDBRANCH   1   7
BRANCH   3  18
HETATM   18  C   UNL     1     -38.005  39.714 -60.344  1.00  0.00     0.183 C 
BRANCH  18  19
HETATM   19  C   UNL     1     -37.024  38.976 -61.226  1.00  0.00     0.053 A 
HETATM   20  N   UNL     1     -37.339  38.776 -62.534  1.00  0.00    -0.264 NA
HETATM   21  C   UNL     1     -36.431  38.129 -63.300  1.00  0.00     0.118 A 
HETATM   22  C   UNL     1     -35.209  37.682 -62.837  1.00  0.00     0.043 A 
HETATM   23  C   UNL     1     -34.902  37.917 -61.506  1.00  0.00     0.037 A 
HETATM   24 CL   UNL     1     -33.391  37.398 -60.869  1.00  0.00    -0.084 Cl
HETATM   25  C   UNL     1     -35.808  38.571 -60.683  1.00  0.00     0.052 A 
ENDBRANCH  18  19
ENDBRANCH   3  18
TORSDOF 5
ENDMDL
MODEL 9
REMARK VINA RESULT:      -6.7      3.966      5.715
REMARK  5 active torsions:
REMARK  status: ('A' for Active; 'I' for Inactive)
REMARK    1  A    between atoms: C_3  and  O_4 
REMARK    2  A    between atoms: O_4  and  C_5 
REMARK    3  A    between atoms: C_10  and  N_11 
REMARK       I    between atoms: N_11  and  C_12 
REMARK       I    between atoms: C_12  and  N_13 
REMARK    4  A    between atoms: N_13  and  C_14 
REMARK    5  A    between atoms: C_14  and  C_15 
ROOT
HETATM    1  N   UNL     1     -44.104  56.373 -53.277  1.00  0.00    -0.309 N 
HETATM    2  C   UNL     1     -43.363  55.502 -54.000  1.00  0.00     0.321 C 
HETATM    3  N   UNL     1     -42.028  55.692 -54.120  1.00  0.00    -0.337 N 
HETATM    4  O   UNL     1     -43.937  54.541 -54.513  1.00  0.00    -0.247 OA
HETATM    5  H   UNL     1     -45.048  56.016 -53.197  1.00  0.00     0.170 HD
HETATM    6  H   UNL     1     -41.556  56.124 -53.341  1.00  0.00     0.164 HD
ENDROOT
BRANCH   1   7
HETATM    7  C   UNL     1     -43.879  57.623 -52.677  1.00  0.00     0.037 A 
HETATM    8  C   UNL     1     -44.697  58.744 -52.790  1.00  0.00     0.032 A 
HETATM    9  C   UNL     1     -44.356  59.943 -52.140  1.00  0.00     0.039 A 
HETATM   10  C   UNL     1     -43.209  60.030 -51.348  1.00  0.00     0.075 A 
HETATM   11  C   UNL     1     -42.398  58.896 -51.196  1.00  0.00    -0.026 A 
HETATM   12  C   UNL     1     -41.162  58.937 -50.339  1.00  0.00     0.051 C 
HETATM   13  C   UNL     1     -42.739  57.711 -51.865  1.00  0.00     0.039 A 
BRANCH  10  14
HETATM   14  O   UNL     1     -42.768  61.150 -50.701  1.00  0.00    -0.346 OA
BRANCH  14  15
HETATM   15  C   UNL     1     -43.687  62.191 -50.359  1.00  0.00     0.121 C 
HETATM   16  C   UNL     1     -44.334  61.896 -49.009  1.00  0.00     0.040 C 
HETATM   17  C   UNL     1     -42.867  63.476 -50.271  1.00  0.00     0.040 C 
ENDBRANCH  14  15
ENDBRANCH  10  14
ENDBRANCH   1   7
BRANCH   3  18
HETATM   18  C   UNL     1     -41.250  54.679 -54.806  1.00  0.00     0.183 C 
BRANCH  18  19
HETATM   19  C   UNL     1     -40.659  53.633 -53.888  1.00  0.00     0.053 A 
HETATM   20  N   UNL     1     -40.507  53.928 -52.569  1.00  0.00    -0.264 NA
HETATM   21  C   UNL     1     -39.994  52.963 -51.772  1.00  0.00     0.118 A 
HETATM   22  C   UNL     1     -39.636  51.704 -52.215  1.00  0.00     0.043 A 
HETATM   23  C   UNL     1     -39.822  51.421 -53.559  1.00  0.00     0.037 A 
HETATM   24 CL   UNL     1     -39.410  49.868 -54.173  1.00  0.00    -0.084 Cl
HETATM   25  C   UNL     1     -40.339  52.384 -54.414  1.00  0.00     0.052 A 
ENDBRANCH  18  19
ENDBRANCH   3  18
TORSDOF 5
ENDMDL
MODEL 10
REMARK VINA RESULT:      -6.7      2.318      2.731
REMARK  5 active torsions:
REMARK  status: ('A' for Active; 'I' for Inactive)
REMARK    1  A    between atoms: C_3  and  O_4 
REMARK    2  A    between atoms: O_4  and  C_5 
REMARK    3  A    between atoms: C_10  and  N_11 
REMARK       I    between atoms: N_11  and  C_12 
REMARK       I    between atoms: C_12  and  N_13 
REMARK    4  A    between atoms: N_13  and  C_14 
REMARK    5  A    between atoms: C_14  and  C_15 
ROOT
HETATM    1  N   UNL     1     -44.357  56.702 -52.874  1.00  0.00    -0.309 N 
HETATM    2  C   UNL     1     -43.615  56.671 -51.743  1.00  0.00     0.321 C 
HETATM    3  N   UNL     1     -42.276  56.868 -51.810  1.00  0.00    -0.337 N 
HETATM    4  O   UNL     1     -44.196  56.484 -50.674  1.00  0.00    -0.247 OA
HETATM    5  H   UNL     1     -45.337  56.654 -52.626  1.00  0.00     0.170 HD
HETATM    6  H   UNL     1     -41.941  57.482 -52.536  1.00  0.00     0.164 HD
ENDROOT
BRANCH   1   7
HETATM    7  C   UNL     1     -44.084  56.739 -54.251  1.00  0.00     0.037 A 
HETATM    8  C   UNL     1     -43.234  55.879 -54.940  1.00  0.00     0.032 A 
HETATM    9  C   UNL     1     -43.042  56.025 -56.325  1.00  0.00     0.039 A 
HETATM   10  C   UNL     1     -43.717  57.016 -57.043  1.00  0.00     0.075 A 
HETATM   11  C   UNL     1     -44.604  57.864 -56.366  1.00  0.00    -0.026 A 
HETATM   12  C   UNL     1     -45.365  58.935 -57.099  1.00  0.00     0.051 C 
HETATM   13  C   UNL     1     -44.773  57.719 -54.980  1.00  0.00     0.039 A 
BRANCH  10  14
HETATM   14  O   UNL     1     -43.579  57.266 -58.380  1.00  0.00    -0.346 OA
BRANCH  14  15
HETATM   15  C   UNL     1     -42.942  56.309 -59.228  1.00  0.00     0.121 C 
HETATM   16  C   UNL     1     -43.984  55.575 -60.067  1.00  0.00     0.040 C 
HETATM   17  C   UNL     1     -42.006  57.100 -60.141  1.00  0.00     0.040 C 
ENDBRANCH  14  15
ENDBRANCH  10  14
ENDBRANCH   1   7
BRANCH   3  18
HETATM   18  C   UNL     1     -41.531  56.940 -50.569  1.00  0.00     0.183 C 
BRANCH  18  19
HETATM   19  C   UNL     1     -41.079  55.596 -50.044  1.00  0.00     0.053 A 
HETATM   20  N   UNL     1     -41.095  55.377 -48.702  1.00  0.00    -0.264 NA
HETATM   21  C   UNL     1     -40.703  54.158 -48.266  1.00  0.00     0.118 A 
HETATM   22  C   UNL     1     -40.309  53.130 -49.101  1.00  0.00     0.043 A 
HETATM   23  C   UNL     1     -40.322  53.371 -50.466  1.00  0.00     0.037 A 
HETATM   24 CL   UNL     1     -39.856  52.130 -51.561  1.00  0.00    -0.084 Cl
HETATM   25  C   UNL     1     -40.711  54.611 -50.955  1.00  0.00     0.052 A 
ENDBRANCH  18  19
ENDBRANCH   3  18
TORSDOF 5
ENDMDL
