MODEL 1
REMARK VINA RESULT:      -8.5      0.000      0.000
REMARK  4 active torsions:
REMARK  status: ('A' for Active; 'I' for Inactive)
REMARK    1  A    between atoms: C_10  and  C_11 
REMARK       I    between atoms: C_11  and  N_12 
REMARK    2  A    between atoms: N_12  and  N_13 
REMARK       I    between atoms: N_13  and  C_14 
REMARK    3  A    between atoms: C_14  and  C_15 
REMARK    4  A    between atoms: C_15  and  C_16 
ROOT
HETATM    1  C   UNL     1     -43.051  57.144 -57.373  1.00  0.00     0.272 C 
HETATM    2  N   UNL     1     -42.924  55.947 -56.702  1.00  0.00    -0.263 N 
HETATM    3  O   UNL     1     -42.109  57.935 -57.441  1.00  0.00    -0.266 OA
HETATM    4  H   UNL     1     -43.658  55.242 -56.648  1.00  0.00     0.190 HD
ENDROOT
BRANCH   2   5
HETATM    5  N   UNL     1     -41.677  55.603 -56.164  1.00  0.00    -0.267 N 
HETATM    6  C   UNL     1     -41.587  54.482 -55.367  1.00  0.00     0.240 C 
HETATM    7  O   UNL     1     -42.562  53.795 -55.068  1.00  0.00    -0.272 OA
HETATM    8  H   UNL     1     -40.899  56.223 -56.377  1.00  0.00     0.190 HD
BRANCH   6   9
HETATM    9  C   UNL     1     -40.182  54.162 -54.893  1.00  0.00     0.143 C 
BRANCH   9  10
HETATM   10  C   UNL     1     -40.091  53.053 -53.871  1.00  0.00    -0.049 A 
HETATM   11  C   UNL     1     -39.836  51.723 -54.238  1.00  0.00     0.009 A 
HETATM   12  C   UNL     1     -39.700  50.729 -53.265  1.00  0.00     0.024 A 
HETATM   13  C   UNL     1     -39.796  51.060 -51.916  1.00  0.00     0.034 A 
HETATM   14 CL   UNL     1     -39.614  49.839 -50.719  1.00  0.00    -0.084 Cl
HETATM   15  C   UNL     1     -40.030  52.377 -51.531  1.00  0.00     0.024 A 
HETATM   16  C   UNL     1     -40.171  53.370 -52.505  1.00  0.00     0.009 A 
ENDBRANCH   9  10
ENDBRANCH   6   9
ENDBRANCH   2   5
BRANCH   1  17
HETATM   17  C   UNL     1     -44.351  57.425 -57.986  1.00  0.00     0.064 A 
HETATM   18  C   UNL     1     -45.033  56.846 -59.115  1.00  0.00     0.046 A 
HETATM   19  C   UNL     1     -44.751  55.830 -60.053  1.00  0.00     0.130 A 
HETATM   20  C   UNL     1     -46.257  57.513 -59.256  1.00  0.00     0.046 A 
HETATM   21  C   UNL     1     -45.657  55.508 -61.065  1.00  0.00     0.043 A 
HETATM   22  F   UNL     1     -43.600  55.148 -59.994  1.00  0.00    -0.205 F 
HETATM   23  C   UNL     1     -46.864  56.190 -61.166  1.00  0.00     0.005 A 
HETATM   24  C   UNL     1     -47.185  57.207 -60.262  1.00  0.00     0.030 A 
HETATM   25  N   UNL     1     -46.324  58.458 -58.261  1.00  0.00    -0.364 N 
HETATM   26  H   UNL     1     -47.099  59.092 -58.120  1.00  0.00     0.165 HD
HETATM   27  C   UNL     1     -45.191  58.419 -57.502  1.00  0.00     0.106 A 
ENDBRANCH   1  17
TORSDOF 4
ENDMDL
MODEL 2
REMARK VINA RESULT:      -8.5      1.582      2.057
REMARK  4 active torsions:
REMARK  status: ('A' for Active; 'I' for Inactive)
REMARK    1  A    between atoms: C_10  and  C_11 
REMARK       I    between atoms: C_11  and  N_12 
REMARK    2  A    between atoms: N_12  and  N_13 
REMARK       I    between atoms: N_13  and  C_14 
REMARK    3  A    between atoms: C_14  and  C_15 
REMARK    4  A    between atoms: C_15  and  C_16 
ROOT
HETATM    1  C   UNL     1     -43.201  56.093 -58.190  1.00  0.00     0.272 C 
HETATM    2  N   UNL     1     -43.096  55.172 -57.170  1.00  0.00    -0.263 N 
HETATM    3  O   UNL     1     -42.437  57.058 -58.253  1.00  0.00    -0.266 OA
HETATM    4  H   UNL     1     -43.677  54.339 -57.092  1.00  0.00     0.190 HD
ENDROOT
BRANCH   2   5
HETATM    5  N   UNL     1     -42.052  55.304 -56.245  1.00  0.00    -0.267 N 
HETATM    6  C   UNL     1     -42.231  54.813 -54.971  1.00  0.00     0.240 C 
HETATM    7  O   UNL     1     -43.286  54.305 -54.592  1.00  0.00    -0.272 OA
HETATM    8  H   UNL     1     -41.213  55.784 -56.566  1.00  0.00     0.190 HD
BRANCH   6   9
HETATM    9  C   UNL     1     -41.017  54.945 -54.072  1.00  0.00     0.143 C 
BRANCH   9  10
HETATM   10  C   UNL     1     -40.611  53.677 -53.356  1.00  0.00    -0.049 A 
HETATM   11  C   UNL     1     -40.182  52.537 -54.051  1.00  0.00     0.009 A 
HETATM   12  C   UNL     1     -39.758  51.398 -53.359  1.00  0.00     0.024 A 
HETATM   13  C   UNL     1     -39.739  51.400 -51.967  1.00  0.00     0.034 A 
HETATM   14 CL   UNL     1     -39.203  50.004 -51.116  1.00  0.00    -0.084 Cl
HETATM   15  C   UNL     1     -40.142  52.529 -51.260  1.00  0.00     0.024 A 
HETATM   16  C   UNL     1     -40.572  53.665 -51.952  1.00  0.00     0.009 A 
ENDBRANCH   9  10
ENDBRANCH   6   9
ENDBRANCH   2   5
BRANCH   1  17
HETATM   17  C   UNL     1     -44.260  55.871 -59.177  1.00  0.00     0.064 A 
HETATM   18  C   UNL     1     -45.339  56.706 -59.640  1.00  0.00     0.046 A 
HETATM   19  C   UNL     1     -45.805  58.007 -59.353  1.00  0.00     0.130 A 
HETATM   20  C   UNL     1     -46.056  55.975 -60.596  1.00  0.00     0.046 A 
HETATM   21  C   UNL     1     -46.925  58.533 -60.000  1.00  0.00     0.043 A 
HETATM   22  F   UNL     1     -45.181  58.770 -58.446  1.00  0.00    -0.205 F 
HETATM   23  C   UNL     1     -47.605  57.777 -60.947  1.00  0.00     0.005 A 
HETATM   24  C   UNL     1     -47.182  56.482 -61.262  1.00  0.00     0.030 A 
HETATM   25  N   UNL     1     -45.448  54.749 -60.714  1.00  0.00    -0.364 N 
HETATM   26  H   UNL     1     -45.755  54.012 -61.334  1.00  0.00     0.165 HD
HETATM   27  C   UNL     1     -44.380  54.674 -59.868  1.00  0.00     0.106 A 
ENDBRANCH   1  17
TORSDOF 4
ENDMDL
MODEL 3
REMARK VINA RESULT:      -8.4      3.688      9.010
REMARK  4 active torsions:
REMARK  status: ('A' for Active; 'I' for Inactive)
REMARK    1  A    between atoms: C_10  and  C_11 
REMARK       I    between atoms: C_11  and  N_12 
REMARK    2  A    between atoms: N_12  and  N_13 
REMARK       I    between atoms: N_13  and  C_14 
REMARK    3  A    between atoms: C_14  and  C_15 
REMARK    4  A    between atoms: C_15  and  C_16 
ROOT
HETATM    1  C   UNL     1     -40.674  54.059 -54.636  1.00  0.00     0.272 C 
HETATM    2  N   UNL     1     -41.821  54.791 -54.855  1.00  0.00    -0.263 N 
HETATM    3  O   UNL     1     -39.829  53.924 -55.523  1.00  0.00    -0.266 OA
HETATM    4  H   UNL     1     -42.532  54.963 -54.146  1.00  0.00     0.190 HD
ENDROOT
BRANCH   2   5
HETATM    5  N   UNL     1     -41.977  55.451 -56.081  1.00  0.00    -0.267 N 
HETATM    6  C   UNL     1     -42.416  56.757 -56.078  1.00  0.00     0.240 C 
HETATM    7  O   UNL     1     -42.725  57.356 -55.048  1.00  0.00    -0.272 OA
HETATM    8  H   UNL     1     -41.775  54.913 -56.921  1.00  0.00     0.190 HD
BRANCH   6   9
HETATM    9  C   UNL     1     -42.485  57.398 -57.450  1.00  0.00     0.143 C 
BRANCH   9  10
HETATM   10  C   UNL     1     -43.745  57.101 -58.232  1.00  0.00    -0.049 A 
HETATM   11  C   UNL     1     -44.926  57.833 -58.043  1.00  0.00     0.009 A 
HETATM   12  C   UNL     1     -46.058  57.573 -58.821  1.00  0.00     0.024 A 
HETATM   13  C   UNL     1     -46.010  56.592 -59.808  1.00  0.00     0.034 A 
HETATM   14 CL   UNL     1     -47.398  56.283 -60.776  1.00  0.00    -0.084 Cl
HETATM   15  C   UNL     1     -44.841  55.868 -60.024  1.00  0.00     0.024 A 
HETATM   16  C   UNL     1     -43.711  56.125 -59.241  1.00  0.00     0.009 A 
ENDBRANCH   9  10
ENDBRANCH   6   9
ENDBRANCH   2   5
BRANCH   1  17
HETATM   17  C   UNL     1     -40.520  53.451 -53.313  1.00  0.00     0.064 A 
HETATM   18  C   UNL     1     -40.177  52.114 -52.898  1.00  0.00     0.046 A 
HETATM   19  C   UNL     1     -39.869  50.901 -53.550  1.00  0.00     0.130 A 
HETATM   20  C   UNL     1     -40.180  52.094 -51.497  1.00  0.00     0.046 A 
HETATM   21  C   UNL     1     -39.577  49.744 -52.826  1.00  0.00     0.043 A 
HETATM   22  F   UNL     1     -39.851  50.832 -54.888  1.00  0.00    -0.205 F 
HETATM   23  C   UNL     1     -39.586  49.768 -51.437  1.00  0.00     0.005 A 
HETATM   24  C   UNL     1     -39.888  50.945 -50.747  1.00  0.00     0.030 A 
HETATM   25  N   UNL     1     -40.510  53.357 -51.071  1.00  0.00    -0.364 N 
HETATM   26  H   UNL     1     -40.591  53.635 -50.102  1.00  0.00     0.165 HD
HETATM   27  C   UNL     1     -40.721  54.172 -52.145  1.00  0.00     0.106 A 
ENDBRANCH   1  17
TORSDOF 4
ENDMDL
MODEL 4
REMARK VINA RESULT:      -7.9      4.052      8.759
REMARK  4 active torsions:
REMARK  status: ('A' for Active; 'I' for Inactive)
REMARK    1  A    between atoms: C_10  and  C_11 
REMARK       I    between atoms: C_11  and  N_12 
REMARK    2  A    between atoms: N_12  and  N_13 
REMARK       I    between atoms: N_13  and  C_14 
REMARK    3  A    between atoms: C_14  and  C_15 
REMARK    4  A    between atoms: C_15  and  C_16 
ROOT
HETATM    1  C   UNL     1     -40.908  54.768 -53.138  1.00  0.00     0.272 C 
HETATM    2  N   UNL     1     -41.988  55.505 -52.703  1.00  0.00    -0.263 N 
HETATM    3  O   UNL     1     -40.306  55.073 -54.169  1.00  0.00    -0.266 OA
HETATM    4  H   UNL     1     -42.496  55.318 -51.840  1.00  0.00     0.190 HD
ENDROOT
BRANCH   2   5
HETATM    5  N   UNL     1     -42.344  56.662 -53.410  1.00  0.00    -0.267 N 
HETATM    6  C   UNL     1     -43.476  56.634 -54.195  1.00  0.00     0.240 C 
HETATM    7  O   UNL     1     -44.163  55.624 -54.343  1.00  0.00    -0.272 OA
HETATM    8  H   UNL     1     -41.725  57.464 -53.319  1.00  0.00     0.190 HD
BRANCH   6   9
HETATM    9  C   UNL     1     -43.808  57.956 -54.861  1.00  0.00     0.143 C 
BRANCH   9  10
HETATM   10  C   UNL     1     -43.331  58.089 -56.289  1.00  0.00    -0.049 A 
HETATM   11  C   UNL     1     -42.317  58.987 -56.653  1.00  0.00     0.009 A 
HETATM   12  C   UNL     1     -41.857  59.047 -57.971  1.00  0.00     0.024 A 
HETATM   13  C   UNL     1     -42.393  58.194 -58.932  1.00  0.00     0.034 A 
HETATM   14 CL   UNL     1     -41.816  58.257 -60.551  1.00  0.00    -0.084 Cl
HETATM   15  C   UNL     1     -43.387  57.283 -58.586  1.00  0.00     0.024 A 
HETATM   16  C   UNL     1     -43.850  57.227 -57.269  1.00  0.00     0.009 A 
ENDBRANCH   9  10
ENDBRANCH   6   9
ENDBRANCH   2   5
BRANCH   1  17
HETATM   17  C   UNL     1     -40.525  53.612 -52.325  1.00  0.00     0.064 A 
HETATM   18  C   UNL     1     -40.183  52.256 -52.672  1.00  0.00     0.046 A 
HETATM   19  C   UNL     1     -40.084  51.514 -53.869  1.00  0.00     0.130 A 
HETATM   20  C   UNL     1     -39.904  51.573 -51.481  1.00  0.00     0.046 A 
HETATM   21  C   UNL     1     -39.720  50.167 -53.857  1.00  0.00     0.043 A 
HETATM   22  F   UNL     1     -40.341  52.090 -55.051  1.00  0.00    -0.205 F 
HETATM   23  C   UNL     1     -39.446  49.528 -52.654  1.00  0.00     0.005 A 
HETATM   24  C   UNL     1     -39.534  50.221 -51.443  1.00  0.00     0.030 A 
HETATM   25  N   UNL     1     -40.068  52.466 -50.451  1.00  0.00    -0.364 N 
HETATM   26  H   UNL     1     -39.935  52.246 -49.472  1.00  0.00     0.165 HD
HETATM   27  C   UNL     1     -40.444  53.682 -50.941  1.00  0.00     0.106 A 
ENDBRANCH   1  17
TORSDOF 4
ENDMDL
MODEL 5
REMARK VINA RESULT:      -7.8      4.854      5.872
REMARK  4 active torsions:
REMARK  status: ('A' for Active; 'I' for Inactive)
REMARK    1  A    between atoms: C_10  and  C_11 
REMARK       I    between atoms: C_11  and  N_12 
REMARK    2  A    between atoms: N_12  and  N_13 
REMARK       I    between atoms: N_13  and  C_14 
REMARK    3  A    between atoms: C_14  and  C_15 
REMARK    4  A    between atoms: C_15  and  C_16 
ROOT
HETATM    1  C   UNL     1     -43.181  56.021 -52.363  1.00  0.00     0.272 C 
HETATM    2  N   UNL     1     -43.024  55.892 -53.725  1.00  0.00    -0.263 N 
HETATM    3  O   UNL     1     -42.867  55.106 -51.600  1.00  0.00    -0.266 OA
HETATM    4  H   UNL     1     -43.233  56.631 -54.396  1.00  0.00     0.190 HD
ENDROOT
BRANCH   2   5
HETATM    5  N   UNL     1     -42.424  54.731 -54.230  1.00  0.00    -0.267 N 
HETATM    6  C   UNL     1     -41.098  54.780 -54.601  1.00  0.00     0.240 C 
HETATM    7  O   UNL     1     -40.428  55.811 -54.555  1.00  0.00    -0.272 OA
HETATM    8  H   UNL     1     -43.017  53.909 -54.316  1.00  0.00     0.190 HD
BRANCH   6   9
HETATM    9  C   UNL     1     -40.529  53.454 -55.069  1.00  0.00     0.143 C 
BRANCH   9  10
HETATM   10  C   UNL     1     -40.158  52.493 -53.962  1.00  0.00    -0.049 A 
HETATM   11  C   UNL     1     -40.041  52.906 -52.627  1.00  0.00     0.009 A 
HETATM   12  C   UNL     1     -39.753  51.983 -51.618  1.00  0.00     0.024 A 
HETATM   13  C   UNL     1     -39.601  50.636 -51.933  1.00  0.00     0.034 A 
HETATM   14 CL   UNL     1     -39.261  49.497 -50.689  1.00  0.00    -0.084 Cl
HETATM   15  C   UNL     1     -39.732  50.203 -53.250  1.00  0.00     0.024 A 
HETATM   16  C   UNL     1     -40.015  51.128 -54.259  1.00  0.00     0.009 A 
ENDBRANCH   9  10
ENDBRANCH   6   9
ENDBRANCH   2   5
BRANCH   1  17
HETATM   17  C   UNL     1     -43.742  57.283 -51.876  1.00  0.00     0.064 A 
HETATM   18  C   UNL     1     -43.420  58.658 -52.164  1.00  0.00     0.046 A 
HETATM   19  C   UNL     1     -42.483  59.327 -52.981  1.00  0.00     0.130 A 
HETATM   20  C   UNL     1     -44.281  59.460 -51.404  1.00  0.00     0.046 A 
HETATM   21  C   UNL     1     -42.430  60.721 -53.028  1.00  0.00     0.043 A 
HETATM   22  F   UNL     1     -41.619  58.634 -53.734  1.00  0.00    -0.205 F 
HETATM   23  C   UNL     1     -43.306  61.480 -52.262  1.00  0.00     0.005 A 
HETATM   24  C   UNL     1     -44.248  60.862 -51.435  1.00  0.00     0.030 A 
HETATM   25  N   UNL     1     -45.092  58.619 -50.683  1.00  0.00    -0.364 N 
HETATM   26  H   UNL     1     -45.813  58.924 -50.042  1.00  0.00     0.165 HD
HETATM   27  C   UNL     1     -44.775  57.320 -50.951  1.00  0.00     0.106 A 
ENDBRANCH   1  17
TORSDOF 4
ENDMDL
MODEL 6
REMARK VINA RESULT:      -7.8     14.993     16.305
REMARK  4 active torsions:
REMARK  status: ('A' for Active; 'I' for Inactive)
REMARK    1  A    between atoms: C_10  and  C_11 
REMARK       I    between atoms: C_11  and  N_12 
REMARK    2  A    between atoms: N_12  and  N_13 
REMARK       I    between atoms: N_13  and  C_14 
REMARK    3  A    between atoms: C_14  and  C_15 
REMARK    4  A    between atoms: C_15  and  C_16 
ROOT
HETATM    1  C   UNL     1     -37.496  41.474 -56.749  1.00  0.00     0.272 C 
HETATM    2  N   UNL     1     -36.417  42.129 -56.196  1.00  0.00    -0.263 N 
HETATM    3  O   UNL     1     -38.441  41.107 -56.049  1.00  0.00    -0.266 OA
HETATM    4  H   UNL     1     -35.629  42.486 -56.735  1.00  0.00     0.190 HD
ENDROOT
BRANCH   2   5
HETATM    5  N   UNL     1     -36.447  42.447 -54.832  1.00  0.00    -0.267 N 
HETATM    6  C   UNL     1     -35.557  41.820 -53.987  1.00  0.00     0.240 C 
HETATM    7  O   UNL     1     -34.768  40.956 -54.369  1.00  0.00    -0.272 OA
HETATM    8  H   UNL     1     -37.151  43.118 -54.532  1.00  0.00     0.190 HD
BRANCH   6   9
HETATM    9  C   UNL     1     -35.627  42.286 -52.546  1.00  0.00     0.143 C 
BRANCH   9  10
HETATM   10  C   UNL     1     -35.125  41.288 -51.527  1.00  0.00    -0.049 A 
HETATM   11  C   UNL     1     -35.943  40.265 -51.024  1.00  0.00     0.009 A 
HETATM   12  C   UNL     1     -35.433  39.322 -50.126  1.00  0.00     0.024 A 
HETATM   13  C   UNL     1     -34.096  39.383 -49.741  1.00  0.00     0.034 A 
HETATM   14 CL   UNL     1     -33.466  38.214 -48.649  1.00  0.00    -0.084 Cl
HETATM   15  C   UNL     1     -33.264  40.379 -50.245  1.00  0.00     0.024 A 
HETATM   16  C   UNL     1     -33.776  41.324 -51.139  1.00  0.00     0.009 A 
ENDBRANCH   9  10
ENDBRANCH   6   9
ENDBRANCH   2   5
BRANCH   1  17
HETATM   17  C   UNL     1     -37.455  41.231 -58.193  1.00  0.00     0.064 A 
HETATM   18  C   UNL     1     -37.660  40.042 -58.980  1.00  0.00     0.046 A 
HETATM   19  C   UNL     1     -37.964  38.690 -58.707  1.00  0.00     0.130 A 
HETATM   20  C   UNL     1     -37.492  40.392 -60.326  1.00  0.00     0.046 A 
HETATM   21  C   UNL     1     -38.093  37.757 -59.737  1.00  0.00     0.043 A 
HETATM   22  F   UNL     1     -38.134  38.271 -57.447  1.00  0.00    -0.205 F 
HETATM   23  C   UNL     1     -37.923  38.147 -61.060  1.00  0.00     0.005 A 
HETATM   24  C   UNL     1     -37.619  39.474 -61.378  1.00  0.00     0.030 A 
HETATM   25  N   UNL     1     -37.196  41.733 -60.364  1.00  0.00    -0.364 N 
HETATM   26  H   UNL     1     -37.020  42.259 -61.210  1.00  0.00     0.165 HD
HETATM   27  C   UNL     1     -37.165  42.242 -59.099  1.00  0.00     0.106 A 
ENDBRANCH   1  17
TORSDOF 4
ENDMDL
MODEL 7
REMARK VINA RESULT:      -7.7     15.052     18.416
REMARK  4 active torsions:
REMARK  status: ('A' for Active; 'I' for Inactive)
REMARK    1  A    between atoms: C_10  and  C_11 
REMARK       I    between atoms: C_11  and  N_12 
REMARK    2  A    between atoms: N_12  and  N_13 
REMARK       I    between atoms: N_13  and  C_14 
REMARK    3  A    between atoms: C_14  and  C_15 
REMARK    4  A    between atoms: C_15  and  C_16 
ROOT
HETATM    1  C   UNL     1     -36.645  40.359 -52.117  1.00  0.00     0.272 C 
HETATM    2  N   UNL     1     -36.347  41.604 -52.625  1.00  0.00    -0.263 N 
HETATM    3  O   UNL     1     -37.586  39.701 -52.562  1.00  0.00    -0.266 OA
HETATM    4  H   UNL     1     -35.558  42.172 -52.319  1.00  0.00     0.190 HD
ENDROOT
BRANCH   2   5
HETATM    5  N   UNL     1     -37.084  42.081 -53.717  1.00  0.00    -0.267 N 
HETATM    6  C   UNL     1     -36.508  42.052 -54.968  1.00  0.00     0.240 C 
HETATM    7  O   UNL     1     -35.355  41.669 -55.164  1.00  0.00    -0.272 OA
HETATM    8  H   UNL     1     -38.012  42.450 -53.518  1.00  0.00     0.190 HD
BRANCH   6   9
HETATM    9  C   UNL     1     -37.414  42.527 -56.087  1.00  0.00     0.143 C 
BRANCH   9  10
HETATM   10  C   UNL     1     -37.477  41.613 -57.290  1.00  0.00    -0.049 A 
HETATM   11  C   UNL     1     -38.049  40.334 -57.222  1.00  0.00     0.009 A 
HETATM   12  C   UNL     1     -38.145  39.535 -58.365  1.00  0.00     0.024 A 
HETATM   13  C   UNL     1     -37.687  40.017 -59.589  1.00  0.00     0.034 A 
HETATM   14 CL   UNL     1     -37.818  39.039 -60.998  1.00  0.00    -0.084 Cl
HETATM   15  C   UNL     1     -37.133  41.291 -59.680  1.00  0.00     0.024 A 
HETATM   16  C   UNL     1     -37.033  42.087 -58.535  1.00  0.00     0.009 A 
ENDBRANCH   9  10
ENDBRANCH   6   9
ENDBRANCH   2   5
BRANCH   1  17
HETATM   17  C   UNL     1     -35.798  39.869 -51.027  1.00  0.00     0.064 A 
HETATM   18  C   UNL     1     -34.369  39.871 -50.837  1.00  0.00     0.046 A 
HETATM   19  C   UNL     1     -33.252  40.313 -51.577  1.00  0.00     0.130 A 
HETATM   20  C   UNL     1     -34.108  39.262 -49.602  1.00  0.00     0.046 A 
HETATM   21  C   UNL     1     -31.953  40.153 -51.093  1.00  0.00     0.043 A 
HETATM   22  F   UNL     1     -33.415  40.900 -52.770  1.00  0.00    -0.205 F 
HETATM   23  C   UNL     1     -31.737  39.548 -49.860  1.00  0.00     0.005 A 
HETATM   24  C   UNL     1     -32.812  39.091 -49.093  1.00  0.00     0.030 A 
HETATM   25  N   UNL     1     -35.317  38.902 -49.060  1.00  0.00    -0.364 N 
HETATM   26  H   UNL     1     -35.433  38.438 -48.169  1.00  0.00     0.165 HD
HETATM   27  C   UNL     1     -36.330  39.253 -49.903  1.00  0.00     0.106 A 
ENDBRANCH   1  17
TORSDOF 4
ENDMDL
MODEL 8
REMARK VINA RESULT:      -7.6      5.232      6.272
REMARK  4 active torsions:
REMARK  status: ('A' for Active; 'I' for Inactive)
REMARK    1  A    between atoms: C_10  and  C_11 
REMARK       I    between atoms: C_11  and  N_12 
REMARK    2  A    between atoms: N_12  and  N_13 
REMARK       I    between atoms: N_13  and  C_14 
REMARK    3  A    between atoms: C_14  and  C_15 
REMARK    4  A    between atoms: C_15  and  C_16 
ROOT
HETATM    1  C   UNL     1     -41.278  58.260 -50.745  1.00  0.00     0.272 C 
HETATM    2  N   UNL     1     -41.810  57.036 -50.402  1.00  0.00    -0.263 N 
HETATM    3  O   UNL     1     -40.060  58.442 -50.752  1.00  0.00    -0.266 OA
HETATM    4  H   UNL     1     -42.806  56.822 -50.416  1.00  0.00     0.190 HD
ENDROOT
BRANCH   2   5
HETATM    5  N   UNL     1     -40.938  55.971 -50.139  1.00  0.00    -0.267 N 
HETATM    6  C   UNL     1     -41.466  54.709 -49.976  1.00  0.00     0.240 C 
HETATM    7  O   UNL     1     -42.676  54.481 -50.003  1.00  0.00    -0.272 OA
HETATM    8  H   UNL     1     -39.949  56.197 -50.059  1.00  0.00     0.190 HD
BRANCH   6   9
HETATM    9  C   UNL     1     -40.432  53.620 -49.763  1.00  0.00     0.143 C 
BRANCH   9  10
HETATM   10  C   UNL     1     -40.178  52.738 -50.964  1.00  0.00    -0.049 A 
HETATM   11  C   UNL     1     -39.849  51.381 -50.833  1.00  0.00     0.009 A 
HETATM   12  C   UNL     1     -39.676  50.577 -51.964  1.00  0.00     0.024 A 
HETATM   13  C   UNL     1     -39.850  51.120 -53.234  1.00  0.00     0.034 A 
HETATM   14 CL   UNL     1     -39.652  50.127 -54.624  1.00  0.00    -0.084 Cl
HETATM   15  C   UNL     1     -40.196  52.460 -53.384  1.00  0.00     0.024 A 
HETATM   16  C   UNL     1     -40.364  53.265 -52.253  1.00  0.00     0.009 A 
ENDBRANCH   9  10
ENDBRANCH   6   9
ENDBRANCH   2   5
BRANCH   1  17
HETATM   17  C   UNL     1     -42.228  59.322 -51.087  1.00  0.00     0.064 A 
HETATM   18  C   UNL     1     -43.306  59.384 -52.041  1.00  0.00     0.046 A 
HETATM   19  C   UNL     1     -43.864  58.505 -52.993  1.00  0.00     0.130 A 
HETATM   20  C   UNL     1     -43.880  60.659 -51.945  1.00  0.00     0.046 A 
HETATM   21  C   UNL     1     -44.941  58.893 -53.792  1.00  0.00     0.043 A 
HETATM   22  F   UNL     1     -43.370  57.270 -53.153  1.00  0.00    -0.205 F 
HETATM   23  C   UNL     1     -45.486  60.165 -53.661  1.00  0.00     0.005 A 
HETATM   24  C   UNL     1     -44.963  61.071 -52.734  1.00  0.00     0.030 A 
HETATM   25  N   UNL     1     -43.188  61.347 -50.979  1.00  0.00    -0.364 N 
HETATM   26  H   UNL     1     -43.383  62.299 -50.699  1.00  0.00     0.165 HD
HETATM   27  C   UNL     1     -42.196  60.563 -50.466  1.00  0.00     0.106 A 
ENDBRANCH   1  17
TORSDOF 4
ENDMDL
MODEL 9
REMARK VINA RESULT:      -7.6      4.579      8.798
REMARK  4 active torsions:
REMARK  status: ('A' for Active; 'I' for Inactive)
REMARK    1  A    between atoms: C_10  and  C_11 
REMARK       I    between atoms: C_11  and  N_12 
REMARK    2  A    between atoms: N_12  and  N_13 
REMARK       I    between atoms: N_13  and  C_14 
REMARK    3  A    between atoms: C_14  and  C_15 
REMARK    4  A    between atoms: C_15  and  C_16 
ROOT
HETATM    1  C   UNL     1     -41.988  55.667 -53.014  1.00  0.00     0.272 C 
HETATM    2  N   UNL     1     -41.612  56.963 -52.733  1.00  0.00    -0.263 N 
HETATM    3  O   UNL     1     -42.892  55.430 -53.817  1.00  0.00    -0.266 OA
HETATM    4  H   UNL     1     -40.848  57.212 -52.107  1.00  0.00     0.190 HD
ENDROOT
BRANCH   2   5
HETATM    5  N   UNL     1     -42.220  58.010 -53.437  1.00  0.00    -0.267 N 
HETATM    6  C   UNL     1     -41.446  59.083 -53.825  1.00  0.00     0.240 C 
HETATM    7  O   UNL     1     -40.254  59.186 -53.538  1.00  0.00    -0.272 OA
HETATM    8  H   UNL     1     -43.220  57.929 -53.607  1.00  0.00     0.190 HD
BRANCH   6   9
HETATM    9  C   UNL     1     -42.186  60.127 -54.639  1.00  0.00     0.143 C 
BRANCH   9  10
HETATM   10  C   UNL     1     -42.109  59.941 -56.137  1.00  0.00    -0.049 A 
HETATM   11  C   UNL     1     -42.174  58.672 -56.733  1.00  0.00     0.009 A 
HETATM   12  C   UNL     1     -42.158  58.537 -58.124  1.00  0.00     0.024 A 
HETATM   13  C   UNL     1     -42.097  59.670 -58.930  1.00  0.00     0.034 A 
HETATM   14 CL   UNL     1     -42.092  59.504 -60.642  1.00  0.00    -0.084 Cl
HETATM   15  C   UNL     1     -42.051  60.938 -58.358  1.00  0.00     0.024 A 
HETATM   16  C   UNL     1     -42.062  61.073 -56.967  1.00  0.00     0.009 A 
ENDBRANCH   9  10
ENDBRANCH   6   9
ENDBRANCH   2   5
BRANCH   1  17
HETATM   17  C   UNL     1     -41.272  54.602 -52.309  1.00  0.00     0.064 A 
HETATM   18  C   UNL     1     -40.741  53.338 -52.752  1.00  0.00     0.046 A 
HETATM   19  C   UNL     1     -40.695  52.634 -53.974  1.00  0.00     0.130 A 
HETATM   20  C   UNL     1     -40.155  52.715 -51.642  1.00  0.00     0.046 A 
HETATM   21  C   UNL     1     -40.087  51.380 -54.065  1.00  0.00     0.043 A 
HETATM   22  F   UNL     1     -41.238  53.155 -55.082  1.00  0.00    -0.205 F 
HETATM   23  C   UNL     1     -39.512  50.800 -52.941  1.00  0.00     0.005 A 
HETATM   24  C   UNL     1     -39.536  51.458 -51.708  1.00  0.00     0.030 A 
HETATM   25  N   UNL     1     -40.319  53.555 -50.568  1.00  0.00    -0.364 N 
HETATM   26  H   UNL     1     -39.994  53.360 -49.630  1.00  0.00     0.165 HD
HETATM   27  C   UNL     1     -40.989  54.680 -50.953  1.00  0.00     0.106 A 
ENDBRANCH   1  17
TORSDOF 4
ENDMDL
MODEL 10
REMARK VINA RESULT:      -7.5      5.855      9.105
REMARK  4 active torsions:
REMARK  status: ('A' for Active; 'I' for Inactive)
REMARK    1  A    between atoms: C_10  and  C_11 
REMARK       I    between atoms: C_11  and  N_12 
REMARK    2  A    between atoms: N_12  and  N_13 
REMARK       I    between atoms: N_13  and  C_14 
REMARK    3  A    between atoms: C_14  and  C_15 
REMARK    4  A    between atoms: C_15  and  C_16 
ROOT
HETATM    1  C   UNL     1     -41.887  55.623 -52.454  1.00  0.00     0.272 C 
HETATM    2  N   UNL     1     -41.254  56.846 -52.437  1.00  0.00    -0.263 N 
HETATM    3  O   UNL     1     -43.063  55.522 -52.805  1.00  0.00    -0.266 OA
HETATM    4  H   UNL     1     -40.274  56.979 -52.192  1.00  0.00     0.190 HD
ENDROOT
BRANCH   2   5
HETATM    5  N   UNL     1     -41.946  57.971 -52.905  1.00  0.00    -0.267 N 
HETATM    6  C   UNL     1     -41.224  59.076 -53.298  1.00  0.00     0.240 C 
HETATM    7  O   UNL     1     -39.998  59.139 -53.212  1.00  0.00    -0.272 OA
HETATM    8  H   UNL     1     -42.963  57.916 -52.908  1.00  0.00     0.190 HD
BRANCH   6   9
HETATM    9  C   UNL     1     -42.065  60.210 -53.851  1.00  0.00     0.143 C 
BRANCH   9  10
HETATM   10  C   UNL     1     -43.185  60.674 -52.947  1.00  0.00    -0.049 A 
HETATM   11  C   UNL     1     -42.937  61.241 -51.688  1.00  0.00     0.009 A 
HETATM   12  C   UNL     1     -43.990  61.713 -50.899  1.00  0.00     0.024 A 
HETATM   13  C   UNL     1     -45.297  61.642 -51.373  1.00  0.00     0.034 A 
HETATM   14 CL   UNL     1     -46.591  62.237 -50.408  1.00  0.00    -0.084 Cl
HETATM   15  C   UNL     1     -45.562  61.101 -52.628  1.00  0.00     0.024 A 
HETATM   16  C   UNL     1     -44.509  60.623 -53.414  1.00  0.00     0.009 A 
ENDBRANCH   9  10
ENDBRANCH   6   9
ENDBRANCH   2   5
BRANCH   1  17
HETATM   17  C   UNL     1     -41.099  54.464 -52.028  1.00  0.00     0.064 A 
HETATM   18  C   UNL     1     -40.718  53.251 -52.708  1.00  0.00     0.046 A 
HETATM   19  C   UNL     1     -40.935  52.701 -53.990  1.00  0.00     0.130 A 
HETATM   20  C   UNL     1     -39.961  52.485 -51.812  1.00  0.00     0.046 A 
HETATM   21  C   UNL     1     -40.412  51.455 -54.340  1.00  0.00     0.043 A 
HETATM   22  F   UNL     1     -41.654  53.366 -54.904  1.00  0.00    -0.205 F 
HETATM   23  C   UNL     1     -39.662  50.729 -53.422  1.00  0.00     0.005 A 
HETATM   24  C   UNL     1     -39.424  51.232 -52.140  1.00  0.00     0.030 A 
HETATM   25  N   UNL     1     -39.882  53.192 -50.637  1.00  0.00    -0.364 N 
HETATM   26  H   UNL     1     -39.395  52.877 -49.808  1.00  0.00     0.165 HD
HETATM   27  C   UNL     1     -40.561  54.369 -50.752  1.00  0.00     0.106 A 
ENDBRANCH   1  17
TORSDOF 4
ENDMDL
