MODEL 1
REMARK VINA RESULT:      -8.7      0.000      0.000
REMARK  3 active torsions:
REMARK  status: ('A' for Active; 'I' for Inactive)
REMARK    1  A    between atoms: C_6  and  C_7 
REMARK    2  A    between atoms: C_14  and  N_15 
REMARK    3  A    between atoms: N_15  and  C_16 
ROOT
HETATM    1  C   UNL     1     -43.717  56.654 -50.841  1.00  0.00     0.001 A 
HETATM    2  C   UNL     1     -42.691  56.060 -51.573  1.00  0.00     0.018 A 
HETATM    3  C   UNL     1     -42.630  56.193 -52.985  1.00  0.00     0.039 A 
HETATM    4  C   UNL     1     -43.627  56.917 -53.649  1.00  0.00     0.073 A 
HETATM    5  N   UNL     1     -43.651  57.068 -54.975  1.00  0.00    -0.228 NA
HETATM    6  C   UNL     1     -42.669  56.489 -55.684  1.00  0.00     0.164 A 
HETATM    7  N   UNL     1     -41.665  55.780 -55.149  1.00  0.00    -0.210 NA
HETATM    8  C   UNL     1     -41.638  55.637 -53.813  1.00  0.00     0.143 A 
HETATM    9  C   UNL     1     -44.640  57.502 -52.897  1.00  0.00     0.032 A 
HETATM   10  C   UNL     1     -44.694  57.381 -51.506  1.00  0.00     0.002 A 
ENDROOT
BRANCH   8  11
HETATM   11  N   UNL     1     -40.573  54.914 -53.212  1.00  0.00    -0.340 N 
HETATM   12  H   UNL     1     -39.721  55.462 -53.281  1.00  0.00     0.167 HD
BRANCH  11  13
HETATM   13  C   UNL     1     -40.306  53.526 -53.256  1.00  0.00     0.036 A 
HETATM   14  C   UNL     1     -40.059  52.849 -52.048  1.00  0.00     0.069 A 
HETATM   15  C   UNL     1     -39.880  51.480 -52.080  1.00  0.00     0.107 A 
HETATM   16  C   UNL     1     -39.958  50.766 -53.250  1.00  0.00     0.105 A 
HETATM   17  O   UNL     1     -39.628  50.688 -51.003  1.00  0.00    -0.323 OA
HETATM   18  O   UNL     1     -39.760  49.434 -53.061  1.00  0.00    -0.323 OA
HETATM   19  C   UNL     1     -40.227  51.380 -54.450  1.00  0.00     0.042 A 
HETATM   20  C   UNL     1     -39.559  49.390 -51.633  1.00  0.00     0.352 A 
HETATM   21  C   UNL     1     -40.417  52.769 -54.443  1.00  0.00     0.032 A 
ENDBRANCH  11  13
ENDBRANCH   8  11
BRANCH   6  22
HETATM   22  C   UNL     1     -42.694  56.644 -57.145  1.00  0.00     0.029 A 
HETATM   23  C   UNL     1     -42.316  57.834 -57.767  1.00  0.00     0.131 A 
HETATM   24  N   UNL     1     -42.313  58.053 -59.109  1.00  0.00    -0.272 NA
HETATM   25  C   UNL     1     -42.710  57.026 -59.888  1.00  0.00     0.116 A 
HETATM   26  C   UNL     1     -43.107  55.798 -59.391  1.00  0.00     0.020 A 
HETATM   27  C   UNL     1     -43.097  55.612 -58.008  1.00  0.00     0.018 A 
ENDBRANCH   6  22
TORSDOF 3
ENDMDL
MODEL 2
REMARK VINA RESULT:      -8.7      3.003      6.548
REMARK  3 active torsions:
REMARK  status: ('A' for Active; 'I' for Inactive)
REMARK    1  A    between atoms: C_6  and  C_7 
REMARK    2  A    between atoms: C_14  and  N_15 
REMARK    3  A    between atoms: N_15  and  C_16 
ROOT
HETATM    1  C   UNL     1     -44.691  58.506 -52.172  1.00  0.00     0.001 A 
HETATM    2  C   UNL     1     -43.874  58.213 -53.262  1.00  0.00     0.018 A 
HETATM    3  C   UNL     1     -43.132  57.004 -53.314  1.00  0.00     0.039 A 
HETATM    4  C   UNL     1     -43.210  56.105 -52.244  1.00  0.00     0.073 A 
HETATM    5  N   UNL     1     -42.527  54.959 -52.209  1.00  0.00    -0.228 NA
HETATM    6  C   UNL     1     -41.731  54.678 -53.254  1.00  0.00     0.164 A 
HETATM    7  N   UNL     1     -41.586  55.465 -54.330  1.00  0.00    -0.210 NA
HETATM    8  C   UNL     1     -42.283  56.614 -54.366  1.00  0.00     0.143 A 
HETATM    9  C   UNL     1     -44.034  56.418 -51.168  1.00  0.00     0.032 A 
HETATM   10  C   UNL     1     -44.773  57.603 -51.122  1.00  0.00     0.002 A 
ENDROOT
BRANCH   8  11
HETATM   11  N   UNL     1     -42.173  57.458 -55.504  1.00  0.00    -0.340 N 
HETATM   12  H   UNL     1     -42.480  58.392 -55.254  1.00  0.00     0.167 HD
BRANCH  11  13
HETATM   13  C   UNL     1     -42.450  57.162 -56.859  1.00  0.00     0.036 A 
HETATM   14  C   UNL     1     -43.159  55.985 -57.160  1.00  0.00     0.069 A 
HETATM   15  C   UNL     1     -43.502  55.735 -58.474  1.00  0.00     0.107 A 
HETATM   16  C   UNL     1     -43.190  56.612 -59.484  1.00  0.00     0.105 A 
HETATM   17  O   UNL     1     -44.177  54.643 -58.923  1.00  0.00    -0.323 OA
HETATM   18  O   UNL     1     -43.625  56.182 -60.698  1.00  0.00    -0.323 OA
HETATM   19  C   UNL     1     -42.526  57.789 -59.233  1.00  0.00     0.042 A 
HETATM   20  C   UNL     1     -44.257  54.937 -60.335  1.00  0.00     0.352 A 
HETATM   21  C   UNL     1     -42.170  58.067 -57.907  1.00  0.00     0.032 A 
ENDBRANCH  11  13
ENDBRANCH   8  11
BRANCH   6  22
HETATM   22  C   UNL     1     -40.969  53.423 -53.218  1.00  0.00     0.029 A 
HETATM   23  C   UNL     1     -40.252  53.028 -52.088  1.00  0.00     0.131 A 
HETATM   24  N   UNL     1     -39.523  51.885 -51.979  1.00  0.00    -0.272 NA
HETATM   25  C   UNL     1     -39.503  51.078 -53.060  1.00  0.00     0.116 A 
HETATM   26  C   UNL     1     -40.173  51.359 -54.236  1.00  0.00     0.020 A 
HETATM   27  C   UNL     1     -40.909  52.542 -54.310  1.00  0.00     0.018 A 
ENDBRANCH   6  22
TORSDOF 3
ENDMDL
MODEL 3
REMARK VINA RESULT:      -8.6      3.521      6.948
REMARK  3 active torsions:
REMARK  status: ('A' for Active; 'I' for Inactive)
REMARK    1  A    between atoms: C_6  and  C_7 
REMARK    2  A    between atoms: C_14  and  N_15 
REMARK    3  A    between atoms: N_15  and  C_16 
ROOT
HETATM    1  C   UNL     1     -42.690  58.978 -52.362  1.00  0.00     0.001 A 
HETATM    2  C   UNL     1     -43.007  58.090 -53.388  1.00  0.00     0.018 A 
HETATM    3  C   UNL     1     -42.478  56.772 -53.402  1.00  0.00     0.039 A 
HETATM    4  C   UNL     1     -41.613  56.369 -52.379  1.00  0.00     0.073 A 
HETATM    5  N   UNL     1     -41.059  55.156 -52.334  1.00  0.00    -0.228 NA
HETATM    6  C   UNL     1     -41.355  54.301 -53.326  1.00  0.00     0.164 A 
HETATM    7  N   UNL     1     -42.174  54.582 -54.350  1.00  0.00    -0.210 NA
HETATM    8  C   UNL     1     -42.738  55.802 -54.388  1.00  0.00     0.143 A 
HETATM    9  C   UNL     1     -41.312  57.272 -51.365  1.00  0.00     0.032 A 
HETATM   10  C   UNL     1     -41.841  58.565 -51.344  1.00  0.00     0.002 A 
ENDROOT
BRANCH   8  11
HETATM   11  N   UNL     1     -43.632  56.122 -55.444  1.00  0.00    -0.340 N 
HETATM   12  H   UNL     1     -44.475  55.567 -55.343  1.00  0.00     0.167 HD
BRANCH  11  13
HETATM   13  C   UNL     1     -43.342  56.390 -56.802  1.00  0.00     0.036 A 
HETATM   14  C   UNL     1     -42.919  57.683 -57.158  1.00  0.00     0.069 A 
HETATM   15  C   UNL     1     -42.557  57.924 -58.469  1.00  0.00     0.107 A 
HETATM   16  C   UNL     1     -42.579  56.935 -59.421  1.00  0.00     0.105 A 
HETATM   17  O   UNL     1     -42.135  59.117 -58.968  1.00  0.00    -0.323 OA
HETATM   18  O   UNL     1     -42.178  57.379 -60.642  1.00  0.00    -0.323 OA
HETATM   19  C   UNL     1     -42.955  55.650 -59.113  1.00  0.00     0.042 A 
HETATM   20  C   UNL     1     -41.891  58.762 -60.346  1.00  0.00     0.352 A 
HETATM   21  C   UNL     1     -43.324  55.379 -57.788  1.00  0.00     0.032 A 
ENDBRANCH  11  13
ENDBRANCH   8  11
BRANCH   6  22
HETATM   22  C   UNL     1     -40.741  52.967 -53.289  1.00  0.00     0.029 A 
HETATM   23  C   UNL     1     -40.064  52.498 -52.163  1.00  0.00     0.131 A 
HETATM   24  N   UNL     1     -39.471  51.279 -52.053  1.00  0.00    -0.272 NA
HETATM   25  C   UNL     1     -39.554  50.469 -53.128  1.00  0.00     0.116 A 
HETATM   26  C   UNL     1     -40.199  50.819 -54.301  1.00  0.00     0.020 A 
HETATM   27  C   UNL     1     -40.795  52.078 -54.376  1.00  0.00     0.018 A 
ENDBRANCH   6  22
TORSDOF 3
ENDMDL
MODEL 4
REMARK VINA RESULT:      -8.4      3.502      6.181
REMARK  3 active torsions:
REMARK  status: ('A' for Active; 'I' for Inactive)
REMARK    1  A    between atoms: C_6  and  C_7 
REMARK    2  A    between atoms: C_14  and  N_15 
REMARK    3  A    between atoms: N_15  and  C_16 
ROOT
HETATM    1  C   UNL     1     -40.989  53.222 -52.039  1.00  0.00     0.001 A 
HETATM    2  C   UNL     1     -41.991  54.169 -52.241  1.00  0.00     0.018 A 
HETATM    3  C   UNL     1     -42.265  54.676 -53.538  1.00  0.00     0.039 A 
HETATM    4  C   UNL     1     -41.504  54.229 -54.625  1.00  0.00     0.073 A 
HETATM    5  N   UNL     1     -41.687  54.674 -55.870  1.00  0.00    -0.228 NA
HETATM    6  C   UNL     1     -42.645  55.594 -56.067  1.00  0.00     0.164 A 
HETATM    7  N   UNL     1     -43.434  56.086 -55.099  1.00  0.00    -0.210 NA
HETATM    8  C   UNL     1     -43.253  55.629 -53.848  1.00  0.00     0.143 A 
HETATM    9  C   UNL     1     -40.511  53.282 -54.399  1.00  0.00     0.032 A 
HETATM   10  C   UNL     1     -40.248  52.775 -53.124  1.00  0.00     0.002 A 
ENDROOT
BRANCH   8  11
HETATM   11  N   UNL     1     -44.090  56.110 -52.805  1.00  0.00    -0.340 N 
HETATM   12  H   UNL     1     -45.027  55.745 -52.939  1.00  0.00     0.167 HD
BRANCH  11  13
HETATM   13  C   UNL     1     -44.108  57.387 -52.198  1.00  0.00     0.036 A 
HETATM   14  C   UNL     1     -45.135  57.685 -51.285  1.00  0.00     0.069 A 
HETATM   15  C   UNL     1     -45.108  58.901 -50.631  1.00  0.00     0.107 A 
HETATM   16  C   UNL     1     -44.098  59.809 -50.830  1.00  0.00     0.105 A 
HETATM   17  O   UNL     1     -46.029  59.336 -49.729  1.00  0.00    -0.323 OA
HETATM   18  O   UNL     1     -44.256  60.934 -50.083  1.00  0.00    -0.323 OA
HETATM   19  C   UNL     1     -43.057  59.549 -51.688  1.00  0.00     0.042 A 
HETATM   20  C   UNL     1     -45.478  60.625 -49.382  1.00  0.00     0.352 A 
HETATM   21  C   UNL     1     -43.060  58.320 -52.362  1.00  0.00     0.032 A 
ENDBRANCH  11  13
ENDBRANCH   8  11
BRANCH   6  22
HETATM   22  C   UNL     1     -42.846  56.095 -57.432  1.00  0.00     0.029 A 
HETATM   23  C   UNL     1     -42.577  57.420 -57.778  1.00  0.00     0.131 A 
HETATM   24  N   UNL     1     -42.739  57.957 -59.017  1.00  0.00    -0.272 NA
HETATM   25  C   UNL     1     -43.196  57.129 -59.979  1.00  0.00     0.116 A 
HETATM   26  C   UNL     1     -43.497  55.797 -59.760  1.00  0.00     0.020 A 
HETATM   27  C   UNL     1     -43.319  55.282 -58.475  1.00  0.00     0.018 A 
ENDBRANCH   6  22
TORSDOF 3
ENDMDL
MODEL 5
REMARK VINA RESULT:      -8.2      3.791      7.520
REMARK  3 active torsions:
REMARK  status: ('A' for Active; 'I' for Inactive)
REMARK    1  A    between atoms: C_6  and  C_7 
REMARK    2  A    between atoms: C_14  and  N_15 
REMARK    3  A    between atoms: N_15  and  C_16 
ROOT
HETATM    1  C   UNL     1     -44.320  57.603 -56.852  1.00  0.00     0.001 A 
HETATM    2  C   UNL     1     -44.407  57.299 -55.495  1.00  0.00     0.018 A 
HETATM    3  C   UNL     1     -43.571  56.309 -54.914  1.00  0.00     0.039 A 
HETATM    4  C   UNL     1     -42.661  55.619 -55.723  1.00  0.00     0.073 A 
HETATM    5  N   UNL     1     -41.858  54.661 -55.255  1.00  0.00    -0.228 NA
HETATM    6  C   UNL     1     -41.945  54.358 -53.950  1.00  0.00     0.164 A 
HETATM    7  N   UNL     1     -42.777  54.960 -53.087  1.00  0.00    -0.210 NA
HETATM    8  C   UNL     1     -43.579  55.931 -53.559  1.00  0.00     0.143 A 
HETATM    9  C   UNL     1     -42.591  55.941 -57.074  1.00  0.00     0.032 A 
HETATM   10  C   UNL     1     -43.405  56.922 -57.644  1.00  0.00     0.002 A 
ENDROOT
BRANCH   8  11
HETATM   11  N   UNL     1     -44.452  56.607 -52.665  1.00  0.00    -0.340 N 
HETATM   12  H   UNL     1     -45.408  56.482 -52.980  1.00  0.00     0.167 HD
BRANCH  11  13
HETATM   13  C   UNL     1     -44.272  57.853 -52.021  1.00  0.00     0.036 A 
HETATM   14  C   UNL     1     -45.334  58.380 -51.264  1.00  0.00     0.069 A 
HETATM   15  C   UNL     1     -45.133  59.555 -50.567  1.00  0.00     0.107 A 
HETATM   16  C   UNL     1     -43.924  60.205 -50.577  1.00  0.00     0.105 A 
HETATM   17  O   UNL     1     -46.059  60.190 -49.801  1.00  0.00    -0.323 OA
HETATM   18  O   UNL     1     -43.936  61.335 -49.821  1.00  0.00    -0.323 OA
HETATM   19  C   UNL     1     -42.848  59.712 -51.276  1.00  0.00     0.042 A 
HETATM   20  C   UNL     1     -45.290  61.317 -49.326  1.00  0.00     0.352 A 
HETATM   21  C   UNL     1     -43.027  58.518 -51.989  1.00  0.00     0.032 A 
ENDBRANCH  11  13
ENDBRANCH   8  11
BRANCH   6  22
HETATM   22  C   UNL     1     -41.071  53.299 -53.430  1.00  0.00     0.029 A 
HETATM   23  C   UNL     1     -40.652  53.276 -52.099  1.00  0.00     0.131 A 
HETATM   24  N   UNL     1     -39.845  52.332 -51.546  1.00  0.00    -0.272 NA
HETATM   25  C   UNL     1     -39.425  51.344 -52.362  1.00  0.00     0.116 A 
HETATM   26  C   UNL     1     -39.772  51.257 -53.698  1.00  0.00     0.020 A 
HETATM   27  C   UNL     1     -40.601  52.244 -54.230  1.00  0.00     0.018 A 
ENDBRANCH   6  22
TORSDOF 3
ENDMDL
MODEL 6
REMARK VINA RESULT:      -8.2      2.021      2.753
REMARK  3 active torsions:
REMARK  status: ('A' for Active; 'I' for Inactive)
REMARK    1  A    between atoms: C_6  and  C_7 
REMARK    2  A    between atoms: C_14  and  N_15 
REMARK    3  A    between atoms: N_15  and  C_16 
ROOT
HETATM    1  C   UNL     1     -45.205  58.805 -51.744  1.00  0.00     0.001 A 
HETATM    2  C   UNL     1     -44.777  57.559 -52.195  1.00  0.00     0.018 A 
HETATM    3  C   UNL     1     -44.299  57.388 -53.521  1.00  0.00     0.039 A 
HETATM    4  C   UNL     1     -44.274  58.486 -54.388  1.00  0.00     0.073 A 
HETATM    5  N   UNL     1     -43.859  58.400 -55.654  1.00  0.00    -0.228 NA
HETATM    6  C   UNL     1     -43.455  57.199 -56.096  1.00  0.00     0.164 A 
HETATM    7  N   UNL     1     -43.433  56.085 -55.349  1.00  0.00    -0.210 NA
HETATM    8  C   UNL     1     -43.843  56.176 -54.072  1.00  0.00     0.143 A 
HETATM    9  C   UNL     1     -44.705  59.720 -53.914  1.00  0.00     0.032 A 
HETATM   10  C   UNL     1     -45.166  59.892 -52.607  1.00  0.00     0.002 A 
ENDROOT
BRANCH   8  11
HETATM   11  N   UNL     1     -43.806  55.021 -53.246  1.00  0.00    -0.340 N 
HETATM   12  H   UNL     1     -44.706  54.910 -52.791  1.00  0.00     0.167 HD
BRANCH  11  13
HETATM   13  C   UNL     1     -42.749  54.541 -52.437  1.00  0.00     0.036 A 
HETATM   14  C   UNL     1     -42.799  54.781 -51.052  1.00  0.00     0.069 A 
HETATM   15  C   UNL     1     -41.812  54.244 -50.250  1.00  0.00     0.107 A 
HETATM   16  C   UNL     1     -40.802  53.468 -50.764  1.00  0.00     0.105 A 
HETATM   17  O   UNL     1     -41.718  54.391 -48.901  1.00  0.00    -0.323 OA
HETATM   18  O   UNL     1     -39.942  53.032 -49.807  1.00  0.00    -0.323 OA
HETATM   19  C   UNL     1     -40.730  53.181 -52.107  1.00  0.00     0.042 A 
HETATM   20  C   UNL     1     -40.532  53.615 -48.626  1.00  0.00     0.352 A 
HETATM   21  C   UNL     1     -41.723  53.712 -52.941  1.00  0.00     0.032 A 
ENDBRANCH  11  13
ENDBRANCH   8  11
BRANCH   6  22
HETATM   22  C   UNL     1     -43.006  57.095 -57.490  1.00  0.00     0.029 A 
HETATM   23  C   UNL     1     -42.295  58.121 -58.114  1.00  0.00     0.131 A 
HETATM   24  N   UNL     1     -41.848  58.099 -59.398  1.00  0.00    -0.272 NA
HETATM   25  C   UNL     1     -42.119  56.988 -60.113  1.00  0.00     0.116 A 
HETATM   26  C   UNL     1     -42.813  55.904 -59.605  1.00  0.00     0.020 A 
HETATM   27  C   UNL     1     -43.258  55.964 -58.285  1.00  0.00     0.018 A 
ENDBRANCH   6  22
TORSDOF 3
ENDMDL
MODEL 7
REMARK VINA RESULT:      -8.1      3.526      7.127
REMARK  3 active torsions:
REMARK  status: ('A' for Active; 'I' for Inactive)
REMARK    1  A    between atoms: C_6  and  C_7 
REMARK    2  A    between atoms: C_14  and  N_15 
REMARK    3  A    between atoms: N_15  and  C_16 
ROOT
HETATM    1  C   UNL     1     -40.405  52.256 -53.780  1.00  0.00     0.001 A 
HETATM    2  C   UNL     1     -41.323  53.030 -54.487  1.00  0.00     0.018 A 
HETATM    3  C   UNL     1     -41.927  54.169 -53.893  1.00  0.00     0.039 A 
HETATM    4  C   UNL     1     -41.607  54.506 -52.573  1.00  0.00     0.073 A 
HETATM    5  N   UNL     1     -42.148  55.548 -51.939  1.00  0.00    -0.228 NA
HETATM    6  C   UNL     1     -43.041  56.290 -52.613  1.00  0.00     0.164 A 
HETATM    7  N   UNL     1     -43.416  56.059 -53.880  1.00  0.00    -0.210 NA
HETATM    8  C   UNL     1     -42.861  55.014 -54.520  1.00  0.00     0.143 A 
HETATM    9  C   UNL     1     -40.686  53.720 -51.888  1.00  0.00     0.032 A 
HETATM   10  C   UNL     1     -40.082  52.605 -52.476  1.00  0.00     0.002 A 
ENDROOT
BRANCH   8  11
HETATM   11  N   UNL     1     -43.216  54.759 -55.871  1.00  0.00    -0.340 N 
HETATM   12  H   UNL     1     -42.980  53.798 -56.099  1.00  0.00     0.167 HD
BRANCH  11  13
HETATM   13  C   UNL     1     -43.095  55.607 -56.996  1.00  0.00     0.036 A 
HETATM   14  C   UNL     1     -42.585  56.905 -56.810  1.00  0.00     0.069 A 
HETATM   15  C   UNL     1     -42.390  57.706 -57.918  1.00  0.00     0.107 A 
HETATM   16  C   UNL     1     -42.658  57.262 -59.189  1.00  0.00     0.105 A 
HETATM   17  O   UNL     1     -41.914  58.979 -57.901  1.00  0.00    -0.323 OA
HETATM   18  O   UNL     1     -42.388  58.201 -60.135  1.00  0.00    -0.323 OA
HETATM   19  C   UNL     1     -43.127  55.991 -59.423  1.00  0.00     0.042 A 
HETATM   20  C   UNL     1     -41.910  59.285 -59.312  1.00  0.00     0.352 A 
HETATM   21  C   UNL     1     -43.330  55.158 -58.315  1.00  0.00     0.032 A 
ENDBRANCH  11  13
ENDBRANCH   8  11
BRANCH   6  22
HETATM   22  C   UNL     1     -43.649  57.433 -51.919  1.00  0.00     0.029 A 
HETATM   23  C   UNL     1     -44.928  57.364 -51.367  1.00  0.00     0.131 A 
HETATM   24  N   UNL     1     -45.557  58.377 -50.712  1.00  0.00    -0.272 NA
HETATM   25  C   UNL     1     -44.875  59.535 -50.595  1.00  0.00     0.116 A 
HETATM   26  C   UNL     1     -43.601  59.725 -51.098  1.00  0.00     0.020 A 
HETATM   27  C   UNL     1     -42.989  58.663 -51.765  1.00  0.00     0.018 A 
ENDBRANCH   6  22
TORSDOF 3
ENDMDL
MODEL 8
REMARK VINA RESULT:      -8.1      1.490      2.251
REMARK  3 active torsions:
REMARK  status: ('A' for Active; 'I' for Inactive)
REMARK    1  A    between atoms: C_6  and  C_7 
REMARK    2  A    between atoms: C_14  and  N_15 
REMARK    3  A    between atoms: N_15  and  C_16 
ROOT
HETATM    1  C   UNL     1     -44.786  58.753 -51.571  1.00  0.00     0.001 A 
HETATM    2  C   UNL     1     -44.463  57.511 -52.113  1.00  0.00     0.018 A 
HETATM    3  C   UNL     1     -44.038  57.392 -53.463  1.00  0.00     0.039 A 
HETATM    4  C   UNL     1     -43.961  58.538 -54.261  1.00  0.00     0.073 A 
HETATM    5  N   UNL     1     -43.591  58.505 -55.543  1.00  0.00    -0.228 NA
HETATM    6  C   UNL     1     -43.289  57.308 -56.072  1.00  0.00     0.164 A 
HETATM    7  N   UNL     1     -43.324  56.151 -55.396  1.00  0.00    -0.210 NA
HETATM    8  C   UNL     1     -43.688  56.188 -54.102  1.00  0.00     0.143 A 
HETATM    9  C   UNL     1     -44.287  59.767 -53.697  1.00  0.00     0.032 A 
HETATM   10  C   UNL     1     -44.694  59.886 -52.367  1.00  0.00     0.002 A 
ENDROOT
BRANCH   8  11
HETATM   11  N   UNL     1     -43.709  54.983 -53.351  1.00  0.00    -0.340 N 
HETATM   12  H   UNL     1     -44.401  55.065 -52.614  1.00  0.00     0.167 HD
BRANCH  11  13
HETATM   13  C   UNL     1     -42.627  54.160 -52.962  1.00  0.00     0.036 A 
HETATM   14  C   UNL     1     -42.008  53.356 -53.936  1.00  0.00     0.069 A 
HETATM   15  C   UNL     1     -40.900  52.614 -53.578  1.00  0.00     0.107 A 
HETATM   16  C   UNL     1     -40.378  52.659 -52.309  1.00  0.00     0.105 A 
HETATM   17  O   UNL     1     -40.199  51.788 -54.400  1.00  0.00    -0.323 OA
HETATM   18  O   UNL     1     -39.284  51.864 -52.168  1.00  0.00    -0.323 OA
HETATM   19  C   UNL     1     -40.929  53.453 -51.332  1.00  0.00     0.042 A 
HETATM   20  C   UNL     1     -39.171  51.320 -53.499  1.00  0.00     0.352 A 
HETATM   21  C   UNL     1     -42.053  54.219 -51.673  1.00  0.00     0.032 A 
ENDBRANCH  11  13
ENDBRANCH   8  11
BRANCH   6  22
HETATM   22  C   UNL     1     -42.890  57.263 -57.485  1.00  0.00     0.029 A 
HETATM   23  C   UNL     1     -42.285  58.350 -58.116  1.00  0.00     0.131 A 
HETATM   24  N   UNL     1     -41.890  58.384 -59.416  1.00  0.00    -0.272 NA
HETATM   25  C   UNL     1     -42.106  57.268 -60.142  1.00  0.00     0.116 A 
HETATM   26  C   UNL     1     -42.696  56.126 -59.630  1.00  0.00     0.020 A 
HETATM   27  C   UNL     1     -43.089  56.130 -58.291  1.00  0.00     0.018 A 
ENDBRANCH   6  22
TORSDOF 3
ENDMDL
MODEL 9
REMARK VINA RESULT:      -8.0      3.830      7.121
REMARK  3 active torsions:
REMARK  status: ('A' for Active; 'I' for Inactive)
REMARK    1  A    between atoms: C_6  and  C_7 
REMARK    2  A    between atoms: C_14  and  N_15 
REMARK    3  A    between atoms: N_15  and  C_16 
ROOT
HETATM    1  C   UNL     1     -42.682  60.217 -53.945  1.00  0.00     0.001 A 
HETATM    2  C   UNL     1     -42.501  59.300 -54.979  1.00  0.00     0.018 A 
HETATM    3  C   UNL     1     -42.080  57.971 -54.711  1.00  0.00     0.039 A 
HETATM    4  C   UNL     1     -41.826  57.585 -53.390  1.00  0.00     0.073 A 
HETATM    5  N   UNL     1     -41.407  56.362 -53.060  1.00  0.00    -0.228 NA
HETATM    6  C   UNL     1     -41.222  55.479 -54.055  1.00  0.00     0.164 A 
HETATM    7  N   UNL     1     -41.440  55.742 -55.352  1.00  0.00    -0.210 NA
HETATM    8  C   UNL     1     -41.871  56.973 -55.680  1.00  0.00     0.143 A 
HETATM    9  C   UNL     1     -42.015  58.517 -52.375  1.00  0.00     0.032 A 
HETATM   10  C   UNL     1     -42.440  59.821 -52.636  1.00  0.00     0.002 A 
ENDROOT
BRANCH   8  11
HETATM   11  N   UNL     1     -42.138  57.276 -57.042  1.00  0.00    -0.340 N 
HETATM   12  H   UNL     1     -42.005  58.270 -57.192  1.00  0.00     0.167 HD
BRANCH  11  13
HETATM   13  C   UNL     1     -43.140  56.749 -57.889  1.00  0.00     0.036 A 
HETATM   14  C   UNL     1     -44.346  57.459 -58.028  1.00  0.00     0.069 A 
HETATM   15  C   UNL     1     -45.293  56.989 -58.917  1.00  0.00     0.107 A 
HETATM   16  C   UNL     1     -45.079  55.867 -59.679  1.00  0.00     0.105 A 
HETATM   17  O   UNL     1     -46.505  57.557 -59.157  1.00  0.00    -0.323 OA
HETATM   18  O   UNL     1     -46.130  55.584 -60.493  1.00  0.00    -0.323 OA
HETATM   19  C   UNL     1     -43.904  55.159 -59.600  1.00  0.00     0.042 A 
HETATM   20  C   UNL     1     -47.029  56.663 -60.162  1.00  0.00     0.352 A 
HETATM   21  C   UNL     1     -42.925  55.618 -58.708  1.00  0.00     0.032 A 
ENDBRANCH  11  13
ENDBRANCH   8  11
BRANCH   6  22
HETATM   22  C   UNL     1     -40.752  54.133 -53.701  1.00  0.00     0.029 A 
HETATM   23  C   UNL     1     -40.520  53.155 -54.668  1.00  0.00     0.131 A 
HETATM   24  N   UNL     1     -40.086  51.891 -54.419  1.00  0.00    -0.272 NA
HETATM   25  C   UNL     1     -39.867  51.572 -53.127  1.00  0.00     0.116 A 
HETATM   26  C   UNL     1     -40.059  52.454 -52.080  1.00  0.00     0.020 A 
HETATM   27  C   UNL     1     -40.506  53.742 -52.374  1.00  0.00     0.018 A 
ENDBRANCH   6  22
TORSDOF 3
ENDMDL
MODEL 10
REMARK VINA RESULT:      -7.9      3.902      7.401
REMARK  3 active torsions:
REMARK  status: ('A' for Active; 'I' for Inactive)
REMARK    1  A    between atoms: C_6  and  C_7 
REMARK    2  A    between atoms: C_14  and  N_15 
REMARK    3  A    between atoms: N_15  and  C_16 
ROOT
HETATM    1  C   UNL     1     -40.351  53.237 -54.758  1.00  0.00     0.001 A 
HETATM    2  C   UNL     1     -40.920  54.317 -55.429  1.00  0.00     0.018 A 
HETATM    3  C   UNL     1     -41.555  55.367 -54.716  1.00  0.00     0.039 A 
HETATM    4  C   UNL     1     -41.623  55.304 -53.319  1.00  0.00     0.073 A 
HETATM    5  N   UNL     1     -42.221  56.241 -52.580  1.00  0.00    -0.228 NA
HETATM    6  C   UNL     1     -42.779  57.279 -53.224  1.00  0.00     0.164 A 
HETATM    7  N   UNL     1     -42.767  57.439 -54.555  1.00  0.00    -0.210 NA
HETATM    8  C   UNL     1     -42.156  56.499 -55.297  1.00  0.00     0.143 A 
HETATM    9  C   UNL     1     -41.046  54.217 -52.671  1.00  0.00     0.032 A 
HETATM   10  C   UNL     1     -40.411  53.189 -53.372  1.00  0.00     0.002 A 
ENDROOT
BRANCH   8  11
HETATM   11  N   UNL     1     -42.101  56.653 -56.708  1.00  0.00    -0.340 N 
HETATM   12  H   UNL     1     -41.538  57.467 -56.930  1.00  0.00     0.167 HD
BRANCH  11  13
HETATM   13  C   UNL     1     -43.124  56.449 -57.664  1.00  0.00     0.036 A 
HETATM   14  C   UNL     1     -44.078  57.465 -57.857  1.00  0.00     0.069 A 
HETATM   15  C   UNL     1     -45.028  57.303 -58.846  1.00  0.00     0.107 A 
HETATM   16  C   UNL     1     -45.050  56.194 -59.654  1.00  0.00     0.105 A 
HETATM   17  O   UNL     1     -46.015  58.188 -59.148  1.00  0.00    -0.323 OA
HETATM   18  O   UNL     1     -46.058  56.236 -60.566  1.00  0.00    -0.323 OA
HETATM   19  C   UNL     1     -44.120  55.190 -59.524  1.00  0.00     0.042 A 
HETATM   20  C   UNL     1     -46.662  57.506 -60.245  1.00  0.00     0.352 A 
HETATM   21  C   UNL     1     -43.143  55.333 -58.529  1.00  0.00     0.032 A 
ENDBRANCH  11  13
ENDBRANCH   8  11
BRANCH   6  22
HETATM   22  C   UNL     1     -43.447  58.309 -52.418  1.00  0.00     0.029 A 
HETATM   23  C   UNL     1     -42.750  59.091 -51.497  1.00  0.00     0.131 A 
HETATM   24  N   UNL     1     -43.297  60.060 -50.716  1.00  0.00    -0.272 NA
HETATM   25  C   UNL     1     -44.622  60.271 -50.855  1.00  0.00     0.116 A 
HETATM   26  C   UNL     1     -45.420  59.562 -51.735  1.00  0.00     0.020 A 
HETATM   27  C   UNL     1     -44.823  58.575 -52.519  1.00  0.00     0.018 A 
ENDBRANCH   6  22
TORSDOF 3
ENDMDL
