MODEL 1
REMARK VINA RESULT:      -9.6      0.000      0.000
REMARK  6 active torsions:
REMARK  status: ('A' for Active; 'I' for Inactive)
REMARK    1  A    between atoms: N_9  and  C_10 
REMARK    2  A    between atoms: C_10  and  C_11 
REMARK       I    between atoms: C_11  and  N_12 
REMARK    3  A    between atoms: N_12  and  C_13 
REMARK    4  A    between atoms: C_14  and  C_15 
REMARK       I    between atoms: C_15  and  N_16 
REMARK    5  A    between atoms: N_16  and  C_17 
REMARK    6  A    between atoms: C_17  and  C_18 
ROOT
HETATM    1  C   UNL     1     -43.686  58.953 -55.693  1.00  0.00     0.240 C 
HETATM    2  N   UNL     1     -42.695  58.210 -56.319  1.00  0.00    -0.325 N 
HETATM    3  O   UNL     1     -44.651  59.479 -56.232  1.00  0.00    -0.271 OA
HETATM    4  H   UNL     1     -41.886  57.994 -55.751  1.00  0.00     0.169 HD
ENDROOT
BRANCH   1   5
HETATM    5  C   UNL     1     -43.473  59.040 -54.178  1.00  0.00     0.240 C 
BRANCH   5   6
HETATM    6  N   UNL     1     -42.469  58.108 -53.725  1.00  0.00    -0.259 N 
HETATM    7  C   UNL     1     -41.211  58.477 -53.364  1.00  0.00     0.326 C 
HETATM    8  N   UNL     1     -40.584  57.404 -52.790  1.00  0.00    -0.320 N 
HETATM    9  O   UNL     1     -40.711  59.584 -53.480  1.00  0.00    -0.247 OA
HETATM   10  C   UNL     1     -41.493  56.309 -52.514  1.00  0.00     0.144 C 
HETATM   11  H   UNL     1     -39.628  57.462 -52.469  1.00  0.00     0.165 HD
HETATM   12  C   UNL     1     -41.013  55.002 -53.115  1.00  0.00    -0.014 A 
HETATM   13  C   UNL     1     -42.761  56.872 -53.207  1.00  0.00     0.261 C 
HETATM   14  C   UNL     1     -41.737  56.260 -50.992  1.00  0.00     0.047 C 
HETATM   15  C   UNL     1     -40.982  53.814 -52.353  1.00  0.00    -0.049 A 
HETATM   16  C   UNL     1     -40.610  54.942 -54.462  1.00  0.00     0.011 A 
HETATM   17  C   UNL     1     -40.507  52.626 -52.931  1.00  0.00     0.007 A 
HETATM   18  C   UNL     1     -41.406  53.788 -50.905  1.00  0.00     0.039 C 
HETATM   19  C   UNL     1     -40.097  52.595 -54.261  1.00  0.00     0.001 A 
HETATM   20  C   UNL     1     -40.153  53.752 -55.028  1.00  0.00     0.001 A 
HETATM   21  C   UNL     1     -42.345  54.935 -50.553  1.00  0.00     0.008 C 
HETATM   22  O   UNL     1     -43.871  56.352 -53.199  1.00  0.00    -0.270 OA
ENDBRANCH   5   6
ENDBRANCH   1   5
BRANCH   2  23
HETATM   23  C   UNL     1     -42.563  57.868 -57.685  1.00  0.00     0.050 A 
HETATM   24  C   UNL     1     -42.053  58.651 -58.732  1.00  0.00     0.058 A 
HETATM   25  C   UNL     1     -41.919  58.086 -60.019  1.00  0.00     0.019 A 
HETATM   26  C   UNL     1     -42.324  56.780 -60.286  1.00  0.00     0.001 A 
HETATM   27  C   UNL     1     -42.881  56.021 -59.270  1.00  0.00     0.002 A 
HETATM   28  C   UNL     1     -43.005  56.562 -57.988  1.00  0.00     0.030 A 
BRANCH  24  29
HETATM   29  C   UNL     1     -41.738  60.100 -58.688  1.00  0.00     0.254 C 
HETATM   30  N   UNL     1     -42.038  60.834 -59.818  1.00  0.00    -0.351 N 
HETATM   31  H   UNL     1     -42.675  60.446 -60.506  1.00  0.00     0.163 HD
HETATM   32  O   UNL     1     -41.122  60.552 -57.727  1.00  0.00    -0.268 OA
BRANCH  30  33
HETATM   33  C   UNL     1     -41.879  62.267 -59.775  1.00  0.00     0.187 C 
BRANCH  33  34
HETATM   34  C   UNL     1     -40.714  62.670 -60.600  1.00  0.00     0.070 A 
HETATM   35  O   UNL     1     -40.785  62.407 -61.936  1.00  0.00    -0.325 OA
HETATM   36  C   UNL     1     -39.656  62.903 -62.503  1.00  0.00     0.142 A 
HETATM   37  C   UNL     1     -38.850  63.472 -61.546  1.00  0.00     0.027 A 
HETATM   38  C   UNL     1     -39.532  63.321 -60.315  1.00  0.00     0.036 A 
ENDBRANCH  33  34
ENDBRANCH  30  33
ENDBRANCH  24  29
ENDBRANCH   2  23
TORSDOF 6
ENDMDL
MODEL 2
REMARK VINA RESULT:      -9.4      1.121      2.313
REMARK  6 active torsions:
REMARK  status: ('A' for Active; 'I' for Inactive)
REMARK    1  A    between atoms: N_9  and  C_10 
REMARK    2  A    between atoms: C_10  and  C_11 
REMARK       I    between atoms: C_11  and  N_12 
REMARK    3  A    between atoms: N_12  and  C_13 
REMARK    4  A    between atoms: C_14  and  C_15 
REMARK       I    between atoms: C_15  and  N_16 
REMARK    5  A    between atoms: N_16  and  C_17 
REMARK    6  A    between atoms: C_17  and  C_18 
ROOT
HETATM    1  C   UNL     1     -43.159  58.873 -55.278  1.00  0.00     0.240 C 
HETATM    2  N   UNL     1     -42.311  58.103 -56.060  1.00  0.00    -0.325 N 
HETATM    3  O   UNL     1     -44.176  59.442 -55.652  1.00  0.00    -0.271 OA
HETATM    4  H   UNL     1     -41.430  57.849 -55.630  1.00  0.00     0.169 HD
ENDROOT
BRANCH   1   5
HETATM    5  C   UNL     1     -42.704  58.932 -53.816  1.00  0.00     0.240 C 
BRANCH   5   6
HETATM    6  N   UNL     1     -42.750  57.634 -53.188  1.00  0.00    -0.259 N 
HETATM    7  C   UNL     1     -43.907  57.012 -52.835  1.00  0.00     0.326 C 
HETATM    8  N   UNL     1     -43.621  55.726 -52.464  1.00  0.00    -0.320 N 
HETATM    9  O   UNL     1     -45.033  57.483 -52.874  1.00  0.00    -0.247 OA
HETATM   10  C   UNL     1     -42.261  55.342 -52.786  1.00  0.00     0.144 C 
HETATM   11  H   UNL     1     -44.344  55.097 -52.145  1.00  0.00     0.165 HD
HETATM   12  C   UNL     1     -41.519  54.798 -51.579  1.00  0.00    -0.014 A 
HETATM   13  C   UNL     1     -41.731  56.719 -53.261  1.00  0.00     0.261 C 
HETATM   14  C   UNL     1     -42.307  54.381 -53.992  1.00  0.00     0.047 C 
HETATM   15  C   UNL     1     -40.787  53.594 -51.652  1.00  0.00    -0.049 A 
HETATM   16  C   UNL     1     -41.526  55.504 -50.362  1.00  0.00     0.011 A 
HETATM   17  C   UNL     1     -40.133  53.104 -50.511  1.00  0.00     0.007 A 
HETATM   18  C   UNL     1     -40.719  52.781 -52.921  1.00  0.00     0.039 C 
HETATM   19  C   UNL     1     -40.168  53.811 -49.311  1.00  0.00     0.001 A 
HETATM   20  C   UNL     1     -40.861  55.014 -49.238  1.00  0.00     0.001 A 
HETATM   21  C   UNL     1     -41.001  53.617 -54.164  1.00  0.00     0.008 C 
HETATM   22  O   UNL     1     -40.619  56.934 -53.730  1.00  0.00    -0.270 OA
ENDBRANCH   5   6
ENDBRANCH   1   5
BRANCH   2  23
HETATM   23  C   UNL     1     -42.412  57.775 -57.431  1.00  0.00     0.050 A 
HETATM   24  C   UNL     1     -42.090  58.570 -58.542  1.00  0.00     0.058 A 
HETATM   25  C   UNL     1     -42.175  58.019 -59.839  1.00  0.00     0.019 A 
HETATM   26  C   UNL     1     -42.614  56.713 -60.046  1.00  0.00     0.001 A 
HETATM   27  C   UNL     1     -42.987  55.941 -58.958  1.00  0.00     0.002 A 
HETATM   28  C   UNL     1     -42.893  56.469 -57.668  1.00  0.00     0.030 A 
BRANCH  24  29
HETATM   29  C   UNL     1     -41.778  60.021 -58.538  1.00  0.00     0.254 C 
HETATM   30  N   UNL     1     -42.207  60.751 -59.628  1.00  0.00    -0.351 N 
HETATM   31  H   UNL     1     -42.917  60.358 -60.238  1.00  0.00     0.163 HD
HETATM   32  O   UNL     1     -41.060  60.478 -57.653  1.00  0.00    -0.268 OA
BRANCH  30  33
HETATM   33  C   UNL     1     -42.051  62.184 -59.607  1.00  0.00     0.187 C 
BRANCH  33  34
HETATM   34  C   UNL     1     -40.942  62.584 -60.506  1.00  0.00     0.070 A 
HETATM   35  O   UNL     1     -41.194  62.552 -61.846  1.00  0.00    -0.325 OA
HETATM   36  C   UNL     1     -40.079  63.005 -62.474  1.00  0.00     0.142 A 
HETATM   37  C   UNL     1     -39.105  63.316 -61.556  1.00  0.00     0.027 A 
HETATM   38  C   UNL     1     -39.660  63.044 -60.283  1.00  0.00     0.036 A 
ENDBRANCH  33  34
ENDBRANCH  30  33
ENDBRANCH  24  29
ENDBRANCH   2  23
TORSDOF 6
ENDMDL
MODEL 3
REMARK VINA RESULT:      -9.3      3.143      5.005
REMARK  6 active torsions:
REMARK  status: ('A' for Active; 'I' for Inactive)
REMARK    1  A    between atoms: N_9  and  C_10 
REMARK    2  A    between atoms: C_10  and  C_11 
REMARK       I    between atoms: C_11  and  N_12 
REMARK    3  A    between atoms: N_12  and  C_13 
REMARK    4  A    between atoms: C_14  and  C_15 
REMARK       I    between atoms: C_15  and  N_16 
REMARK    5  A    between atoms: N_16  and  C_17 
REMARK    6  A    between atoms: C_17  and  C_18 
ROOT
HETATM    1  C   UNL     1     -43.733  59.190 -52.770  1.00  0.00     0.240 C 
HETATM    2  N   UNL     1     -42.903  59.664 -53.776  1.00  0.00    -0.325 N 
HETATM    3  O   UNL     1     -44.957  59.211 -52.767  1.00  0.00    -0.271 OA
HETATM    4  H   UNL     1     -41.920  59.722 -53.540  1.00  0.00     0.169 HD
ENDROOT
BRANCH   1   5
HETATM    5  C   UNL     1     -42.943  58.577 -51.609  1.00  0.00     0.240 C 
BRANCH   5   6
HETATM    6  N   UNL     1     -42.901  57.137 -51.691  1.00  0.00    -0.259 N 
HETATM    7  C   UNL     1     -43.889  56.329 -51.221  1.00  0.00     0.326 C 
HETATM    8  N   UNL     1     -43.646  55.048 -51.637  1.00  0.00    -0.320 N 
HETATM    9  O   UNL     1     -44.865  56.669 -50.571  1.00  0.00    -0.247 OA
HETATM   10  C   UNL     1     -42.592  54.974 -52.628  1.00  0.00     0.144 C 
HETATM   11  H   UNL     1     -44.255  54.285 -51.376  1.00  0.00     0.165 HD
HETATM   12  C   UNL     1     -41.505  53.991 -52.234  1.00  0.00    -0.014 A 
HETATM   13  C   UNL     1     -42.123  56.451 -52.590  1.00  0.00     0.261 C 
HETATM   14  C   UNL     1     -43.241  54.691 -53.999  1.00  0.00     0.047 C 
HETATM   15  C   UNL     1     -41.025  53.026 -53.147  1.00  0.00    -0.049 A 
HETATM   16  C   UNL     1     -40.932  54.040 -50.950  1.00  0.00     0.011 A 
HETATM   17  C   UNL     1     -40.037  52.114 -52.743  1.00  0.00     0.007 A 
HETATM   18  C   UNL     1     -41.578  52.913 -54.546  1.00  0.00     0.039 C 
HETATM   19  C   UNL     1     -39.497  52.170 -51.461  1.00  0.00     0.001 A 
HETATM   20  C   UNL     1     -39.941  53.136 -50.566  1.00  0.00     0.001 A 
HETATM   21  C   UNL     1     -42.223  54.208 -55.024  1.00  0.00     0.008 C 
HETATM   22  O   UNL     1     -41.275  56.952 -53.319  1.00  0.00    -0.270 OA
ENDBRANCH   5   6
ENDBRANCH   1   5
BRANCH   2  23
HETATM   23  C   UNL     1     -43.247  60.253 -55.015  1.00  0.00     0.050 A 
HETATM   24  C   UNL     1     -43.685  59.619 -56.187  1.00  0.00     0.058 A 
HETATM   25  C   UNL     1     -44.070  60.401 -57.298  1.00  0.00     0.019 A 
HETATM   26  C   UNL     1     -43.985  61.791 -57.272  1.00  0.00     0.001 A 
HETATM   27  C   UNL     1     -43.499  62.421 -56.137  1.00  0.00     0.002 A 
HETATM   28  C   UNL     1     -43.130  61.660 -55.026  1.00  0.00     0.030 A 
BRANCH  24  29
HETATM   29  C   UNL     1     -43.676  58.162 -56.468  1.00  0.00     0.254 C 
HETATM   30  N   UNL     1     -43.215  57.772 -57.709  1.00  0.00    -0.351 N 
HETATM   31  H   UNL     1     -42.673  58.426 -58.264  1.00  0.00     0.163 HD
HETATM   32  O   UNL     1     -44.184  57.391 -55.658  1.00  0.00    -0.268 OA
BRANCH  30  33
HETATM   33  C   UNL     1     -43.057  56.363 -57.978  1.00  0.00     0.187 C 
BRANCH  33  34
HETATM   34  C   UNL     1     -44.027  55.937 -59.015  1.00  0.00     0.070 A 
HETATM   35  O   UNL     1     -45.065  56.784 -59.274  1.00  0.00    -0.325 OA
HETATM   36  C   UNL     1     -45.789  56.235 -60.282  1.00  0.00     0.142 A 
HETATM   37  C   UNL     1     -45.239  55.036 -60.669  1.00  0.00     0.027 A 
HETATM   38  C   UNL     1     -44.101  54.841 -59.850  1.00  0.00     0.036 A 
ENDBRANCH  33  34
ENDBRANCH  30  33
ENDBRANCH  24  29
ENDBRANCH   2  23
TORSDOF 6
ENDMDL
MODEL 4
REMARK VINA RESULT:      -9.1      1.850      4.201
REMARK  6 active torsions:
REMARK  status: ('A' for Active; 'I' for Inactive)
REMARK    1  A    between atoms: N_9  and  C_10 
REMARK    2  A    between atoms: C_10  and  C_11 
REMARK       I    between atoms: C_11  and  N_12 
REMARK    3  A    between atoms: N_12  and  C_13 
REMARK    4  A    between atoms: C_14  and  C_15 
REMARK       I    between atoms: C_15  and  N_16 
REMARK    5  A    between atoms: N_16  and  C_17 
REMARK    6  A    between atoms: C_17  and  C_18 
ROOT
HETATM    1  C   UNL     1     -42.852  59.392 -56.543  1.00  0.00     0.240 C 
HETATM    2  N   UNL     1     -42.554  60.693 -56.923  1.00  0.00    -0.325 N 
HETATM    3  O   UNL     1     -42.830  58.401 -57.261  1.00  0.00    -0.271 OA
HETATM    4  H   UNL     1     -42.788  61.410 -56.248  1.00  0.00     0.169 HD
ENDROOT
BRANCH   1   5
HETATM    5  C   UNL     1     -43.207  59.292 -55.056  1.00  0.00     0.240 C 
BRANCH   5   6
HETATM    6  N   UNL     1     -42.398  58.308 -54.377  1.00  0.00    -0.259 N 
HETATM    7  C   UNL     1     -41.259  58.612 -53.699  1.00  0.00     0.326 C 
HETATM    8  N   UNL     1     -40.851  57.506 -53.003  1.00  0.00    -0.320 N 
HETATM    9  O   UNL     1     -40.697  59.695 -53.661  1.00  0.00    -0.247 OA
HETATM   10  C   UNL     1     -41.850  56.455 -52.992  1.00  0.00     0.144 C 
HETATM   11  H   UNL     1     -40.009  57.514 -52.447  1.00  0.00     0.165 HD
HETATM   12  C   UNL     1     -41.291  55.130 -53.475  1.00  0.00    -0.014 A 
HETATM   13  C   UNL     1     -42.869  57.084 -53.976  1.00  0.00     0.261 C 
HETATM   14  C   UNL     1     -42.479  56.407 -51.584  1.00  0.00     0.047 C 
HETATM   15  C   UNL     1     -41.511  53.936 -52.753  1.00  0.00    -0.049 A 
HETATM   16  C   UNL     1     -40.558  55.060 -54.674  1.00  0.00     0.011 A 
HETATM   17  C   UNL     1     -40.959  52.731 -53.213  1.00  0.00     0.007 A 
HETATM   18  C   UNL     1     -42.294  53.921 -51.464  1.00  0.00     0.039 C 
HETATM   19  C   UNL     1     -40.221  52.689 -54.394  1.00  0.00     0.001 A 
HETATM   20  C   UNL     1     -40.026  53.853 -55.127  1.00  0.00     0.001 A 
HETATM   21  C   UNL     1     -43.239  55.110 -51.343  1.00  0.00     0.008 C 
HETATM   22  O   UNL     1     -43.966  56.619 -54.264  1.00  0.00    -0.270 OA
ENDBRANCH   5   6
ENDBRANCH   1   5
BRANCH   2  23
HETATM   23  C   UNL     1     -42.144  61.183 -58.184  1.00  0.00     0.050 A 
HETATM   24  C   UNL     1     -42.869  61.209 -59.385  1.00  0.00     0.058 A 
HETATM   25  C   UNL     1     -42.309  61.832 -60.522  1.00  0.00     0.019 A 
HETATM   26  C   UNL     1     -41.030  62.385 -60.491  1.00  0.00     0.001 A 
HETATM   27  C   UNL     1     -40.286  62.311 -59.325  1.00  0.00     0.002 A 
HETATM   28  C   UNL     1     -40.835  61.712 -58.189  1.00  0.00     0.030 A 
BRANCH  24  29
HETATM   29  C   UNL     1     -44.157  60.527 -59.663  1.00  0.00     0.254 C 
HETATM   30  N   UNL     1     -44.089  59.194 -60.018  1.00  0.00    -0.351 N 
HETATM   31  H   UNL     1     -43.238  58.675 -59.829  1.00  0.00     0.163 HD
HETATM   32  O   UNL     1     -45.193  61.185 -59.691  1.00  0.00    -0.268 OA
BRANCH  30  33
HETATM   33  C   UNL     1     -45.317  58.452 -60.162  1.00  0.00     0.187 C 
BRANCH  33  34
HETATM   34  C   UNL     1     -45.035  56.997 -60.116  1.00  0.00     0.070 A 
HETATM   35  O   UNL     1     -43.740  56.628 -59.896  1.00  0.00    -0.325 OA
HETATM   36  C   UNL     1     -43.716  55.272 -59.834  1.00  0.00     0.142 A 
HETATM   37  C   UNL     1     -44.977  54.761 -60.025  1.00  0.00     0.027 A 
HETATM   38  C   UNL     1     -45.831  55.874 -60.209  1.00  0.00     0.036 A 
ENDBRANCH  33  34
ENDBRANCH  30  33
ENDBRANCH  24  29
ENDBRANCH   2  23
TORSDOF 6
ENDMDL
MODEL 5
REMARK VINA RESULT:      -9.1      5.333      7.643
REMARK  6 active torsions:
REMARK  status: ('A' for Active; 'I' for Inactive)
REMARK    1  A    between atoms: N_9  and  C_10 
REMARK    2  A    between atoms: C_10  and  C_11 
REMARK       I    between atoms: C_11  and  N_12 
REMARK    3  A    between atoms: N_12  and  C_13 
REMARK    4  A    between atoms: C_14  and  C_15 
REMARK       I    between atoms: C_15  and  N_16 
REMARK    5  A    between atoms: N_16  and  C_17 
REMARK    6  A    between atoms: C_17  and  C_18 
ROOT
HETATM    1  C   UNL     1     -44.855  58.067 -51.897  1.00  0.00     0.240 C 
HETATM    2  N   UNL     1     -44.471  59.374 -52.158  1.00  0.00    -0.325 N 
HETATM    3  O   UNL     1     -45.443  57.666 -50.901  1.00  0.00    -0.271 OA
HETATM    4  H   UNL     1     -43.846  59.498 -52.945  1.00  0.00     0.169 HD
ENDROOT
BRANCH   1   5
HETATM    5  C   UNL     1     -44.482  57.116 -53.040  1.00  0.00     0.240 C 
BRANCH   5   6
HETATM    6  N   UNL     1     -43.162  56.559 -52.863  1.00  0.00    -0.259 N 
HETATM    7  C   UNL     1     -42.019  57.221 -53.189  1.00  0.00     0.326 C 
HETATM    8  N   UNL     1     -40.949  56.514 -52.709  1.00  0.00    -0.320 N 
HETATM    9  O   UNL     1     -41.933  58.289 -53.772  1.00  0.00    -0.247 OA
HETATM   10  C   UNL     1     -41.343  55.447 -51.812  1.00  0.00     0.144 C 
HETATM   11  H   UNL     1     -40.001  56.826 -52.863  1.00  0.00     0.165 HD
HETATM   12  C   UNL     1     -40.770  54.106 -52.231  1.00  0.00    -0.014 A 
HETATM   13  C   UNL     1     -42.880  55.538 -51.992  1.00  0.00     0.261 C 
HETATM   14  C   UNL     1     -40.983  55.872 -50.373  1.00  0.00     0.047 C 
HETATM   15  C   UNL     1     -40.125  53.263 -51.300  1.00  0.00    -0.049 A 
HETATM   16  C   UNL     1     -40.894  53.663 -53.561  1.00  0.00     0.011 A 
HETATM   17  C   UNL     1     -39.583  52.040 -51.725  1.00  0.00     0.007 A 
HETATM   18  C   UNL     1     -39.959  53.657 -49.853  1.00  0.00     0.039 C 
HETATM   19  C   UNL     1     -39.701  51.630 -53.051  1.00  0.00     0.001 A 
HETATM   20  C   UNL     1     -40.362  52.440 -53.968  1.00  0.00     0.001 A 
HETATM   21  C   UNL     1     -40.985  54.692 -49.411  1.00  0.00     0.008 C 
HETATM   22  O   UNL     1     -43.713  54.884 -51.375  1.00  0.00    -0.270 OA
ENDBRANCH   5   6
ENDBRANCH   1   5
BRANCH   2  23
HETATM   23  C   UNL     1     -44.671  60.537 -51.378  1.00  0.00     0.050 A 
HETATM   24  C   UNL     1     -45.658  61.524 -51.525  1.00  0.00     0.058 A 
HETATM   25  C   UNL     1     -45.745  62.566 -50.577  1.00  0.00     0.019 A 
HETATM   26  C   UNL     1     -44.844  62.662 -49.518  1.00  0.00     0.001 A 
HETATM   27  C   UNL     1     -43.832  61.723 -49.399  1.00  0.00     0.002 A 
HETATM   28  C   UNL     1     -43.745  60.678 -50.322  1.00  0.00     0.030 A 
BRANCH  24  29
HETATM   29  C   UNL     1     -46.585  61.691 -52.671  1.00  0.00     0.254 C 
HETATM   30  N   UNL     1     -47.834  62.206 -52.388  1.00  0.00    -0.351 N 
HETATM   31  H   UNL     1     -47.985  62.682 -51.505  1.00  0.00     0.163 HD
HETATM   32  O   UNL     1     -46.262  61.257 -53.774  1.00  0.00    -0.268 OA
BRANCH  30  33
HETATM   33  C   UNL     1     -48.720  62.517 -53.484  1.00  0.00     0.187 C 
BRANCH  33  34
HETATM   34  C   UNL     1     -50.124  62.532 -53.008  1.00  0.00     0.070 A 
HETATM   35  O   UNL     1     -50.996  61.691 -53.635  1.00  0.00    -0.325 OA
HETATM   36  C   UNL     1     -52.195  61.821 -53.012  1.00  0.00     0.142 A 
HETATM   37  C   UNL     1     -52.111  62.745 -51.999  1.00  0.00     0.027 A 
HETATM   38  C   UNL     1     -50.773  63.207 -51.995  1.00  0.00     0.036 A 
ENDBRANCH  33  34
ENDBRANCH  30  33
ENDBRANCH  24  29
ENDBRANCH   2  23
TORSDOF 6
ENDMDL
MODEL 6
REMARK VINA RESULT:      -9.0      3.058      6.697
REMARK  6 active torsions:
REMARK  status: ('A' for Active; 'I' for Inactive)
REMARK    1  A    between atoms: N_9  and  C_10 
REMARK    2  A    between atoms: C_10  and  C_11 
REMARK       I    between atoms: C_11  and  N_12 
REMARK    3  A    between atoms: N_12  and  C_13 
REMARK    4  A    between atoms: C_14  and  C_15 
REMARK       I    between atoms: C_15  and  N_16 
REMARK    5  A    between atoms: N_16  and  C_17 
REMARK    6  A    between atoms: C_17  and  C_18 
ROOT
HETATM    1  C   UNL     1     -42.796  55.906 -51.364  1.00  0.00     0.240 C 
HETATM    2  N   UNL     1     -41.731  55.664 -52.221  1.00  0.00    -0.325 N 
HETATM    3  O   UNL     1     -43.606  55.083 -50.960  1.00  0.00    -0.271 OA
HETATM    4  H   UNL     1     -41.267  56.487 -52.585  1.00  0.00     0.169 HD
ENDROOT
BRANCH   1   5
HETATM    5  C   UNL     1     -42.859  57.372 -50.920  1.00  0.00     0.240 C 
BRANCH   5   6
HETATM    6  N   UNL     1     -43.728  58.151 -51.769  1.00  0.00    -0.259 N 
HETATM    7  C   UNL     1     -44.961  58.580 -51.388  1.00  0.00     0.326 C 
HETATM    8  N   UNL     1     -45.431  59.458 -52.328  1.00  0.00    -0.320 N 
HETATM    9  O   UNL     1     -45.555  58.285 -50.364  1.00  0.00    -0.247 OA
HETATM   10  C   UNL     1     -44.414  59.852 -53.282  1.00  0.00     0.144 C 
HETATM   11  H   UNL     1     -46.345  59.880 -52.243  1.00  0.00     0.165 HD
HETATM   12  C   UNL     1     -44.858  59.629 -54.716  1.00  0.00    -0.014 A 
HETATM   13  C   UNL     1     -43.283  58.891 -52.835  1.00  0.00     0.261 C 
HETATM   14  C   UNL     1     -43.993  61.301 -52.963  1.00  0.00     0.047 C 
HETATM   15  C   UNL     1     -44.708  60.636 -55.693  1.00  0.00    -0.049 A 
HETATM   16  C   UNL     1     -45.408  58.394 -55.107  1.00  0.00     0.011 A 
HETATM   17  C   UNL     1     -45.153  60.407 -57.005  1.00  0.00     0.007 A 
HETATM   18  C   UNL     1     -44.119  61.984 -55.360  1.00  0.00     0.039 C 
HETATM   19  C   UNL     1     -45.711  59.183 -57.365  1.00  0.00     0.001 A 
HETATM   20  C   UNL     1     -45.834  58.175 -56.417  1.00  0.00     0.001 A 
HETATM   21  C   UNL     1     -43.237  61.943 -54.119  1.00  0.00     0.008 C 
HETATM   22  O   UNL     1     -42.142  58.870 -53.284  1.00  0.00    -0.270 OA
ENDBRANCH   5   6
ENDBRANCH   1   5
BRANCH   2  23
HETATM   23  C   UNL     1     -41.316  54.446 -52.807  1.00  0.00     0.050 A 
HETATM   24  C   UNL     1     -41.583  53.966 -54.098  1.00  0.00     0.058 A 
HETATM   25  C   UNL     1     -40.992  52.757 -54.525  1.00  0.00     0.019 A 
HETATM   26  C   UNL     1     -40.182  52.004 -53.677  1.00  0.00     0.001 A 
HETATM   27  C   UNL     1     -39.960  52.444 -52.382  1.00  0.00     0.002 A 
HETATM   28  C   UNL     1     -40.526  53.647 -51.952  1.00  0.00     0.030 A 
BRANCH  24  29
HETATM   29  C   UNL     1     -42.550  54.526 -55.073  1.00  0.00     0.254 C 
HETATM   30  N   UNL     1     -42.024  55.056 -56.234  1.00  0.00    -0.351 N 
HETATM   31  H   UNL     1     -41.073  54.820 -56.500  1.00  0.00     0.163 HD
HETATM   32  O   UNL     1     -43.735  54.612 -54.763  1.00  0.00    -0.268 OA
BRANCH  30  33
HETATM   33  C   UNL     1     -42.929  55.486 -57.272  1.00  0.00     0.187 C 
BRANCH  33  34
HETATM   34  C   UNL     1     -42.628  56.886 -57.654  1.00  0.00     0.070 A 
HETATM   35  O   UNL     1     -42.242  57.729 -56.653  1.00  0.00    -0.325 OA
HETATM   36  C   UNL     1     -41.964  58.928 -57.224  1.00  0.00     0.142 A 
HETATM   37  C   UNL     1     -42.179  58.875 -58.580  1.00  0.00     0.027 A 
HETATM   38  C   UNL     1     -42.609  57.556 -58.860  1.00  0.00     0.036 A 
ENDBRANCH  33  34
ENDBRANCH  30  33
ENDBRANCH  24  29
ENDBRANCH   2  23
TORSDOF 6
ENDMDL
MODEL 7
REMARK VINA RESULT:      -8.6      2.018      2.186
REMARK  6 active torsions:
REMARK  status: ('A' for Active; 'I' for Inactive)
REMARK    1  A    between atoms: N_9  and  C_10 
REMARK    2  A    between atoms: C_10  and  C_11 
REMARK       I    between atoms: C_11  and  N_12 
REMARK    3  A    between atoms: N_12  and  C_13 
REMARK    4  A    between atoms: C_14  and  C_15 
REMARK       I    between atoms: C_15  and  N_16 
REMARK    5  A    between atoms: N_16  and  C_17 
REMARK    6  A    between atoms: C_17  and  C_18 
ROOT
HETATM    1  C   UNL     1     -44.101  56.782 -55.811  1.00  0.00     0.240 C 
HETATM    2  N   UNL     1     -44.912  57.804 -56.284  1.00  0.00    -0.325 N 
HETATM    3  O   UNL     1     -43.436  56.010 -56.487  1.00  0.00    -0.271 OA
HETATM    4  H   UNL     1     -45.520  58.234 -55.597  1.00  0.00     0.169 HD
ENDROOT
BRANCH   1   5
HETATM    5  C   UNL     1     -44.089  56.716 -54.280  1.00  0.00     0.240 C 
BRANCH   5   6
HETATM    6  N   UNL     1     -42.853  56.164 -53.778  1.00  0.00    -0.259 N 
HETATM    7  C   UNL     1     -41.668  56.831 -53.804  1.00  0.00     0.326 C 
HETATM    8  N   UNL     1     -40.750  56.126 -53.072  1.00  0.00    -0.320 N 
HETATM    9  O   UNL     1     -41.442  57.902 -54.343  1.00  0.00    -0.247 OA
HETATM   10  C   UNL     1     -41.352  55.053 -52.306  1.00  0.00     0.144 C 
HETATM   11  H   UNL     1     -39.795  56.442 -52.981  1.00  0.00     0.165 HD
HETATM   12  C   UNL     1     -40.685  53.717 -52.572  1.00  0.00    -0.014 A 
HETATM   13  C   UNL     1     -42.795  55.140 -52.867  1.00  0.00     0.261 C 
HETATM   14  C   UNL     1     -41.368  55.474 -50.822  1.00  0.00     0.047 C 
HETATM   15  C   UNL     1     -40.292  52.871 -51.512  1.00  0.00    -0.049 A 
HETATM   16  C   UNL     1     -40.469  53.279 -53.892  1.00  0.00     0.011 A 
HETATM   17  C   UNL     1     -39.654  51.653 -51.791  1.00  0.00     0.007 A 
HETATM   18  C   UNL     1     -40.498  53.260 -50.069  1.00  0.00     0.039 C 
HETATM   19  C   UNL     1     -39.433  51.248 -53.105  1.00  0.00     0.001 A 
HETATM   20  C   UNL     1     -39.845  52.060 -54.155  1.00  0.00     0.001 A 
HETATM   21  C   UNL     1     -41.607  54.290 -49.895  1.00  0.00     0.008 C 
HETATM   22  O   UNL     1     -43.753  54.479 -52.483  1.00  0.00    -0.270 OA
ENDBRANCH   5   6
ENDBRANCH   1   5
BRANCH   2  23
HETATM   23  C   UNL     1     -45.151  58.210 -57.617  1.00  0.00     0.050 A 
HETATM   24  C   UNL     1     -44.268  58.842 -58.505  1.00  0.00     0.058 A 
HETATM   25  C   UNL     1     -44.674  59.082 -59.836  1.00  0.00     0.019 A 
HETATM   26  C   UNL     1     -45.952  58.745 -60.277  1.00  0.00     0.001 A 
HETATM   27  C   UNL     1     -46.848  58.173 -59.390  1.00  0.00     0.002 A 
HETATM   28  C   UNL     1     -46.454  57.915 -58.075  1.00  0.00     0.030 A 
BRANCH  24  29
HETATM   29  C   UNL     1     -42.945  59.430 -58.178  1.00  0.00     0.254 C 
HETATM   30  N   UNL     1     -42.769  60.766 -58.479  1.00  0.00    -0.351 N 
HETATM   31  H   UNL     1     -43.583  61.346 -58.654  1.00  0.00     0.163 HD
HETATM   32  O   UNL     1     -42.043  58.698 -57.783  1.00  0.00    -0.268 OA
BRANCH  30  33
HETATM   33  C   UNL     1     -41.554  61.417 -58.055  1.00  0.00     0.187 C 
BRANCH  33  34
HETATM   34  C   UNL     1     -40.867  62.013 -59.225  1.00  0.00     0.070 A 
HETATM   35  O   UNL     1     -41.486  61.885 -60.434  1.00  0.00    -0.325 OA
HETATM   36  C   UNL     1     -40.726  62.544 -61.345  1.00  0.00     0.142 A 
HETATM   37  C   UNL     1     -39.616  63.085 -60.742  1.00  0.00     0.027 A 
HETATM   38  C   UNL     1     -39.704  62.742 -59.372  1.00  0.00     0.036 A 
ENDBRANCH  33  34
ENDBRANCH  30  33
ENDBRANCH  24  29
ENDBRANCH   2  23
TORSDOF 6
ENDMDL
MODEL 8
REMARK VINA RESULT:      -8.6      2.562      4.339
REMARK  6 active torsions:
REMARK  status: ('A' for Active; 'I' for Inactive)
REMARK    1  A    between atoms: N_9  and  C_10 
REMARK    2  A    between atoms: C_10  and  C_11 
REMARK       I    between atoms: C_11  and  N_12 
REMARK    3  A    between atoms: N_12  and  C_13 
REMARK    4  A    between atoms: C_14  and  C_15 
REMARK       I    between atoms: C_15  and  N_16 
REMARK    5  A    between atoms: N_16  and  C_17 
REMARK    6  A    between atoms: C_17  and  C_18 
ROOT
HETATM    1  C   UNL     1     -44.427  59.547 -53.646  1.00  0.00     0.240 C 
HETATM    2  N   UNL     1     -43.843  60.751 -54.014  1.00  0.00    -0.325 N 
HETATM    3  O   UNL     1     -45.198  58.877 -54.320  1.00  0.00    -0.271 OA
HETATM    4  H   UNL     1     -43.368  61.252 -53.273  1.00  0.00     0.169 HD
ENDROOT
BRANCH   1   5
HETATM    5  C   UNL     1     -43.978  59.088 -52.255  1.00  0.00     0.240 C 
BRANCH   5   6
HETATM    6  N   UNL     1     -42.827  58.220 -52.323  1.00  0.00    -0.259 N 
HETATM    7  C   UNL     1     -41.545  58.674 -52.328  1.00  0.00     0.326 C 
HETATM    8  N   UNL     1     -40.699  57.606 -52.188  1.00  0.00    -0.320 N 
HETATM    9  O   UNL     1     -41.179  59.836 -52.398  1.00  0.00    -0.247 OA
HETATM   10  C   UNL     1     -41.397  56.386 -51.834  1.00  0.00     0.144 C 
HETATM   11  H   UNL     1     -39.696  57.725 -52.187  1.00  0.00     0.165 HD
HETATM   12  C   UNL     1     -41.071  55.246 -52.781  1.00  0.00    -0.014 A 
HETATM   13  C   UNL     1     -42.854  56.895 -51.969  1.00  0.00     0.261 C 
HETATM   14  C   UNL     1     -41.109  56.082 -50.349  1.00  0.00     0.047 C 
HETATM   15  C   UNL     1     -40.715  53.969 -52.296  1.00  0.00    -0.049 A 
HETATM   16  C   UNL     1     -41.143  55.435 -54.174  1.00  0.00     0.011 A 
HETATM   17  C   UNL     1     -40.394  52.943 -53.198  1.00  0.00     0.007 A 
HETATM   18  C   UNL     1     -40.624  53.680 -50.818  1.00  0.00     0.039 C 
HETATM   19  C   UNL     1     -40.455  53.158 -54.572  1.00  0.00     0.001 A 
HETATM   20  C   UNL     1     -40.835  54.403 -55.060  1.00  0.00     0.001 A 
HETATM   21  C   UNL     1     -41.455  54.645 -49.982  1.00  0.00     0.008 C 
HETATM   22  O   UNL     1     -43.864  56.256 -51.697  1.00  0.00    -0.270 OA
ENDBRANCH   5   6
ENDBRANCH   1   5
BRANCH   2  23
HETATM   23  C   UNL     1     -43.970  61.473 -55.223  1.00  0.00     0.050 A 
HETATM   24  C   UNL     1     -43.538  61.103 -56.506  1.00  0.00     0.058 A 
HETATM   25  C   UNL     1     -43.846  61.930 -57.608  1.00  0.00     0.019 A 
HETATM   26  C   UNL     1     -44.534  63.131 -57.446  1.00  0.00     0.001 A 
HETATM   27  C   UNL     1     -44.913  63.530 -56.174  1.00  0.00     0.002 A 
HETATM   28  C   UNL     1     -44.628  62.713 -55.077  1.00  0.00     0.030 A 
BRANCH  24  29
HETATM   29  C   UNL     1     -42.651  59.965 -56.853  1.00  0.00     0.254 C 
HETATM   30  N   UNL     1     -43.211  58.705 -56.806  1.00  0.00    -0.351 N 
HETATM   31  H   UNL     1     -44.221  58.612 -56.800  1.00  0.00     0.163 HD
HETATM   32  O   UNL     1     -41.454  60.171 -57.038  1.00  0.00    -0.268 OA
BRANCH  30  33
HETATM   33  C   UNL     1     -42.431  57.582 -57.267  1.00  0.00     0.187 C 
BRANCH  33  34
HETATM   34  C   UNL     1     -43.207  56.806 -58.264  1.00  0.00     0.070 A 
HETATM   35  O   UNL     1     -44.310  57.409 -58.792  1.00  0.00    -0.325 OA
HETATM   36  C   UNL     1     -44.830  56.558 -59.712  1.00  0.00     0.142 A 
HETATM   37  C   UNL     1     -44.084  55.406 -59.776  1.00  0.00     0.027 A 
HETATM   38  C   UNL     1     -43.034  55.563 -58.839  1.00  0.00     0.036 A 
ENDBRANCH  33  34
ENDBRANCH  30  33
ENDBRANCH  24  29
ENDBRANCH   2  23
TORSDOF 6
ENDMDL
MODEL 9
REMARK VINA RESULT:      -8.6      2.786      3.905
REMARK  6 active torsions:
REMARK  status: ('A' for Active; 'I' for Inactive)
REMARK    1  A    between atoms: N_9  and  C_10 
REMARK    2  A    between atoms: C_10  and  C_11 
REMARK       I    between atoms: C_11  and  N_12 
REMARK    3  A    between atoms: N_12  and  C_13 
REMARK    4  A    between atoms: C_14  and  C_15 
REMARK       I    between atoms: C_15  and  N_16 
REMARK    5  A    between atoms: N_16  and  C_17 
REMARK    6  A    between atoms: C_17  and  C_18 
ROOT
HETATM    1  C   UNL     1     -44.405  58.270 -55.642  1.00  0.00     0.240 C 
HETATM    2  N   UNL     1     -43.470  57.953 -56.617  1.00  0.00    -0.325 N 
HETATM    3  O   UNL     1     -45.619  58.140 -55.729  1.00  0.00    -0.271 OA
HETATM    4  H   UNL     1     -42.528  58.281 -56.443  1.00  0.00     0.169 HD
ENDROOT
BRANCH   1   5
HETATM    5  C   UNL     1     -43.749  58.802 -54.364  1.00  0.00     0.240 C 
BRANCH   5   6
HETATM    6  N   UNL     1     -42.661  57.959 -53.930  1.00  0.00    -0.259 N 
HETATM    7  C   UNL     1     -41.398  58.416 -53.715  1.00  0.00     0.326 C 
HETATM    8  N   UNL     1     -40.667  57.426 -53.116  1.00  0.00    -0.320 N 
HETATM    9  O   UNL     1     -40.971  59.532 -53.963  1.00  0.00    -0.247 OA
HETATM   10  C   UNL     1     -41.488  56.317 -52.674  1.00  0.00     0.144 C 
HETATM   11  H   UNL     1     -39.691  57.555 -52.889  1.00  0.00     0.165 HD
HETATM   12  C   UNL     1     -40.991  54.987 -53.210  1.00  0.00    -0.014 A 
HETATM   13  C   UNL     1     -42.839  56.759 -53.292  1.00  0.00     0.261 C 
HETATM   14  C   UNL     1     -41.596  56.384 -51.136  1.00  0.00     0.047 C 
HETATM   15  C   UNL     1     -40.830  53.870 -52.362  1.00  0.00    -0.049 A 
HETATM   16  C   UNL     1     -40.703  54.834 -54.579  1.00  0.00     0.011 A 
HETATM   17  C   UNL     1     -40.343  52.661 -52.884  1.00  0.00     0.007 A 
HETATM   18  C   UNL     1     -41.125  53.946 -50.884  1.00  0.00     0.039 C 
HETATM   19  C   UNL     1     -40.048  52.538 -54.240  1.00  0.00     0.001 A 
HETATM   20  C   UNL     1     -40.233  53.624 -55.088  1.00  0.00     0.001 A 
HETATM   21  C   UNL     1     -42.092  55.073 -50.541  1.00  0.00     0.008 C 
HETATM   22  O   UNL     1     -43.915  56.190 -53.142  1.00  0.00    -0.270 OA
ENDBRANCH   5   6
ENDBRANCH   1   5
BRANCH   2  23
HETATM   23  C   UNL     1     -43.673  57.401 -57.903  1.00  0.00     0.050 A 
HETATM   24  C   UNL     1     -44.097  58.051 -59.072  1.00  0.00     0.058 A 
HETATM   25  C   UNL     1     -44.147  57.333 -60.287  1.00  0.00     0.019 A 
HETATM   26  C   UNL     1     -43.826  55.979 -60.345  1.00  0.00     0.001 A 
HETATM   27  C   UNL     1     -43.461  55.317 -59.183  1.00  0.00     0.002 A 
HETATM   28  C   UNL     1     -43.392  56.019 -57.978  1.00  0.00     0.030 A 
BRANCH  24  29
HETATM   29  C   UNL     1     -44.645  59.425 -59.177  1.00  0.00     0.254 C 
HETATM   30  N   UNL     1     -45.757  59.591 -59.978  1.00  0.00    -0.351 N 
HETATM   31  H   UNL     1     -46.302  58.777 -60.242  1.00  0.00     0.163 HD
HETATM   32  O   UNL     1     -44.031  60.358 -58.666  1.00  0.00    -0.268 OA
BRANCH  30  33
HETATM   33  C   UNL     1     -46.408  60.878 -60.003  1.00  0.00     0.187 C 
BRANCH  33  34
HETATM   34  C   UNL     1     -47.585  60.864 -59.101  1.00  0.00     0.070 A 
HETATM   35  O   UNL     1     -48.358  61.988 -59.080  1.00  0.00    -0.325 OA
HETATM   36  C   UNL     1     -49.399  61.743 -58.244  1.00  0.00     0.142 A 
HETATM   37  C   UNL     1     -49.300  60.479 -57.713  1.00  0.00     0.027 A 
HETATM   38  C   UNL     1     -48.127  59.910 -58.265  1.00  0.00     0.036 A 
ENDBRANCH  33  34
ENDBRANCH  30  33
ENDBRANCH  24  29
ENDBRANCH   2  23
TORSDOF 6
ENDMDL
MODEL 10
REMARK VINA RESULT:      -8.3      2.866      8.180
REMARK  6 active torsions:
REMARK  status: ('A' for Active; 'I' for Inactive)
REMARK    1  A    between atoms: N_9  and  C_10 
REMARK    2  A    between atoms: C_10  and  C_11 
REMARK       I    between atoms: C_11  and  N_12 
REMARK    3  A    between atoms: N_12  and  C_13 
REMARK    4  A    between atoms: C_14  and  C_15 
REMARK       I    between atoms: C_15  and  N_16 
REMARK    5  A    between atoms: N_16  and  C_17 
REMARK    6  A    between atoms: C_17  and  C_18 
ROOT
HETATM    1  C   UNL     1     -43.726  60.575 -54.663  1.00  0.00     0.240 C 
HETATM    2  N   UNL     1     -43.798  59.538 -53.744  1.00  0.00    -0.325 N 
HETATM    3  O   UNL     1     -42.801  61.366 -54.796  1.00  0.00    -0.271 OA
HETATM    4  H   UNL     1     -44.703  59.092 -53.658  1.00  0.00     0.169 HD
ENDROOT
BRANCH   1   5
HETATM    5  C   UNL     1     -44.962  60.634 -55.567  1.00  0.00     0.240 C 
BRANCH   5   6
HETATM    6  N   UNL     1     -44.741  59.953 -56.820  1.00  0.00    -0.259 N 
HETATM    7  C   UNL     1     -44.042  60.494 -57.854  1.00  0.00     0.326 C 
HETATM    8  N   UNL     1     -43.836  59.526 -58.801  1.00  0.00    -0.320 N 
HETATM    9  O   UNL     1     -43.618  61.636 -57.934  1.00  0.00    -0.247 OA
HETATM   10  C   UNL     1     -44.186  58.202 -58.329  1.00  0.00     0.144 C 
HETATM   11  H   UNL     1     -43.352  59.729 -59.664  1.00  0.00     0.165 HD
HETATM   12  C   UNL     1     -45.157  57.500 -59.259  1.00  0.00    -0.014 A 
HETATM   13  C   UNL     1     -44.816  58.592 -56.967  1.00  0.00     0.261 C 
HETATM   14  C   UNL     1     -42.878  57.425 -58.069  1.00  0.00     0.047 C 
HETATM   15  C   UNL     1     -44.936  56.172 -59.684  1.00  0.00    -0.049 A 
HETATM   16  C   UNL     1     -46.321  58.157 -59.700  1.00  0.00     0.011 A 
HETATM   17  C   UNL     1     -45.840  55.561 -60.566  1.00  0.00     0.007 A 
HETATM   18  C   UNL     1     -43.719  55.393 -59.249  1.00  0.00     0.039 C 
HETATM   19  C   UNL     1     -46.976  56.237 -61.003  1.00  0.00     0.001 A 
HETATM   20  C   UNL     1     -47.219  57.534 -60.566  1.00  0.00     0.001 A 
HETATM   21  C   UNL     1     -43.118  55.925 -57.954  1.00  0.00     0.008 C 
HETATM   22  O   UNL     1     -45.215  57.809 -56.113  1.00  0.00    -0.270 OA
ENDBRANCH   5   6
ENDBRANCH   1   5
BRANCH   2  23
HETATM   23  C   UNL     1     -42.848  59.133 -52.777  1.00  0.00     0.050 A 
HETATM   24  C   UNL     1     -42.003  58.014 -52.804  1.00  0.00     0.058 A 
HETATM   25  C   UNL     1     -41.052  57.837 -51.775  1.00  0.00     0.019 A 
HETATM   26  C   UNL     1     -40.962  58.728 -50.708  1.00  0.00     0.001 A 
HETATM   27  C   UNL     1     -41.832  59.804 -50.646  1.00  0.00     0.002 A 
HETATM   28  C   UNL     1     -42.767  59.999 -51.665  1.00  0.00     0.030 A 
BRANCH  24  29
HETATM   29  C   UNL     1     -42.067  56.873 -53.750  1.00  0.00     0.254 C 
HETATM   30  N   UNL     1     -40.873  56.245 -54.046  1.00  0.00    -0.351 N 
HETATM   31  H   UNL     1     -40.073  56.393 -53.440  1.00  0.00     0.163 HD
HETATM   32  O   UNL     1     -43.126  56.620 -54.317  1.00  0.00    -0.268 OA
BRANCH  30  33
HETATM   33  C   UNL     1     -40.901  55.047 -54.849  1.00  0.00     0.187 C 
BRANCH  33  34
HETATM   34  C   UNL     1     -40.501  53.880 -54.028  1.00  0.00     0.070 A 
HETATM   35  O   UNL     1     -40.516  54.045 -52.674  1.00  0.00    -0.325 OA
HETATM   36  C   UNL     1     -40.178  52.853 -52.121  1.00  0.00     0.142 A 
HETATM   37  C   UNL     1     -39.930  51.923 -53.102  1.00  0.00     0.027 A 
HETATM   38  C   UNL     1     -40.137  52.585 -54.335  1.00  0.00     0.036 A 
ENDBRANCH  33  34
ENDBRANCH  30  33
ENDBRANCH  24  29
ENDBRANCH   2  23
TORSDOF 6
ENDMDL
