MODEL 1
REMARK VINA RESULT:      -7.4      0.000      0.000
REMARK  5 active torsions:
REMARK  status: ('A' for Active; 'I' for Inactive)
REMARK    1  A    between atoms: S_2  and  C_3 
REMARK    2  A    between atoms: C_3  and  C_4 
REMARK    3  A    between atoms: C_7  and  C_8 
REMARK       I    between atoms: C_8  and  N_9 
REMARK    4  A    between atoms: N_9  and  C_10 
REMARK    5  A    between atoms: C_12  and  C_13 
ROOT
HETATM    1  C   UNL     1     -42.520  54.980 -55.517  1.00  0.00     0.256 C 
HETATM    2  N   UNL     1     -41.230  54.887 -55.025  1.00  0.00    -0.323 N 
HETATM    3  O   UNL     1     -43.508  54.416 -55.060  1.00  0.00    -0.267 OA
HETATM    4  H   UNL     1     -40.512  55.433 -55.477  1.00  0.00     0.169 HD
ENDROOT
BRANCH   2   5
HETATM    5  C   UNL     1     -40.769  54.035 -53.995  1.00  0.00     0.035 A 
HETATM    6  C   UNL     1     -40.832  54.349 -52.634  1.00  0.00     0.042 A 
HETATM    7  C   UNL     1     -40.421  53.431 -51.652  1.00  0.00    -0.021 A 
HETATM    8  C   UNL     1     -39.914  52.192 -52.062  1.00  0.00     0.012 A 
HETATM    9  C   UNL     1     -39.831  51.873 -53.418  1.00  0.00     0.003 A 
HETATM   10  C   UNL     1     -40.266  52.787 -54.378  1.00  0.00     0.029 A 
BRANCH   7  11
HETATM   11  C   UNL     1     -40.565  53.764 -50.241  1.00  0.00     0.010 A 
HETATM   12  C   UNL     1     -40.952  54.973 -49.613  1.00  0.00     0.152 A 
HETATM   13  N   UNL     1     -40.980  54.881 -48.280  1.00  0.00    -0.187 NA
HETATM   14  N   UNL     1     -40.599  53.618 -48.046  1.00  0.00    -0.289 N 
HETATM   15  H   UNL     1     -40.537  53.306 -47.083  1.00  0.00     0.188 HD
HETATM   16  C   UNL     1     -40.340  52.907 -49.182  1.00  0.00     0.123 A 
ENDBRANCH   7  11
ENDBRANCH   2   5
BRANCH   1  17
HETATM   17  C   UNL     1     -42.700  55.817 -56.746  1.00  0.00     0.032 A 
HETATM   18  C   UNL     1     -42.428  57.189 -56.794  1.00  0.00     0.017 A 
HETATM   19  C   UNL     1     -42.546  57.887 -58.001  1.00  0.00     0.009 A 
HETATM   20  C   UNL     1     -42.954  57.232 -59.172  1.00  0.00    -0.049 A 
HETATM   21  C   UNL     1     -43.272  55.870 -59.108  1.00  0.00     0.009 A 
HETATM   22  C   UNL     1     -43.145  55.170 -57.907  1.00  0.00     0.017 A 
BRANCH  20  23
HETATM   23  C   UNL     1     -43.029  57.971 -60.484  1.00  0.00     0.112 C 
BRANCH  23  24
HETATM   24  S   UNL     1     -44.202  59.365 -60.456  1.00  0.00    -0.169 SA
HETATM   25  C   UNL     1     -45.750  58.457 -60.213  1.00  0.00     0.090 C 
ENDBRANCH  23  24
ENDBRANCH  20  23
ENDBRANCH   1  17
TORSDOF 5
ENDMDL
MODEL 2
REMARK VINA RESULT:      -7.4      0.802      1.656
REMARK  5 active torsions:
REMARK  status: ('A' for Active; 'I' for Inactive)
REMARK    1  A    between atoms: S_2  and  C_3 
REMARK    2  A    between atoms: C_3  and  C_4 
REMARK    3  A    between atoms: C_7  and  C_8 
REMARK       I    between atoms: C_8  and  N_9 
REMARK    4  A    between atoms: N_9  and  C_10 
REMARK    5  A    between atoms: C_12  and  C_13 
ROOT
HETATM    1  C   UNL     1     -42.559  55.052 -55.886  1.00  0.00     0.256 C 
HETATM    2  N   UNL     1     -41.281  55.017 -55.355  1.00  0.00    -0.323 N 
HETATM    3  O   UNL     1     -43.532  54.436 -55.464  1.00  0.00    -0.267 OA
HETATM    4  H   UNL     1     -40.578  55.601 -55.781  1.00  0.00     0.169 HD
ENDROOT
BRANCH   2   5
HETATM    5  C   UNL     1     -40.810  54.179 -54.319  1.00  0.00     0.035 A 
HETATM    6  C   UNL     1     -40.915  54.485 -52.958  1.00  0.00     0.042 A 
HETATM    7  C   UNL     1     -40.491  53.580 -51.970  1.00  0.00    -0.021 A 
HETATM    8  C   UNL     1     -39.928  52.362 -52.373  1.00  0.00     0.012 A 
HETATM    9  C   UNL     1     -39.805  52.052 -53.728  1.00  0.00     0.003 A 
HETATM   10  C   UNL     1     -40.253  52.952 -54.694  1.00  0.00     0.029 A 
BRANCH   7  11
HETATM   11  C   UNL     1     -40.677  53.901 -50.562  1.00  0.00     0.010 A 
HETATM   12  C   UNL     1     -40.557  53.089 -49.407  1.00  0.00     0.152 A 
HETATM   13  N   UNL     1     -40.794  53.757 -48.274  1.00  0.00    -0.187 NA
HETATM   14  N   UNL     1     -41.080  54.997 -48.697  1.00  0.00    -0.289 N 
HETATM   15  H   UNL     1     -41.305  55.701 -48.003  1.00  0.00     0.188 HD
HETATM   16  C   UNL     1     -41.022  55.137 -50.054  1.00  0.00     0.123 A 
ENDBRANCH   7  11
ENDBRANCH   2   5
BRANCH   1  17
HETATM   17  C   UNL     1     -42.742  55.891 -57.113  1.00  0.00     0.032 A 
HETATM   18  C   UNL     1     -43.215  55.388 -58.330  1.00  0.00     0.017 A 
HETATM   19  C   UNL     1     -43.433  56.252 -59.410  1.00  0.00     0.009 A 
HETATM   20  C   UNL     1     -43.165  57.625 -59.297  1.00  0.00    -0.049 A 
HETATM   21  C   UNL     1     -42.646  58.114 -58.092  1.00  0.00     0.009 A 
HETATM   22  C   UNL     1     -42.437  57.256 -57.011  1.00  0.00     0.017 A 
BRANCH  20  23
HETATM   23  C   UNL     1     -43.451  58.564 -60.442  1.00  0.00     0.112 C 
BRANCH  23  24
HETATM   24  S   UNL     1     -43.346  60.321 -59.971  1.00  0.00    -0.169 SA
HETATM   25  C   UNL     1     -41.774  60.755 -60.758  1.00  0.00     0.090 C 
ENDBRANCH  23  24
ENDBRANCH  20  23
ENDBRANCH   1  17
TORSDOF 5
ENDMDL
MODEL 3
REMARK VINA RESULT:      -7.3      4.653      6.363
REMARK  5 active torsions:
REMARK  status: ('A' for Active; 'I' for Inactive)
REMARK    1  A    between atoms: S_2  and  C_3 
REMARK    2  A    between atoms: C_3  and  C_4 
REMARK    3  A    between atoms: C_7  and  C_8 
REMARK       I    between atoms: C_8  and  N_9 
REMARK    4  A    between atoms: N_9  and  C_10 
REMARK    5  A    between atoms: C_12  and  C_13 
ROOT
HETATM    1  C   UNL     1     -42.836  56.470 -52.476  1.00  0.00     0.256 C 
HETATM    2  N   UNL     1     -41.526  56.030 -52.386  1.00  0.00    -0.323 N 
HETATM    3  O   UNL     1     -43.756  55.883 -53.035  1.00  0.00    -0.267 OA
HETATM    4  H   UNL     1     -40.873  56.597 -51.866  1.00  0.00     0.169 HD
ENDROOT
BRANCH   2   5
HETATM    5  C   UNL     1     -40.960  54.901 -53.020  1.00  0.00     0.035 A 
HETATM    6  C   UNL     1     -40.649  53.708 -52.359  1.00  0.00     0.042 A 
HETATM    7  C   UNL     1     -40.151  52.594 -53.057  1.00  0.00    -0.021 A 
HETATM    8  C   UNL     1     -39.942  52.706 -54.438  1.00  0.00     0.012 A 
HETATM    9  C   UNL     1     -40.234  53.895 -55.105  1.00  0.00     0.003 A 
HETATM   10  C   UNL     1     -40.750  54.983 -54.401  1.00  0.00     0.029 A 
BRANCH   7  11
HETATM   11  C   UNL     1     -39.902  51.345 -52.351  1.00  0.00     0.010 A 
HETATM   12  C   UNL     1     -39.859  51.063 -50.963  1.00  0.00     0.152 A 
HETATM   13  N   UNL     1     -39.614  49.776 -50.700  1.00  0.00    -0.187 NA
HETATM   14  N   UNL     1     -39.485  49.229 -51.917  1.00  0.00    -0.289 N 
HETATM   15  H   UNL     1     -39.284  48.236 -51.978  1.00  0.00     0.188 HD
HETATM   16  C   UNL     1     -39.649  50.121 -52.937  1.00  0.00     0.123 A 
ENDBRANCH   7  11
ENDBRANCH   2   5
BRANCH   1  17
HETATM   17  C   UNL     1     -43.127  57.806 -51.867  1.00  0.00     0.032 A 
HETATM   18  C   UNL     1     -44.421  58.274 -51.609  1.00  0.00     0.017 A 
HETATM   19  C   UNL     1     -44.608  59.502 -50.965  1.00  0.00     0.009 A 
HETATM   20  C   UNL     1     -43.511  60.290 -50.586  1.00  0.00    -0.049 A 
HETATM   21  C   UNL     1     -42.220  59.840 -50.890  1.00  0.00     0.009 A 
HETATM   22  C   UNL     1     -42.031  58.610 -51.524  1.00  0.00     0.017 A 
BRANCH  20  23
HETATM   23  C   UNL     1     -43.711  61.587 -49.843  1.00  0.00     0.112 C 
BRANCH  23  24
HETATM   24  S   UNL     1     -45.434  61.851 -49.313  1.00  0.00    -0.169 SA
HETATM   25  C   UNL     1     -45.362  61.113 -47.661  1.00  0.00     0.090 C 
ENDBRANCH  23  24
ENDBRANCH  20  23
ENDBRANCH   1  17
TORSDOF 5
ENDMDL
MODEL 4
REMARK VINA RESULT:      -7.3      2.243      3.236
REMARK  5 active torsions:
REMARK  status: ('A' for Active; 'I' for Inactive)
REMARK    1  A    between atoms: S_2  and  C_3 
REMARK    2  A    between atoms: C_3  and  C_4 
REMARK    3  A    between atoms: C_7  and  C_8 
REMARK       I    between atoms: C_8  and  N_9 
REMARK    4  A    between atoms: N_9  and  C_10 
REMARK    5  A    between atoms: C_12  and  C_13 
ROOT
HETATM    1  C   UNL     1     -42.643  55.173 -56.173  1.00  0.00     0.256 C 
HETATM    2  N   UNL     1     -41.671  55.485 -55.237  1.00  0.00    -0.323 N 
HETATM    3  O   UNL     1     -43.421  54.227 -56.116  1.00  0.00    -0.267 OA
HETATM    4  H   UNL     1     -41.118  56.315 -55.391  1.00  0.00     0.169 HD
ENDROOT
BRANCH   2   5
HETATM    5  C   UNL     1     -41.293  54.718 -54.112  1.00  0.00     0.035 A 
HETATM    6  C   UNL     1     -40.915  53.372 -54.175  1.00  0.00     0.042 A 
HETATM    7  C   UNL     1     -40.482  52.681 -53.030  1.00  0.00    -0.021 A 
HETATM    8  C   UNL     1     -40.462  53.358 -51.804  1.00  0.00     0.012 A 
HETATM    9  C   UNL     1     -40.851  54.695 -51.727  1.00  0.00     0.003 A 
HETATM   10  C   UNL     1     -41.255  55.373 -52.876  1.00  0.00     0.029 A 
BRANCH   7  11
HETATM   11  C   UNL     1     -40.030  51.301 -53.143  1.00  0.00     0.010 A 
HETATM   12  C   UNL     1     -39.900  50.462 -54.277  1.00  0.00     0.152 A 
HETATM   13  N   UNL     1     -39.431  49.248 -53.976  1.00  0.00    -0.187 NA
HETATM   14  N   UNL     1     -39.271  49.296 -52.646  1.00  0.00    -0.289 N 
HETATM   15  H   UNL     1     -38.922  48.469 -52.174  1.00  0.00     0.188 HD
HETATM   16  C   UNL     1     -39.612  50.500 -52.099  1.00  0.00     0.123 A 
ENDBRANCH   7  11
ENDBRANCH   2   5
BRANCH   1  17
HETATM   17  C   UNL     1     -42.707  56.057 -57.379  1.00  0.00     0.032 A 
HETATM   18  C   UNL     1     -43.047  55.600 -58.657  1.00  0.00     0.017 A 
HETATM   19  C   UNL     1     -43.160  56.504 -59.720  1.00  0.00     0.009 A 
HETATM   20  C   UNL     1     -42.919  57.873 -59.527  1.00  0.00    -0.049 A 
HETATM   21  C   UNL     1     -42.532  58.318 -58.258  1.00  0.00     0.009 A 
HETATM   22  C   UNL     1     -42.427  57.419 -57.195  1.00  0.00     0.017 A 
BRANCH  20  23
HETATM   23  C   UNL     1     -43.095  58.854 -60.659  1.00  0.00     0.112 C 
BRANCH  23  24
HETATM   24  S   UNL     1     -44.434  60.054 -60.365  1.00  0.00    -0.169 SA
HETATM   25  C   UNL     1     -45.850  58.926 -60.313  1.00  0.00     0.090 C 
ENDBRANCH  23  24
ENDBRANCH  20  23
ENDBRANCH   1  17
TORSDOF 5
ENDMDL
MODEL 5
REMARK VINA RESULT:      -7.1     14.813     16.173
REMARK  5 active torsions:
REMARK  status: ('A' for Active; 'I' for Inactive)
REMARK    1  A    between atoms: S_2  and  C_3 
REMARK    2  A    between atoms: C_3  and  C_4 
REMARK    3  A    between atoms: C_7  and  C_8 
REMARK       I    between atoms: C_8  and  N_9 
REMARK    4  A    between atoms: N_9  and  C_10 
REMARK    5  A    between atoms: C_12  and  C_13 
ROOT
HETATM    1  C   UNL     1     -35.299  41.896 -53.753  1.00  0.00     0.256 C 
HETATM    2  N   UNL     1     -34.395  40.895 -53.440  1.00  0.00    -0.323 N 
HETATM    3  O   UNL     1     -35.798  42.689 -52.962  1.00  0.00    -0.267 OA
HETATM    4  H   UNL     1     -34.036  40.331 -54.196  1.00  0.00     0.169 HD
ENDROOT
BRANCH   2   5
HETATM    5  C   UNL     1     -33.968  40.503 -52.151  1.00  0.00     0.035 A 
HETATM    6  C   UNL     1     -34.824  40.005 -51.163  1.00  0.00     0.042 A 
HETATM    7  C   UNL     1     -34.331  39.565 -49.923  1.00  0.00    -0.021 A 
HETATM    8  C   UNL     1     -32.956  39.662 -49.675  1.00  0.00     0.012 A 
HETATM    9  C   UNL     1     -32.094  40.171 -50.646  1.00  0.00     0.003 A 
HETATM   10  C   UNL     1     -32.598  40.580 -51.881  1.00  0.00     0.029 A 
BRANCH   7  11
HETATM   11  C   UNL     1     -35.241  38.988 -48.942  1.00  0.00     0.010 A 
HETATM   12  C   UNL     1     -36.635  39.162 -48.763  1.00  0.00     0.152 A 
HETATM   13  N   UNL     1     -37.123  38.441 -47.749  1.00  0.00    -0.187 NA
HETATM   14  N   UNL     1     -36.043  37.811 -47.265  1.00  0.00    -0.289 N 
HETATM   15  H   UNL     1     -36.164  37.195 -46.469  1.00  0.00     0.188 HD
HETATM   16  C   UNL     1     -34.894  38.101 -47.943  1.00  0.00     0.123 A 
ENDBRANCH   7  11
ENDBRANCH   2   5
BRANCH   1  17
HETATM   17  C   UNL     1     -35.729  41.974 -55.185  1.00  0.00     0.032 A 
HETATM   18  C   UNL     1     -34.835  41.979 -56.262  1.00  0.00     0.017 A 
HETATM   19  C   UNL     1     -35.318  41.976 -57.575  1.00  0.00     0.009 A 
HETATM   20  C   UNL     1     -36.697  41.984 -57.834  1.00  0.00    -0.049 A 
HETATM   21  C   UNL     1     -37.586  42.027 -56.754  1.00  0.00     0.009 A 
HETATM   22  C   UNL     1     -37.107  42.022 -55.443  1.00  0.00     0.017 A 
BRANCH  20  23
HETATM   23  C   UNL     1     -37.217  41.925 -59.248  1.00  0.00     0.112 C 
BRANCH  23  24
HETATM   24  S   UNL     1     -37.077  40.269 -59.995  1.00  0.00    -0.169 SA
HETATM   25  C   UNL     1     -38.461  39.443 -59.168  1.00  0.00     0.090 C 
ENDBRANCH  23  24
ENDBRANCH  20  23
ENDBRANCH   1  17
TORSDOF 5
ENDMDL
MODEL 6
REMARK VINA RESULT:      -7.0      4.037      9.142
REMARK  5 active torsions:
REMARK  status: ('A' for Active; 'I' for Inactive)
REMARK    1  A    between atoms: S_2  and  C_3 
REMARK    2  A    between atoms: C_3  and  C_4 
REMARK    3  A    between atoms: C_7  and  C_8 
REMARK       I    between atoms: C_8  and  N_9 
REMARK    4  A    between atoms: N_9  and  C_10 
REMARK    5  A    between atoms: C_12  and  C_13 
ROOT
HETATM    1  C   UNL     1     -42.865  55.683 -55.700  1.00  0.00     0.256 C 
HETATM    2  N   UNL     1     -42.452  55.477 -57.006  1.00  0.00    -0.323 N 
HETATM    3  O   UNL     1     -43.747  56.453 -55.336  1.00  0.00    -0.267 OA
HETATM    4  H   UNL     1     -41.735  54.787 -57.171  1.00  0.00     0.169 HD
ENDROOT
BRANCH   2   5
HETATM    5  C   UNL     1     -42.862  56.195 -58.153  1.00  0.00     0.035 A 
HETATM    6  C   UNL     1     -42.430  57.489 -58.460  1.00  0.00     0.042 A 
HETATM    7  C   UNL     1     -42.818  58.125 -59.652  1.00  0.00    -0.021 A 
HETATM    8  C   UNL     1     -43.678  57.448 -60.525  1.00  0.00     0.012 A 
HETATM    9  C   UNL     1     -44.127  56.163 -60.222  1.00  0.00     0.003 A 
HETATM   10  C   UNL     1     -43.713  55.537 -59.047  1.00  0.00     0.029 A 
BRANCH   7  11
HETATM   11  C   UNL     1     -42.295  59.446 -59.974  1.00  0.00     0.010 A 
HETATM   12  C   UNL     1     -42.046  60.060 -61.226  1.00  0.00     0.152 A 
HETATM   13  N   UNL     1     -41.572  61.304 -61.111  1.00  0.00    -0.187 NA
HETATM   14  N   UNL     1     -41.502  61.490 -59.785  1.00  0.00    -0.289 N 
HETATM   15  H   UNL     1     -41.157  62.380 -59.443  1.00  0.00     0.188 HD
HETATM   16  C   UNL     1     -41.923  60.412 -59.061  1.00  0.00     0.123 A 
ENDBRANCH   7  11
ENDBRANCH   2   5
BRANCH   1  17
HETATM   17  C   UNL     1     -42.126  54.918 -54.646  1.00  0.00     0.032 A 
HETATM   18  C   UNL     1     -42.548  54.829 -53.315  1.00  0.00     0.017 A 
HETATM   19  C   UNL     1     -41.845  54.030 -52.407  1.00  0.00     0.009 A 
HETATM   20  C   UNL     1     -40.701  53.324 -52.807  1.00  0.00    -0.049 A 
HETATM   21  C   UNL     1     -40.255  53.454 -54.128  1.00  0.00     0.009 A 
HETATM   22  C   UNL     1     -40.961  54.243 -55.038  1.00  0.00     0.017 A 
BRANCH  20  23
HETATM   23  C   UNL     1     -39.975  52.420 -51.842  1.00  0.00     0.112 C 
BRANCH  23  24
HETATM   24  S   UNL     1     -39.544  50.802 -52.561  1.00  0.00    -0.169 SA
HETATM   25  C   UNL     1     -39.535  49.792 -51.058  1.00  0.00     0.090 C 
ENDBRANCH  23  24
ENDBRANCH  20  23
ENDBRANCH   1  17
TORSDOF 5
ENDMDL
MODEL 7
REMARK VINA RESULT:      -6.9     15.415     18.438
REMARK  5 active torsions:
REMARK  status: ('A' for Active; 'I' for Inactive)
REMARK    1  A    between atoms: S_2  and  C_3 
REMARK    2  A    between atoms: C_3  and  C_4 
REMARK    3  A    between atoms: C_7  and  C_8 
REMARK       I    between atoms: C_8  and  N_9 
REMARK    4  A    between atoms: N_9  and  C_10 
REMARK    5  A    between atoms: C_12  and  C_13 
ROOT
HETATM    1  C   UNL     1     -37.368  41.062 -59.063  1.00  0.00     0.256 C 
HETATM    2  N   UNL     1     -37.677  39.731 -59.288  1.00  0.00    -0.323 N 
HETATM    3  O   UNL     1     -37.310  41.942 -59.915  1.00  0.00    -0.267 OA
HETATM    4  H   UNL     1     -37.723  39.116 -58.489  1.00  0.00     0.169 HD
ENDROOT
BRANCH   2   5
HETATM    5  C   UNL     1     -37.855  39.096 -60.538  1.00  0.00     0.035 A 
HETATM    6  C   UNL     1     -39.097  38.691 -61.038  1.00  0.00     0.042 A 
HETATM    7  C   UNL     1     -39.219  38.126 -62.320  1.00  0.00    -0.021 A 
HETATM    8  C   UNL     1     -38.062  37.946 -63.087  1.00  0.00     0.012 A 
HETATM    9  C   UNL     1     -36.816  38.332 -62.593  1.00  0.00     0.003 A 
HETATM   10  C   UNL     1     -36.716  38.913 -61.328  1.00  0.00     0.029 A 
BRANCH   7  11
HETATM   11  C   UNL     1     -40.536  37.779 -62.837  1.00  0.00     0.010 A 
HETATM   12  C   UNL     1     -40.910  36.964 -63.935  1.00  0.00     0.152 A 
HETATM   13  N   UNL     1     -42.235  36.873 -64.087  1.00  0.00    -0.187 NA
HETATM   14  N   UNL     1     -42.716  37.638 -63.097  1.00  0.00    -0.289 N 
HETATM   15  H   UNL     1     -43.722  37.732 -63.009  1.00  0.00     0.188 HD
HETATM   16  C   UNL     1     -41.744  38.201 -62.321  1.00  0.00     0.123 A 
ENDBRANCH   7  11
ENDBRANCH   2   5
BRANCH   1  17
HETATM   17  C   UNL     1     -37.036  41.433 -57.651  1.00  0.00     0.032 A 
HETATM   18  C   UNL     1     -37.892  41.201 -56.568  1.00  0.00     0.017 A 
HETATM   19  C   UNL     1     -37.477  41.507 -55.267  1.00  0.00     0.009 A 
HETATM   20  C   UNL     1     -36.212  42.064 -55.028  1.00  0.00    -0.049 A 
HETATM   21  C   UNL     1     -35.378  42.339 -56.120  1.00  0.00     0.009 A 
HETATM   22  C   UNL     1     -35.787  42.026 -57.418  1.00  0.00     0.017 A 
BRANCH  20  23
HETATM   23  C   UNL     1     -35.743  42.342 -53.622  1.00  0.00     0.112 C 
BRANCH  23  24
HETATM   24  S   UNL     1     -34.894  40.923 -52.856  1.00  0.00    -0.169 SA
HETATM   25  C   UNL     1     -34.371  41.685 -51.299  1.00  0.00     0.090 C 
ENDBRANCH  23  24
ENDBRANCH  20  23
ENDBRANCH   1  17
TORSDOF 5
ENDMDL
MODEL 8
REMARK VINA RESULT:      -6.9      4.026      9.298
REMARK  5 active torsions:
REMARK  status: ('A' for Active; 'I' for Inactive)
REMARK    1  A    between atoms: S_2  and  C_3 
REMARK    2  A    between atoms: C_3  and  C_4 
REMARK    3  A    between atoms: C_7  and  C_8 
REMARK       I    between atoms: C_8  and  N_9 
REMARK    4  A    between atoms: N_9  and  C_10 
REMARK    5  A    between atoms: C_12  and  C_13 
ROOT
HETATM    1  C   UNL     1     -42.625  55.267 -55.106  1.00  0.00     0.256 C 
HETATM    2  N   UNL     1     -42.224  55.513 -56.408  1.00  0.00    -0.323 N 
HETATM    3  O   UNL     1     -43.595  55.765 -54.544  1.00  0.00    -0.267 OA
HETATM    4  H   UNL     1     -41.423  55.009 -56.758  1.00  0.00     0.169 HD
ENDROOT
BRANCH   2   5
HETATM    5  C   UNL     1     -42.761  56.470 -57.300  1.00  0.00     0.035 A 
HETATM    6  C   UNL     1     -43.735  56.181 -58.261  1.00  0.00     0.042 A 
HETATM    7  C   UNL     1     -44.281  57.190 -59.074  1.00  0.00    -0.021 A 
HETATM    8  C   UNL     1     -43.810  58.500 -58.925  1.00  0.00     0.012 A 
HETATM    9  C   UNL     1     -42.828  58.797 -57.980  1.00  0.00     0.003 A 
HETATM   10  C   UNL     1     -42.314  57.788 -57.166  1.00  0.00     0.029 A 
BRANCH   7  11
HETATM   11  C   UNL     1     -45.343  56.867 -60.017  1.00  0.00     0.010 A 
HETATM   12  C   UNL     1     -45.563  55.705 -60.797  1.00  0.00     0.152 A 
HETATM   13  N   UNL     1     -46.671  55.779 -61.541  1.00  0.00    -0.187 NA
HETATM   14  N   UNL     1     -47.160  56.993 -61.253  1.00  0.00    -0.289 N 
HETATM   15  H   UNL     1     -48.015  57.288 -61.711  1.00  0.00     0.188 HD
HETATM   16  C   UNL     1     -46.406  57.684 -60.347  1.00  0.00     0.123 A 
ENDBRANCH   7  11
ENDBRANCH   2   5
BRANCH   1  17
HETATM   17  C   UNL     1     -41.758  54.339 -54.312  1.00  0.00     0.032 A 
HETATM   18  C   UNL     1     -40.754  53.546 -54.877  1.00  0.00     0.017 A 
HETATM   19  C   UNL     1     -39.934  52.762 -54.058  1.00  0.00     0.009 A 
HETATM   20  C   UNL     1     -40.115  52.744 -52.667  1.00  0.00    -0.049 A 
HETATM   21  C   UNL     1     -41.152  53.502 -52.111  1.00  0.00     0.009 A 
HETATM   22  C   UNL     1     -41.965  54.292 -52.926  1.00  0.00     0.017 A 
BRANCH  20  23
HETATM   23  C   UNL     1     -39.196  51.942 -51.779  1.00  0.00     0.112 C 
BRANCH  23  24
HETATM   24  S   UNL     1     -39.908  50.344 -51.268  1.00  0.00    -0.169 SA
HETATM   25  C   UNL     1     -39.601  49.379 -52.769  1.00  0.00     0.090 C 
ENDBRANCH  23  24
ENDBRANCH  20  23
ENDBRANCH   1  17
TORSDOF 5
ENDMDL
MODEL 9
REMARK VINA RESULT:      -6.7      2.670      3.864
REMARK  5 active torsions:
REMARK  status: ('A' for Active; 'I' for Inactive)
REMARK    1  A    between atoms: S_2  and  C_3 
REMARK    2  A    between atoms: C_3  and  C_4 
REMARK    3  A    between atoms: C_7  and  C_8 
REMARK       I    between atoms: C_8  and  N_9 
REMARK    4  A    between atoms: N_9  and  C_10 
REMARK    5  A    between atoms: C_12  and  C_13 
ROOT
HETATM    1  C   UNL     1     -42.476  56.453 -54.445  1.00  0.00     0.256 C 
HETATM    2  N   UNL     1     -41.271  56.136 -53.842  1.00  0.00    -0.323 N 
HETATM    3  O   UNL     1     -43.553  55.905 -54.235  1.00  0.00    -0.267 OA
HETATM    4  H   UNL     1     -40.463  56.691 -54.083  1.00  0.00     0.169 HD
ENDROOT
BRANCH   2   5
HETATM    5  C   UNL     1     -41.010  55.050 -52.976  1.00  0.00     0.035 A 
HETATM    6  C   UNL     1     -40.697  53.759 -53.414  1.00  0.00     0.042 A 
HETATM    7  C   UNL     1     -40.379  52.736 -52.505  1.00  0.00    -0.021 A 
HETATM    8  C   UNL     1     -40.408  53.022 -51.134  1.00  0.00     0.012 A 
HETATM    9  C   UNL     1     -40.734  54.302 -50.685  1.00  0.00     0.003 A 
HETATM   10  C   UNL     1     -41.024  55.312 -51.602  1.00  0.00     0.029 A 
BRANCH   7  11
HETATM   11  C   UNL     1     -39.990  51.421 -52.997  1.00  0.00     0.010 A 
HETATM   12  C   UNL     1     -39.630  50.243 -52.297  1.00  0.00     0.152 A 
HETATM   13  N   UNL     1     -39.348  49.220 -53.110  1.00  0.00    -0.187 NA
HETATM   14  N   UNL     1     -39.512  49.740 -54.335  1.00  0.00    -0.289 N 
HETATM   15  H   UNL     1     -39.346  49.142 -55.136  1.00  0.00     0.188 HD
HETATM   16  C   UNL     1     -39.897  51.050 -54.324  1.00  0.00     0.123 A 
ENDBRANCH   7  11
ENDBRANCH   2   5
BRANCH   1  17
HETATM   17  C   UNL     1     -42.434  57.537 -55.476  1.00  0.00     0.032 A 
HETATM   18  C   UNL     1     -42.241  58.889 -55.170  1.00  0.00     0.017 A 
HETATM   19  C   UNL     1     -42.136  59.834 -56.197  1.00  0.00     0.009 A 
HETATM   20  C   UNL     1     -42.239  59.449 -57.542  1.00  0.00    -0.049 A 
HETATM   21  C   UNL     1     -42.480  58.102 -57.841  1.00  0.00     0.009 A 
HETATM   22  C   UNL     1     -42.576  57.157 -56.819  1.00  0.00     0.017 A 
BRANCH  20  23
HETATM   23  C   UNL     1     -42.070  60.458 -58.649  1.00  0.00     0.112 C 
BRANCH  23  24
HETATM   24  S   UNL     1     -40.907  61.796 -58.229  1.00  0.00    -0.169 SA
HETATM   25  C   UNL     1     -42.056  63.195 -58.175  1.00  0.00     0.090 C 
ENDBRANCH  23  24
ENDBRANCH  20  23
ENDBRANCH   1  17
TORSDOF 5
ENDMDL
MODEL 10
REMARK VINA RESULT:      -6.6      2.384      3.660
REMARK  5 active torsions:
REMARK  status: ('A' for Active; 'I' for Inactive)
REMARK    1  A    between atoms: S_2  and  C_3 
REMARK    2  A    between atoms: C_3  and  C_4 
REMARK    3  A    between atoms: C_7  and  C_8 
REMARK       I    between atoms: C_8  and  N_9 
REMARK    4  A    between atoms: N_9  and  C_10 
REMARK    5  A    between atoms: C_12  and  C_13 
ROOT
HETATM    1  C   UNL     1     -42.783  56.181 -57.034  1.00  0.00     0.256 C 
HETATM    2  N   UNL     1     -42.456  56.608 -55.758  1.00  0.00    -0.323 N 
HETATM    3  O   UNL     1     -43.234  55.080 -57.332  1.00  0.00    -0.267 OA
HETATM    4  H   UNL     1     -42.125  57.554 -55.648  1.00  0.00     0.169 HD
ENDROOT
BRANCH   2   5
HETATM    5  C   UNL     1     -42.448  55.834 -54.575  1.00  0.00     0.035 A 
HETATM    6  C   UNL     1     -41.619  54.724 -54.374  1.00  0.00     0.042 A 
HETATM    7  C   UNL     1     -41.606  54.035 -53.149  1.00  0.00    -0.021 A 
HETATM    8  C   UNL     1     -42.466  54.462 -52.129  1.00  0.00     0.012 A 
HETATM    9  C   UNL     1     -43.308  55.558 -52.324  1.00  0.00     0.003 A 
HETATM   10  C   UNL     1     -43.291  56.245 -53.538  1.00  0.00     0.029 A 
BRANCH   7  11
HETATM   11  C   UNL     1     -40.682  52.928 -52.948  1.00  0.00     0.010 A 
HETATM   12  C   UNL     1     -40.245  51.917 -53.841  1.00  0.00     0.152 A 
HETATM   13  N   UNL     1     -39.370  51.075 -53.285  1.00  0.00    -0.187 NA
HETATM   14  N   UNL     1     -39.250  51.532 -52.030  1.00  0.00    -0.289 N 
HETATM   15  H   UNL     1     -38.629  51.040 -51.397  1.00  0.00     0.188 HD
HETATM   16  C   UNL     1     -40.011  52.637 -51.778  1.00  0.00     0.123 A 
ENDBRANCH   7  11
ENDBRANCH   2   5
BRANCH   1  17
HETATM   17  C   UNL     1     -42.516  57.150 -58.143  1.00  0.00     0.032 A 
HETATM   18  C   UNL     1     -42.565  56.807 -59.499  1.00  0.00     0.017 A 
HETATM   19  C   UNL     1     -42.379  57.789 -60.479  1.00  0.00     0.009 A 
HETATM   20  C   UNL     1     -42.126  59.121 -60.123  1.00  0.00    -0.049 A 
HETATM   21  C   UNL     1     -42.031  59.450 -58.765  1.00  0.00     0.009 A 
HETATM   22  C   UNL     1     -42.225  58.474 -57.786  1.00  0.00     0.017 A 
BRANCH  20  23
HETATM   23  C   UNL     1     -41.981  60.189 -61.178  1.00  0.00     0.112 C 
BRANCH  23  24
HETATM   24  S   UNL     1     -41.933  61.875 -60.490  1.00  0.00    -0.169 SA
HETATM   25  C   UNL     1     -40.540  62.549 -61.431  1.00  0.00     0.090 C 
ENDBRANCH  23  24
ENDBRANCH  20  23
ENDBRANCH   1  17
TORSDOF 5
ENDMDL
