MODEL 1
REMARK VINA RESULT:      -8.0      0.000      0.000
REMARK  5 active torsions:
REMARK  status: ('A' for Active; 'I' for Inactive)
REMARK    1  A    between atoms: C_5  and  C_6 
REMARK       I    between atoms: C_6  and  N_7 
REMARK    2  A    between atoms: N_7  and  C_8 
REMARK    3  A    between atoms: C_13  and  O_14 
REMARK    4  A    between atoms: O_14  and  C_15 
REMARK    5  A    between atoms: C_15  and  C_16 
ROOT
HETATM    1  C   UNL     1     -43.245  56.013 -55.267  1.00  0.00     0.163 A 
HETATM    2  N   UNL     1     -42.928  56.202 -56.571  1.00  0.00    -0.241 NA
HETATM    3  C   UNL     1     -43.626  57.141 -57.242  1.00  0.00     0.119 A 
HETATM    4  C   UNL     1     -44.606  57.928 -56.665  1.00  0.00     0.022 A 
HETATM    5  C   UNL     1     -44.863  57.775 -55.304  1.00  0.00     0.042 A 
HETATM    6  C   UNL     1     -44.158  56.821 -54.569  1.00  0.00     0.115 A 
ENDROOT
BRANCH   1   7
HETATM    7  N   UNL     1     -42.539  54.956 -54.680  1.00  0.00    -0.305 N 
HETATM    8  C   UNL     1     -41.285  55.059 -54.119  1.00  0.00     0.258 C 
HETATM    9  O   UNL     1     -40.609  56.080 -54.037  1.00  0.00    -0.267 OA
HETATM   10  H   UNL     1     -43.133  54.188 -54.414  1.00  0.00     0.170 HD
BRANCH   8  11
HETATM   11  C   UNL     1     -40.725  53.808 -53.552  1.00  0.00     0.044 A 
HETATM   12  C   UNL     1     -40.636  53.550 -52.162  1.00  0.00     0.008 A 
HETATM   13  C   UNL     1     -40.124  52.310 -51.757  1.00  0.00     0.043 A 
HETATM   14  C   UNL     1     -40.912  54.275 -50.960  1.00  0.00     0.032 A 
HETATM   15  C   UNL     1     -39.672  51.338 -52.659  1.00  0.00     0.030 A 
HETATM   16  N   UNL     1     -40.161  52.274 -50.380  1.00  0.00    -0.365 N 
HETATM   17  C   UNL     1     -39.729  51.634 -54.021  1.00  0.00     0.003 A 
HETATM   18  C   UNL     1     -40.248  52.847 -54.465  1.00  0.00     0.018 A 
HETATM   19  H   UNL     1     -39.858  51.489 -49.820  1.00  0.00     0.165 HD
HETATM   20  C   UNL     1     -40.633  53.459 -49.888  1.00  0.00     0.089 A 
ENDBRANCH   8  11
ENDBRANCH   1   7
BRANCH   6  21
HETATM   21  O   UNL     1     -44.191  56.720 -53.206  1.00  0.00    -0.343 OA
BRANCH  21  22
HETATM   22  C   UNL     1     -44.154  57.914 -52.434  1.00  0.00     0.216 C 
BRANCH  22  23
HETATM   23  C   UNL     1     -42.717  58.259 -52.159  1.00  0.00    -0.017 A 
HETATM   24  C   UNL     1     -42.032  59.164 -52.966  1.00  0.00     0.125 A 
HETATM   25  N   UNL     1     -40.737  59.518 -52.784  1.00  0.00    -0.272 NA
HETATM   26  C   UNL     1     -40.093  58.947 -51.745  1.00  0.00     0.116 A 
HETATM   27  C   UNL     1     -40.680  58.035 -50.883  1.00  0.00     0.020 A 
HETATM   28  C   UNL     1     -42.011  57.687 -51.097  1.00  0.00     0.012 A 
ENDBRANCH  22  23
ENDBRANCH  21  22
ENDBRANCH   6  21
TORSDOF 5
ENDMDL
MODEL 2
REMARK VINA RESULT:      -7.9      0.838      1.893
REMARK  5 active torsions:
REMARK  status: ('A' for Active; 'I' for Inactive)
REMARK    1  A    between atoms: C_5  and  C_6 
REMARK       I    between atoms: C_6  and  N_7 
REMARK    2  A    between atoms: N_7  and  C_8 
REMARK    3  A    between atoms: C_13  and  O_14 
REMARK    4  A    between atoms: O_14  and  C_15 
REMARK    5  A    between atoms: C_15  and  C_16 
ROOT
HETATM    1  C   UNL     1     -43.099  55.976 -55.285  1.00  0.00     0.163 A 
HETATM    2  N   UNL     1     -42.595  55.717 -56.516  1.00  0.00    -0.241 NA
HETATM    3  C   UNL     1     -43.118  56.404 -57.551  1.00  0.00     0.119 A 
HETATM    4  C   UNL     1     -44.102  57.367 -57.414  1.00  0.00     0.022 A 
HETATM    5  C   UNL     1     -44.553  57.677 -56.133  1.00  0.00     0.042 A 
HETATM    6  C   UNL     1     -44.031  56.996 -55.032  1.00  0.00     0.115 A 
ENDROOT
BRANCH   1   7
HETATM    7  N   UNL     1     -42.565  55.149 -54.289  1.00  0.00    -0.305 N 
HETATM    8  C   UNL     1     -41.289  55.251 -53.779  1.00  0.00     0.258 C 
HETATM    9  O   UNL     1     -40.442  56.077 -54.103  1.00  0.00    -0.267 OA
HETATM   10  H   UNL     1     -43.273  54.678 -53.750  1.00  0.00     0.170 HD
BRANCH   8  11
HETATM   11  C   UNL     1     -40.935  54.268 -52.726  1.00  0.00     0.044 A 
HETATM   12  C   UNL     1     -40.405  52.983 -53.000  1.00  0.00     0.008 A 
HETATM   13  C   UNL     1     -40.073  52.164 -51.913  1.00  0.00     0.043 A 
HETATM   14  C   UNL     1     -40.126  52.214 -54.174  1.00  0.00     0.032 A 
HETATM   15  C   UNL     1     -40.271  52.547 -50.580  1.00  0.00     0.030 A 
HETATM   16  N   UNL     1     -39.556  50.992 -52.417  1.00  0.00    -0.365 N 
HETATM   17  C   UNL     1     -40.835  53.800 -50.336  1.00  0.00     0.003 A 
HETATM   18  C   UNL     1     -41.161  54.650 -51.389  1.00  0.00     0.018 A 
HETATM   19  H   UNL     1     -39.224  50.222 -51.851  1.00  0.00     0.165 HD
HETATM   20  C   UNL     1     -39.586  51.010 -53.784  1.00  0.00     0.089 A 
ENDBRANCH   8  11
ENDBRANCH   1   7
BRANCH   6  21
HETATM   21  O   UNL     1     -44.257  57.349 -53.730  1.00  0.00    -0.343 OA
BRANCH  21  22
HETATM   22  C   UNL     1     -43.973  58.683 -53.328  1.00  0.00     0.216 C 
BRANCH  22  23
HETATM   23  C   UNL     1     -42.565  58.734 -52.804  1.00  0.00    -0.017 A 
HETATM   24  C   UNL     1     -41.543  59.311 -53.553  1.00  0.00     0.125 A 
HETATM   25  N   UNL     1     -40.252  59.387 -53.149  1.00  0.00    -0.272 NA
HETATM   26  C   UNL     1     -39.964  58.865 -51.938  1.00  0.00     0.116 A 
HETATM   27  C   UNL     1     -40.904  58.268 -51.114  1.00  0.00     0.020 A 
HETATM   28  C   UNL     1     -42.222  58.201 -51.557  1.00  0.00     0.012 A 
ENDBRANCH  22  23
ENDBRANCH  21  22
ENDBRANCH   6  21
TORSDOF 5
ENDMDL
MODEL 3
REMARK VINA RESULT:      -7.7      2.377      6.982
REMARK  5 active torsions:
REMARK  status: ('A' for Active; 'I' for Inactive)
REMARK    1  A    between atoms: C_5  and  C_6 
REMARK       I    between atoms: C_6  and  N_7 
REMARK    2  A    between atoms: N_7  and  C_8 
REMARK    3  A    between atoms: C_13  and  O_14 
REMARK    4  A    between atoms: O_14  and  C_15 
REMARK    5  A    between atoms: C_15  and  C_16 
ROOT
HETATM    1  C   UNL     1     -43.287  55.556 -53.382  1.00  0.00     0.163 A 
HETATM    2  N   UNL     1     -43.769  56.546 -52.591  1.00  0.00    -0.241 NA
HETATM    3  C   UNL     1     -43.852  56.291 -51.270  1.00  0.00     0.119 A 
HETATM    4  C   UNL     1     -43.443  55.103 -50.690  1.00  0.00     0.022 A 
HETATM    5  C   UNL     1     -42.876  54.127 -51.507  1.00  0.00     0.042 A 
HETATM    6  C   UNL     1     -42.763  54.353 -52.879  1.00  0.00     0.115 A 
ENDROOT
BRANCH   1   7
HETATM    7  N   UNL     1     -43.330  55.874 -54.745  1.00  0.00    -0.305 N 
HETATM    8  C   UNL     1     -42.305  56.469 -55.449  1.00  0.00     0.258 C 
HETATM    9  O   UNL     1     -41.210  56.793 -55.000  1.00  0.00    -0.267 OA
HETATM   10  H   UNL     1     -44.034  55.359 -55.246  1.00  0.00     0.170 HD
BRANCH   8  11
HETATM   11  C   UNL     1     -42.567  56.714 -56.888  1.00  0.00     0.044 A 
HETATM   12  C   UNL     1     -42.395  57.974 -57.512  1.00  0.00     0.008 A 
HETATM   13  C   UNL     1     -42.638  58.063 -58.889  1.00  0.00     0.043 A 
HETATM   14  C   UNL     1     -42.048  59.295 -57.085  1.00  0.00     0.032 A 
HETATM   15  C   UNL     1     -43.072  56.977 -59.660  1.00  0.00     0.030 A 
HETATM   16  N   UNL     1     -42.380  59.360 -59.274  1.00  0.00    -0.365 N 
HETATM   17  C   UNL     1     -43.276  55.757 -59.014  1.00  0.00     0.003 A 
HETATM   18  C   UNL     1     -43.028  55.623 -57.651  1.00  0.00     0.018 A 
HETATM   19  H   UNL     1     -42.466  59.703 -60.222  1.00  0.00     0.165 HD
HETATM   20  C   UNL     1     -42.025  60.114 -58.191  1.00  0.00     0.089 A 
ENDBRANCH   8  11
ENDBRANCH   1   7
BRANCH   6  21
HETATM   21  O   UNL     1     -42.057  53.556 -53.736  1.00  0.00    -0.343 OA
BRANCH  21  22
HETATM   22  C   UNL     1     -40.641  53.514 -53.615  1.00  0.00     0.216 C 
BRANCH  22  23
HETATM   23  C   UNL     1     -40.229  52.096 -53.329  1.00  0.00    -0.017 A 
HETATM   24  C   UNL     1     -39.875  51.700 -52.042  1.00  0.00     0.125 A 
HETATM   25  N   UNL     1     -39.489  50.444 -51.711  1.00  0.00    -0.272 NA
HETATM   26  C   UNL     1     -39.454  49.537 -52.710  1.00  0.00     0.116 A 
HETATM   27  C   UNL     1     -39.785  49.827 -54.023  1.00  0.00     0.020 A 
HETATM   28  C   UNL     1     -40.175  51.126 -54.335  1.00  0.00     0.012 A 
ENDBRANCH  22  23
ENDBRANCH  21  22
ENDBRANCH   6  21
TORSDOF 5
ENDMDL
MODEL 4
REMARK VINA RESULT:      -7.5      1.633      2.098
REMARK  5 active torsions:
REMARK  status: ('A' for Active; 'I' for Inactive)
REMARK    1  A    between atoms: C_5  and  C_6 
REMARK       I    between atoms: C_6  and  N_7 
REMARK    2  A    between atoms: N_7  and  C_8 
REMARK    3  A    between atoms: C_13  and  O_14 
REMARK    4  A    between atoms: O_14  and  C_15 
REMARK    5  A    between atoms: C_15  and  C_16 
ROOT
HETATM    1  C   UNL     1     -43.165  55.887 -55.044  1.00  0.00     0.163 A 
HETATM    2  N   UNL     1     -42.902  56.043 -56.364  1.00  0.00    -0.241 NA
HETATM    3  C   UNL     1     -43.591  56.999 -57.019  1.00  0.00     0.119 A 
HETATM    4  C   UNL     1     -44.511  57.834 -56.412  1.00  0.00     0.022 A 
HETATM    5  C   UNL     1     -44.711  57.713 -55.038  1.00  0.00     0.042 A 
HETATM    6  C   UNL     1     -44.011  56.743 -54.319  1.00  0.00     0.115 A 
ENDROOT
BRANCH   1   7
HETATM    7  N   UNL     1     -42.477  54.810 -54.472  1.00  0.00    -0.305 N 
HETATM    8  C   UNL     1     -41.126  54.793 -54.199  1.00  0.00     0.258 C 
HETATM    9  O   UNL     1     -40.333  55.708 -54.400  1.00  0.00    -0.267 OA
HETATM   10  H   UNL     1     -43.083  54.171 -53.985  1.00  0.00     0.170 HD
BRANCH   8  11
HETATM   11  C   UNL     1     -40.606  53.545 -53.588  1.00  0.00     0.044 A 
HETATM   12  C   UNL     1     -40.548  53.322 -52.190  1.00  0.00     0.008 A 
HETATM   13  C   UNL     1     -40.072  52.082 -51.743  1.00  0.00     0.043 A 
HETATM   14  C   UNL     1     -40.828  54.086 -51.014  1.00  0.00     0.032 A 
HETATM   15  C   UNL     1     -39.627  51.077 -52.611  1.00  0.00     0.030 A 
HETATM   16  N   UNL     1     -40.134  52.085 -50.367  1.00  0.00    -0.365 N 
HETATM   17  C   UNL     1     -39.654  51.337 -53.981  1.00  0.00     0.003 A 
HETATM   18  C   UNL     1     -40.136  52.549 -54.466  1.00  0.00     0.018 A 
HETATM   19  H   UNL     1     -39.859  51.308 -49.781  1.00  0.00     0.165 HD
HETATM   20  C   UNL     1     -40.586  53.293 -49.915  1.00  0.00     0.089 A 
ENDBRANCH   8  11
ENDBRANCH   1   7
BRANCH   6  21
HETATM   21  O   UNL     1     -43.986  56.664 -52.955  1.00  0.00    -0.343 OA
BRANCH  21  22
HETATM   22  C   UNL     1     -43.106  57.523 -52.240  1.00  0.00     0.216 C 
BRANCH  22  23
HETATM   23  C   UNL     1     -43.931  58.498 -51.447  1.00  0.00    -0.017 A 
HETATM   24  C   UNL     1     -45.220  58.171 -51.032  1.00  0.00     0.125 A 
HETATM   25  N   UNL     1     -46.023  58.999 -50.321  1.00  0.00    -0.272 NA
HETATM   26  C   UNL     1     -45.518  60.211 -50.006  1.00  0.00     0.116 A 
HETATM   27  C   UNL     1     -44.251  60.635 -50.371  1.00  0.00     0.020 A 
HETATM   28  C   UNL     1     -43.449  59.764 -51.104  1.00  0.00     0.012 A 
ENDBRANCH  22  23
ENDBRANCH  21  22
ENDBRANCH   6  21
TORSDOF 5
ENDMDL
MODEL 5
REMARK VINA RESULT:      -7.4      2.181      6.103
REMARK  5 active torsions:
REMARK  status: ('A' for Active; 'I' for Inactive)
REMARK    1  A    between atoms: C_5  and  C_6 
REMARK       I    between atoms: C_6  and  N_7 
REMARK    2  A    between atoms: N_7  and  C_8 
REMARK    3  A    between atoms: C_13  and  O_14 
REMARK    4  A    between atoms: O_14  and  C_15 
REMARK    5  A    between atoms: C_15  and  C_16 
ROOT
HETATM    1  C   UNL     1     -40.197  52.386 -53.574  1.00  0.00     0.163 A 
HETATM    2  N   UNL     1     -40.479  51.468 -54.530  1.00  0.00    -0.241 NA
HETATM    3  C   UNL     1     -40.159  50.186 -54.263  1.00  0.00     0.119 A 
HETATM    4  C   UNL     1     -39.598  49.766 -53.069  1.00  0.00     0.022 A 
HETATM    5  C   UNL     1     -39.388  50.712 -52.067  1.00  0.00     0.042 A 
HETATM    6  C   UNL     1     -39.715  52.049 -52.298  1.00  0.00     0.115 A 
ENDROOT
BRANCH   1   7
HETATM    7  N   UNL     1     -40.474  53.698 -53.976  1.00  0.00    -0.305 N 
HETATM    8  C   UNL     1     -41.734  54.201 -54.216  1.00  0.00     0.258 C 
HETATM    9  O   UNL     1     -42.792  53.591 -54.102  1.00  0.00    -0.267 OA
HETATM   10  H   UNL     1     -39.721  54.337 -53.777  1.00  0.00     0.170 HD
BRANCH   8  11
HETATM   11  C   UNL     1     -41.794  55.623 -54.633  1.00  0.00     0.044 A 
HETATM   12  C   UNL     1     -42.339  56.055 -55.868  1.00  0.00     0.008 A 
HETATM   13  C   UNL     1     -42.372  57.432 -56.124  1.00  0.00     0.043 A 
HETATM   14  C   UNL     1     -42.874  55.423 -57.034  1.00  0.00     0.032 A 
HETATM   15  C   UNL     1     -41.865  58.388 -55.234  1.00  0.00     0.030 A 
HETATM   16  N   UNL     1     -42.964  57.612 -57.354  1.00  0.00    -0.365 N 
HETATM   17  C   UNL     1     -41.294  57.935 -54.044  1.00  0.00     0.003 A 
HETATM   18  C   UNL     1     -41.259  56.576 -53.744  1.00  0.00     0.018 A 
HETATM   19  H   UNL     1     -43.125  58.513 -57.786  1.00  0.00     0.165 HD
HETATM   20  C   UNL     1     -43.268  56.403 -57.915  1.00  0.00     0.089 A 
ENDBRANCH   8  11
ENDBRANCH   1   7
BRANCH   6  21
HETATM   21  O   UNL     1     -39.731  53.016 -51.331  1.00  0.00    -0.343 OA
BRANCH  21  22
HETATM   22  C   UNL     1     -40.772  52.993 -50.364  1.00  0.00     0.216 C 
BRANCH  22  23
HETATM   23  C   UNL     1     -41.558  54.270 -50.478  1.00  0.00    -0.017 A 
HETATM   24  C   UNL     1     -40.952  55.504 -50.253  1.00  0.00     0.125 A 
HETATM   25  N   UNL     1     -41.596  56.693 -50.332  1.00  0.00    -0.272 NA
HETATM   26  C   UNL     1     -42.906  56.653 -50.653  1.00  0.00     0.116 A 
HETATM   27  C   UNL     1     -43.604  55.481 -50.894  1.00  0.00     0.020 A 
HETATM   28  C   UNL     1     -42.918  54.273 -50.803  1.00  0.00     0.012 A 
ENDBRANCH  22  23
ENDBRANCH  21  22
ENDBRANCH   6  21
TORSDOF 5
ENDMDL
MODEL 6
REMARK VINA RESULT:      -7.4      1.944      4.564
REMARK  5 active torsions:
REMARK  status: ('A' for Active; 'I' for Inactive)
REMARK    1  A    between atoms: C_5  and  C_6 
REMARK       I    between atoms: C_6  and  N_7 
REMARK    2  A    between atoms: N_7  and  C_8 
REMARK    3  A    between atoms: C_13  and  O_14 
REMARK    4  A    between atoms: O_14  and  C_15 
REMARK    5  A    between atoms: C_15  and  C_16 
ROOT
HETATM    1  C   UNL     1     -43.685  56.847 -53.452  1.00  0.00     0.163 A 
HETATM    2  N   UNL     1     -44.045  57.375 -52.257  1.00  0.00    -0.241 NA
HETATM    3  C   UNL     1     -44.713  58.547 -52.279  1.00  0.00     0.119 A 
HETATM    4  C   UNL     1     -45.070  59.204 -53.442  1.00  0.00     0.022 A 
HETATM    5  C   UNL     1     -44.762  58.608 -54.663  1.00  0.00     0.042 A 
HETATM    6  C   UNL     1     -44.080  57.390 -54.686  1.00  0.00     0.115 A 
ENDROOT
BRANCH   1   7
HETATM    7  N   UNL     1     -42.914  55.685 -53.327  1.00  0.00    -0.305 N 
HETATM    8  C   UNL     1     -41.544  55.628 -53.467  1.00  0.00     0.258 C 
HETATM    9  O   UNL     1     -40.799  56.573 -53.704  1.00  0.00    -0.267 OA
HETATM   10  H   UNL     1     -43.386  54.954 -52.822  1.00  0.00     0.170 HD
BRANCH   8  11
HETATM   11  C   UNL     1     -40.933  54.288 -53.292  1.00  0.00     0.044 A 
HETATM   12  C   UNL     1     -40.686  53.699 -52.027  1.00  0.00     0.008 A 
HETATM   13  C   UNL     1     -40.140  52.408 -51.999  1.00  0.00     0.043 A 
HETATM   14  C   UNL     1     -40.816  54.102 -50.660  1.00  0.00     0.032 A 
HETATM   15  C   UNL     1     -39.802  51.697 -53.158  1.00  0.00     0.030 A 
HETATM   16  N   UNL     1     -40.018  52.036 -50.679  1.00  0.00    -0.365 N 
HETATM   17  C   UNL     1     -40.015  52.316 -54.390  1.00  0.00     0.003 A 
HETATM   18  C   UNL     1     -40.572  53.589 -54.460  1.00  0.00     0.018 A 
HETATM   19  H   UNL     1     -39.658  51.144 -50.367  1.00  0.00     0.165 HD
HETATM   20  C   UNL     1     -40.420  53.055 -49.861  1.00  0.00     0.089 A 
ENDBRANCH   8  11
ENDBRANCH   1   7
BRANCH   6  21
HETATM   21  O   UNL     1     -43.898  56.629 -55.808  1.00  0.00    -0.343 OA
BRANCH  21  22
HETATM   22  C   UNL     1     -43.140  57.172 -56.881  1.00  0.00     0.216 C 
BRANCH  22  23
HETATM   23  C   UNL     1     -43.779  56.750 -58.176  1.00  0.00    -0.017 A 
HETATM   24  C   UNL     1     -44.767  57.529 -58.773  1.00  0.00     0.125 A 
HETATM   25  N   UNL     1     -45.389  57.211 -59.933  1.00  0.00    -0.272 NA
HETATM   26  C   UNL     1     -45.008  56.062 -60.530  1.00  0.00     0.116 A 
HETATM   27  C   UNL     1     -44.038  55.215 -60.021  1.00  0.00     0.020 A 
HETATM   28  C   UNL     1     -43.417  55.566 -58.826  1.00  0.00     0.012 A 
ENDBRANCH  22  23
ENDBRANCH  21  22
ENDBRANCH   6  21
TORSDOF 5
ENDMDL
MODEL 7
REMARK VINA RESULT:      -7.3      1.924      4.515
REMARK  5 active torsions:
REMARK  status: ('A' for Active; 'I' for Inactive)
REMARK    1  A    between atoms: C_5  and  C_6 
REMARK       I    between atoms: C_6  and  N_7 
REMARK    2  A    between atoms: N_7  and  C_8 
REMARK    3  A    between atoms: C_13  and  O_14 
REMARK    4  A    between atoms: O_14  and  C_15 
REMARK    5  A    between atoms: C_15  and  C_16 
ROOT
HETATM    1  C   UNL     1     -41.601  58.145 -53.383  1.00  0.00     0.163 A 
HETATM    2  N   UNL     1     -41.753  58.717 -52.163  1.00  0.00    -0.241 NA
HETATM    3  C   UNL     1     -42.120  60.014 -52.135  1.00  0.00     0.119 A 
HETATM    4  C   UNL     1     -42.376  60.765 -53.268  1.00  0.00     0.022 A 
HETATM    5  C   UNL     1     -42.292  60.140 -54.510  1.00  0.00     0.042 A 
HETATM    6  C   UNL     1     -41.924  58.795 -54.586  1.00  0.00     0.115 A 
ENDROOT
BRANCH   1   7
HETATM    7  N   UNL     1     -41.126  56.830 -53.315  1.00  0.00    -0.305 N 
HETATM    8  C   UNL     1     -41.921  55.704 -53.296  1.00  0.00     0.258 C 
HETATM    9  O   UNL     1     -43.146  55.680 -53.347  1.00  0.00    -0.267 OA
HETATM   10  H   UNL     1     -40.164  56.745 -53.597  1.00  0.00     0.170 HD
BRANCH   8  11
HETATM   11  C   UNL     1     -41.203  54.408 -53.223  1.00  0.00     0.044 A 
HETATM   12  C   UNL     1     -40.840  53.781 -52.005  1.00  0.00     0.008 A 
HETATM   13  C   UNL     1     -40.200  52.537 -52.074  1.00  0.00     0.043 A 
HETATM   14  C   UNL     1     -40.919  54.110 -50.615  1.00  0.00     0.032 A 
HETATM   15  C   UNL     1     -39.878  51.908 -53.284  1.00  0.00     0.030 A 
HETATM   16  N   UNL     1     -39.973  52.114 -50.783  1.00  0.00    -0.365 N 
HETATM   17  C   UNL     1     -40.207  52.565 -54.469  1.00  0.00     0.003 A 
HETATM   18  C   UNL     1     -40.860  53.795 -54.444  1.00  0.00     0.018 A 
HETATM   19  H   UNL     1     -39.531  51.238 -50.537  1.00  0.00     0.165 HD
HETATM   20  C   UNL     1     -40.401  53.059 -49.893  1.00  0.00     0.089 A 
ENDBRANCH   8  11
ENDBRANCH   1   7
BRANCH   6  21
HETATM   21  O   UNL     1     -41.996  58.039 -55.722  1.00  0.00    -0.343 OA
BRANCH  21  22
HETATM   22  C   UNL     1     -42.226  58.696 -56.962  1.00  0.00     0.216 C 
BRANCH  22  23
HETATM   23  C   UNL     1     -42.548  57.657 -58.000  1.00  0.00    -0.017 A 
HETATM   24  C   UNL     1     -42.171  57.833 -59.329  1.00  0.00     0.125 A 
HETATM   25  N   UNL     1     -42.432  56.945 -60.318  1.00  0.00    -0.272 NA
HETATM   26  C   UNL     1     -43.099  55.825 -59.967  1.00  0.00     0.116 A 
HETATM   27  C   UNL     1     -43.520  55.553 -58.676  1.00  0.00     0.020 A 
HETATM   28  C   UNL     1     -43.241  56.485 -57.681  1.00  0.00     0.012 A 
ENDBRANCH  22  23
ENDBRANCH  21  22
ENDBRANCH   6  21
TORSDOF 5
ENDMDL
MODEL 8
REMARK VINA RESULT:      -7.3      1.809      4.694
REMARK  5 active torsions:
REMARK  status: ('A' for Active; 'I' for Inactive)
REMARK    1  A    between atoms: C_5  and  C_6 
REMARK       I    between atoms: C_6  and  N_7 
REMARK    2  A    between atoms: N_7  and  C_8 
REMARK    3  A    between atoms: C_13  and  O_14 
REMARK    4  A    between atoms: O_14  and  C_15 
REMARK    5  A    between atoms: C_15  and  C_16 
ROOT
HETATM    1  C   UNL     1     -41.639  58.061 -52.942  1.00  0.00     0.163 A 
HETATM    2  N   UNL     1     -41.895  58.914 -51.921  1.00  0.00    -0.241 NA
HETATM    3  C   UNL     1     -42.248  60.174 -52.246  1.00  0.00     0.119 A 
HETATM    4  C   UNL     1     -42.392  60.619 -53.548  1.00  0.00     0.022 A 
HETATM    5  C   UNL     1     -42.203  59.707 -54.585  1.00  0.00     0.042 A 
HETATM    6  C   UNL     1     -41.846  58.390 -54.293  1.00  0.00     0.115 A 
ENDROOT
BRANCH   1   7
HETATM    7  N   UNL     1     -41.187  56.809 -52.510  1.00  0.00    -0.305 N 
HETATM    8  C   UNL     1     -41.993  55.714 -52.283  1.00  0.00     0.258 C 
HETATM    9  O   UNL     1     -43.209  55.665 -52.434  1.00  0.00    -0.267 OA
HETATM   10  H   UNL     1     -40.204  56.667 -52.677  1.00  0.00     0.170 HD
BRANCH   8  11
HETATM   11  C   UNL     1     -41.299  54.485 -51.828  1.00  0.00     0.044 A 
HETATM   12  C   UNL     1     -40.841  53.473 -52.708  1.00  0.00     0.008 A 
HETATM   13  C   UNL     1     -40.163  52.379 -52.154  1.00  0.00     0.043 A 
HETATM   14  C   UNL     1     -40.917  53.220 -54.114  1.00  0.00     0.032 A 
HETATM   15  C   UNL     1     -39.950  52.230 -50.778  1.00  0.00     0.030 A 
HETATM   16  N   UNL     1     -39.793  51.551 -53.190  1.00  0.00    -0.365 N 
HETATM   17  C   UNL     1     -40.448  53.218 -49.928  1.00  0.00     0.003 A 
HETATM   18  C   UNL     1     -41.111  54.329 -50.441  1.00  0.00     0.018 A 
HETATM   19  H   UNL     1     -39.279  50.687 -53.077  1.00  0.00     0.165 HD
HETATM   20  C   UNL     1     -40.246  52.048 -54.380  1.00  0.00     0.089 A 
ENDBRANCH   8  11
ENDBRANCH   1   7
BRANCH   6  21
HETATM   21  O   UNL     1     -41.823  57.376 -55.209  1.00  0.00    -0.343 OA
BRANCH  21  22
HETATM   22  C   UNL     1     -43.032  57.037 -55.878  1.00  0.00     0.216 C 
BRANCH  22  23
HETATM   23  C   UNL     1     -42.763  56.996 -57.357  1.00  0.00    -0.017 A 
HETATM   24  C   UNL     1     -42.169  58.076 -58.005  1.00  0.00     0.125 A 
HETATM   25  N   UNL     1     -41.903  58.113 -59.333  1.00  0.00    -0.272 NA
HETATM   26  C   UNL     1     -42.241  57.022 -60.051  1.00  0.00     0.116 A 
HETATM   27  C   UNL     1     -42.836  55.897 -59.505  1.00  0.00     0.020 A 
HETATM   28  C   UNL     1     -43.102  55.887 -58.138  1.00  0.00     0.012 A 
ENDBRANCH  22  23
ENDBRANCH  21  22
ENDBRANCH   6  21
TORSDOF 5
ENDMDL
MODEL 9
REMARK VINA RESULT:      -7.1      1.970      4.611
REMARK  5 active torsions:
REMARK  status: ('A' for Active; 'I' for Inactive)
REMARK    1  A    between atoms: C_5  and  C_6 
REMARK       I    between atoms: C_6  and  N_7 
REMARK    2  A    between atoms: N_7  and  C_8 
REMARK    3  A    between atoms: C_13  and  O_14 
REMARK    4  A    between atoms: O_14  and  C_15 
REMARK    5  A    between atoms: C_15  and  C_16 
ROOT
HETATM    1  C   UNL     1     -43.808  57.037 -53.302  1.00  0.00     0.163 A 
HETATM    2  N   UNL     1     -44.315  57.856 -52.348  1.00  0.00    -0.241 NA
HETATM    3  C   UNL     1     -44.969  58.957 -52.768  1.00  0.00     0.119 A 
HETATM    4  C   UNL     1     -45.173  59.268 -54.101  1.00  0.00     0.022 A 
HETATM    5  C   UNL     1     -44.715  58.375 -55.067  1.00  0.00     0.042 A 
HETATM    6  C   UNL     1     -44.041  57.217 -54.676  1.00  0.00     0.115 A 
ENDROOT
BRANCH   1   7
HETATM    7  N   UNL     1     -43.065  55.975 -52.774  1.00  0.00    -0.305 N 
HETATM    8  C   UNL     1     -41.693  55.962 -52.638  1.00  0.00     0.258 C 
HETATM    9  O   UNL     1     -40.926  56.870 -52.942  1.00  0.00    -0.267 OA
HETATM   10  H   UNL     1     -43.618  55.349 -52.213  1.00  0.00     0.170 HD
BRANCH   8  11
HETATM   11  C   UNL     1     -41.114  54.729 -52.051  1.00  0.00     0.044 A 
HETATM   12  C   UNL     1     -40.720  53.606 -52.820  1.00  0.00     0.008 A 
HETATM   13  C   UNL     1     -40.148  52.518 -52.147  1.00  0.00     0.043 A 
HETATM   14  C   UNL     1     -40.783  53.229 -54.199  1.00  0.00     0.032 A 
HETATM   15  C   UNL     1     -39.981  52.482 -50.757  1.00  0.00     0.030 A 
HETATM   16  N   UNL     1     -39.822  51.570 -53.091  1.00  0.00    -0.365 N 
HETATM   17  C   UNL     1     -40.416  53.582 -50.017  1.00  0.00     0.003 A 
HETATM   18  C   UNL     1     -40.973  54.690 -50.650  1.00  0.00     0.018 A 
HETATM   19  H   UNL     1     -39.384  50.682 -52.882  1.00  0.00     0.165 HD
HETATM   20  C   UNL     1     -40.204  51.988 -54.335  1.00  0.00     0.089 A 
ENDBRANCH   8  11
ENDBRANCH   1   7
BRANCH   6  21
HETATM   21  O   UNL     1     -43.722  56.189 -55.519  1.00  0.00    -0.343 OA
BRANCH  21  22
HETATM   22  C   UNL     1     -42.495  56.254 -56.237  1.00  0.00     0.216 C 
BRANCH  22  23
HETATM   23  C   UNL     1     -42.798  56.615 -57.665  1.00  0.00    -0.017 A 
HETATM   24  C   UNL     1     -43.368  55.685 -58.531  1.00  0.00     0.125 A 
HETATM   25  N   UNL     1     -43.662  55.936 -59.830  1.00  0.00    -0.272 NA
HETATM   26  C   UNL     1     -43.377  57.173 -60.288  1.00  0.00     0.116 A 
HETATM   27  C   UNL     1     -42.809  58.169 -59.512  1.00  0.00     0.020 A 
HETATM   28  C   UNL     1     -42.514  57.883 -58.182  1.00  0.00     0.012 A 
ENDBRANCH  22  23
ENDBRANCH  21  22
ENDBRANCH   6  21
TORSDOF 5
ENDMDL
MODEL 10
REMARK VINA RESULT:      -7.0      2.144      6.248
REMARK  5 active torsions:
REMARK  status: ('A' for Active; 'I' for Inactive)
REMARK    1  A    between atoms: C_5  and  C_6 
REMARK       I    between atoms: C_6  and  N_7 
REMARK    2  A    between atoms: N_7  and  C_8 
REMARK    3  A    between atoms: C_13  and  O_14 
REMARK    4  A    between atoms: O_14  and  C_15 
REMARK    5  A    between atoms: C_15  and  C_16 
ROOT
HETATM    1  C   UNL     1     -41.090  54.387 -54.709  1.00  0.00     0.163 A 
HETATM    2  N   UNL     1     -40.549  53.220 -55.134  1.00  0.00    -0.241 NA
HETATM    3  C   UNL     1     -40.059  52.390 -54.191  1.00  0.00     0.119 A 
HETATM    4  C   UNL     1     -40.112  52.653 -52.834  1.00  0.00     0.022 A 
HETATM    5  C   UNL     1     -40.743  53.821 -52.410  1.00  0.00     0.042 A 
HETATM    6  C   UNL     1     -41.273  54.704 -53.352  1.00  0.00     0.115 A 
ENDROOT
BRANCH   1   7
HETATM    7  N   UNL     1     -41.482  55.224 -55.760  1.00  0.00    -0.305 N 
HETATM    8  C   UNL     1     -42.668  55.116 -56.454  1.00  0.00     0.258 C 
HETATM    9  O   UNL     1     -43.554  54.291 -56.253  1.00  0.00    -0.267 OA
HETATM   10  H   UNL     1     -40.987  56.100 -55.770  1.00  0.00     0.170 HD
BRANCH   8  11
HETATM   11  C   UNL     1     -42.879  56.113 -57.532  1.00  0.00     0.044 A 
HETATM   12  C   UNL     1     -43.552  55.825 -58.745  1.00  0.00     0.008 A 
HETATM   13  C   UNL     1     -43.720  56.868 -59.666  1.00  0.00     0.043 A 
HETATM   14  C   UNL     1     -44.121  54.663 -59.355  1.00  0.00     0.032 A 
HETATM   15  C   UNL     1     -43.227  58.162 -59.453  1.00  0.00     0.030 A 
HETATM   16  N   UNL     1     -44.418  56.365 -60.741  1.00  0.00    -0.365 N 
HETATM   17  C   UNL     1     -42.530  58.409 -58.270  1.00  0.00     0.003 A 
HETATM   18  C   UNL     1     -42.358  57.405 -57.322  1.00  0.00     0.018 A 
HETATM   19  H   UNL     1     -44.688  56.906 -61.552  1.00  0.00     0.165 HD
HETATM   20  C   UNL     1     -44.664  55.032 -60.565  1.00  0.00     0.089 A 
ENDBRANCH   8  11
ENDBRANCH   1   7
BRANCH   6  21
HETATM   21  O   UNL     1     -42.072  55.770 -53.046  1.00  0.00    -0.343 OA
BRANCH  21  22
HETATM   22  C   UNL     1     -41.621  56.699 -52.068  1.00  0.00     0.216 C 
BRANCH  22  23
HETATM   23  C   UNL     1     -41.843  58.090 -52.594  1.00  0.00    -0.017 A 
HETATM   24  C   UNL     1     -42.305  59.104 -51.759  1.00  0.00     0.125 A 
HETATM   25  N   UNL     1     -42.533  60.377 -52.163  1.00  0.00    -0.272 NA
HETATM   26  C   UNL     1     -42.287  60.655 -53.460  1.00  0.00     0.116 A 
HETATM   27  C   UNL     1     -41.827  59.721 -54.373  1.00  0.00     0.020 A 
HETATM   28  C   UNL     1     -41.604  58.420 -53.931  1.00  0.00     0.012 A 
ENDBRANCH  22  23
ENDBRANCH  21  22
ENDBRANCH   6  21
TORSDOF 5
ENDMDL
