MODEL 1
REMARK VINA RESULT:      -8.3      0.000      0.000
REMARK  8 active torsions:
REMARK  status: ('A' for Active; 'I' for Inactive)
REMARK    1  A    between atoms: C_2  and  C_3 
REMARK    2  A    between atoms: C_3  and  C_4 
REMARK    3  A    between atoms: C_7  and  N_8 
REMARK       I    between atoms: N_8  and  C_9 
REMARK    4  A    between atoms: C_9  and  C_10 
REMARK    5  A    between atoms: C_13  and  N_14 
REMARK       I    between atoms: N_14  and  C_15 
REMARK    6  A    between atoms: C_15  and  C_16 
REMARK    7  A    between atoms: C_16  and  C_17 
REMARK    8  A    between atoms: C_19  and  N_20 
ROOT
HETATM    1  C   UNL     1     -42.448  59.393 -51.618  1.00  0.00     0.032 A 
HETATM    2  C   UNL     1     -43.718  59.623 -52.156  1.00  0.00     0.019 A 
HETATM    3  C   UNL     1     -44.488  60.710 -51.719  1.00  0.00     0.030 A 
HETATM    4  C   UNL     1     -44.000  61.596 -50.755  1.00  0.00     0.034 A 
HETATM    5  C   UNL     1     -42.717  61.383 -50.239  1.00  0.00     0.030 A 
HETATM    6  C   UNL     1     -41.949  60.291 -50.664  1.00  0.00     0.019 A 
ENDROOT
BRANCH   4   7
HETATM    7  N   UNL     1     -44.715  62.715 -50.274  1.00  0.00    -0.327 N 
HETATM    8  C   UNL     1     -45.950  62.710 -49.648  1.00  0.00     0.223 C 
HETATM    9  O   UNL     1     -46.629  61.718 -49.404  1.00  0.00    -0.273 OA
HETATM   10  H   UNL     1     -44.247  63.609 -50.364  1.00  0.00     0.169 HD
BRANCH   8  11
HETATM   11  C   UNL     1     -46.443  64.109 -49.318  1.00  0.00     0.128 C 
BRANCH  11  12
HETATM   12  C   UNL     1     -47.603  64.503 -50.224  1.00  0.00     0.158 C 
HETATM   13  S   UNL     1     -47.550  63.639 -51.825  1.00  0.00    -0.077 SA
HETATM   14  C   UNL     1     -49.299  63.470 -51.787  1.00  0.00     0.168 C 
HETATM   15  N   UNL     1     -49.861  63.740 -50.655  1.00  0.00    -0.189 NA
HETATM   16  C   UNL     1     -48.961  64.104 -49.677  1.00  0.00     0.260 C 
HETATM   17  O   UNL     1     -49.241  64.157 -48.486  1.00  0.00    -0.270 OA
BRANCH  14  18
HETATM   18  N   UNL     1     -49.965  63.134 -52.944  1.00  0.00    -0.360 N 
HETATM   19  C   UNL     1     -50.368  61.764 -53.275  1.00  0.00     0.125 C 
HETATM   20  C   UNL     1     -51.854  61.578 -52.959  1.00  0.00     0.020 C 
HETATM   21  C   UNL     1     -52.710  62.624 -53.673  1.00  0.00     0.003 C 
HETATM   22  C   UNL     1     -52.209  64.036 -53.372  1.00  0.00     0.020 C 
HETATM   23  C   UNL     1     -50.718  64.159 -53.674  1.00  0.00     0.125 C 
ENDBRANCH  14  18
ENDBRANCH  11  12
ENDBRANCH   8  11
ENDBRANCH   4   7
BRANCH   1  24
HETATM   24  C   UNL     1     -41.577  58.249 -52.038  1.00  0.00     0.256 C 
HETATM   25  N   UNL     1     -42.194  57.012 -52.101  1.00  0.00    -0.323 N 
HETATM   26  H   UNL     1     -43.155  56.953 -51.797  1.00  0.00     0.169 HD
HETATM   27  O   UNL     1     -40.396  58.484 -52.266  1.00  0.00    -0.267 OA
BRANCH  25  28
HETATM   28  C   UNL     1     -41.612  55.779 -52.473  1.00  0.00     0.035 A 
HETATM   29  C   UNL     1     -41.171  55.476 -53.759  1.00  0.00     0.030 A 
HETATM   30  C   UNL     1     -40.589  54.232 -54.042  1.00  0.00     0.010 A 
HETATM   31  C   UNL     1     -40.430  53.265 -53.041  1.00  0.00    -0.054 A 
HETATM   32  C   UNL     1     -40.898  53.565 -51.755  1.00  0.00     0.010 A 
HETATM   33  C   UNL     1     -41.478  54.808 -51.474  1.00  0.00     0.030 A 
BRANCH  31  34
HETATM   34  C   UNL     1     -39.801  51.906 -53.314  1.00  0.00     0.014 C 
HETATM   35  C   UNL     1     -40.611  51.081 -54.322  1.00  0.00     0.015 C 
BRANCH  34  36
HETATM   36  C   UNL     1     -39.571  51.157 -51.988  1.00  0.00     0.004 C 
HETATM   37  C   UNL     1     -39.597  49.642 -52.136  1.00  0.00     0.006 C 
ENDBRANCH  34  36
ENDBRANCH  31  34
ENDBRANCH  25  28
ENDBRANCH   1  24
TORSDOF 8
ENDMDL
MODEL 2
REMARK VINA RESULT:      -8.3      2.628      4.387
REMARK  8 active torsions:
REMARK  status: ('A' for Active; 'I' for Inactive)
REMARK    1  A    between atoms: C_2  and  C_3 
REMARK    2  A    between atoms: C_3  and  C_4 
REMARK    3  A    between atoms: C_7  and  N_8 
REMARK       I    between atoms: N_8  and  C_9 
REMARK    4  A    between atoms: C_9  and  C_10 
REMARK    5  A    between atoms: C_13  and  N_14 
REMARK       I    between atoms: N_14  and  C_15 
REMARK    6  A    between atoms: C_15  and  C_16 
REMARK    7  A    between atoms: C_16  and  C_17 
REMARK    8  A    between atoms: C_19  and  N_20 
ROOT
HETATM    1  C   UNL     1     -42.893  57.983 -53.047  1.00  0.00     0.032 A 
HETATM    2  C   UNL     1     -43.792  58.399 -54.034  1.00  0.00     0.019 A 
HETATM    3  C   UNL     1     -44.678  59.458 -53.788  1.00  0.00     0.030 A 
HETATM    4  C   UNL     1     -44.669  60.132 -52.563  1.00  0.00     0.034 A 
HETATM    5  C   UNL     1     -43.749  59.735 -51.587  1.00  0.00     0.030 A 
HETATM    6  C   UNL     1     -42.871  58.669 -51.825  1.00  0.00     0.019 A 
ENDROOT
BRANCH   4   7
HETATM    7  N   UNL     1     -45.525  61.211 -52.248  1.00  0.00    -0.327 N 
HETATM    8  C   UNL     1     -45.221  62.561 -52.302  1.00  0.00     0.223 C 
HETATM    9  O   UNL     1     -44.145  63.043 -52.640  1.00  0.00    -0.273 OA
HETATM   10  H   UNL     1     -46.473  60.961 -51.996  1.00  0.00     0.169 HD
BRANCH   8  11
HETATM   11  C   UNL     1     -46.370  63.438 -51.834  1.00  0.00     0.128 C 
BRANCH  11  12
HETATM   12  C   UNL     1     -47.084  62.807 -50.645  1.00  0.00     0.158 C 
HETATM   13  S   UNL     1     -45.962  62.521 -49.241  1.00  0.00    -0.077 SA
HETATM   14  C   UNL     1     -47.236  63.002 -48.129  1.00  0.00     0.168 C 
HETATM   15  N   UNL     1     -48.263  63.570 -48.671  1.00  0.00    -0.189 NA
HETATM   16  C   UNL     1     -48.152  63.698 -50.039  1.00  0.00     0.260 C 
HETATM   17  O   UNL     1     -48.881  64.417 -50.711  1.00  0.00    -0.270 OA
BRANCH  14  18
HETATM   18  N   UNL     1     -47.107  62.702 -46.792  1.00  0.00    -0.360 N 
HETATM   19  C   UNL     1     -46.653  61.400 -46.297  1.00  0.00     0.125 C 
HETATM   20  C   UNL     1     -45.176  61.489 -45.906  1.00  0.00     0.020 C 
HETATM   21  C   UNL     1     -44.934  62.611 -44.896  1.00  0.00     0.003 C 
HETATM   22  C   UNL     1     -45.495  63.936 -45.410  1.00  0.00     0.020 C 
HETATM   23  C   UNL     1     -46.959  63.786 -45.814  1.00  0.00     0.125 C 
ENDBRANCH  14  18
ENDBRANCH  11  12
ENDBRANCH   8  11
ENDBRANCH   4   7
BRANCH   1  24
HETATM   24  C   UNL     1     -41.925  56.857 -53.244  1.00  0.00     0.256 C 
HETATM   25  N   UNL     1     -42.420  55.587 -53.006  1.00  0.00    -0.323 N 
HETATM   26  H   UNL     1     -43.364  55.511 -52.654  1.00  0.00     0.169 HD
HETATM   27  O   UNL     1     -40.778  57.140 -53.571  1.00  0.00    -0.267 OA
BRANCH  25  28
HETATM   28  C   UNL     1     -41.730  54.359 -53.125  1.00  0.00     0.035 A 
HETATM   29  C   UNL     1     -41.718  53.574 -54.276  1.00  0.00     0.030 A 
HETATM   30  C   UNL     1     -40.994  52.374 -54.315  1.00  0.00     0.010 A 
HETATM   31  C   UNL     1     -40.259  51.937 -53.206  1.00  0.00    -0.054 A 
HETATM   32  C   UNL     1     -40.293  52.718 -52.044  1.00  0.00     0.010 A 
HETATM   33  C   UNL     1     -41.018  53.916 -52.005  1.00  0.00     0.030 A 
BRANCH  31  34
HETATM   34  C   UNL     1     -39.460  50.641 -53.217  1.00  0.00     0.014 C 
HETATM   35  C   UNL     1     -39.443  49.979 -54.601  1.00  0.00     0.015 C 
BRANCH  34  36
HETATM   36  C   UNL     1     -39.977  49.695 -52.117  1.00  0.00     0.004 C 
HETATM   37  C   UNL     1     -39.134  49.723 -50.849  1.00  0.00     0.006 C 
ENDBRANCH  34  36
ENDBRANCH  31  34
ENDBRANCH  25  28
ENDBRANCH   1  24
TORSDOF 8
ENDMDL
MODEL 3
REMARK VINA RESULT:      -8.1      4.437     12.049
REMARK  8 active torsions:
REMARK  status: ('A' for Active; 'I' for Inactive)
REMARK    1  A    between atoms: C_2  and  C_3 
REMARK    2  A    between atoms: C_3  and  C_4 
REMARK    3  A    between atoms: C_7  and  N_8 
REMARK       I    between atoms: N_8  and  C_9 
REMARK    4  A    between atoms: C_9  and  C_10 
REMARK    5  A    between atoms: C_13  and  N_14 
REMARK       I    between atoms: N_14  and  C_15 
REMARK    6  A    between atoms: C_15  and  C_16 
REMARK    7  A    between atoms: C_16  and  C_17 
REMARK    8  A    between atoms: C_19  and  N_20 
ROOT
HETATM    1  C   UNL     1     -44.899  59.862 -51.253  1.00  0.00     0.032 A 
HETATM    2  C   UNL     1     -44.262  60.360 -52.395  1.00  0.00     0.019 A 
HETATM    3  C   UNL     1     -43.835  59.490 -53.407  1.00  0.00     0.030 A 
HETATM    4  C   UNL     1     -44.051  58.113 -53.309  1.00  0.00     0.034 A 
HETATM    5  C   UNL     1     -44.715  57.618 -52.181  1.00  0.00     0.030 A 
HETATM    6  C   UNL     1     -45.133  58.483 -51.161  1.00  0.00     0.019 A 
ENDROOT
BRANCH   4   7
HETATM    7  N   UNL     1     -43.656  57.178 -54.292  1.00  0.00    -0.327 N 
HETATM    8  C   UNL     1     -42.364  56.797 -54.609  1.00  0.00     0.223 C 
HETATM    9  O   UNL     1     -41.340  57.214 -54.079  1.00  0.00    -0.273 OA
HETATM   10  H   UNL     1     -44.409  56.711 -54.783  1.00  0.00     0.169 HD
BRANCH   8  11
HETATM   11  C   UNL     1     -42.313  55.810 -55.764  1.00  0.00     0.128 C 
BRANCH  11  12
HETATM   12  C   UNL     1     -42.000  54.405 -55.263  1.00  0.00     0.158 C 
HETATM   13  S   UNL     1     -40.233  54.185 -54.886  1.00  0.00    -0.077 SA
HETATM   14  C   UNL     1     -40.658  53.220 -53.479  1.00  0.00     0.168 C 
HETATM   15  N   UNL     1     -41.903  53.258 -53.132  1.00  0.00    -0.189 NA
HETATM   16  C   UNL     1     -42.665  54.072 -53.941  1.00  0.00     0.260 C 
HETATM   17  O   UNL     1     -43.795  54.446 -53.651  1.00  0.00    -0.270 OA
BRANCH  14  18
HETATM   18  N   UNL     1     -39.690  52.447 -52.880  1.00  0.00    -0.360 N 
HETATM   19  C   UNL     1     -39.446  52.435 -51.435  1.00  0.00     0.125 C 
HETATM   20  C   UNL     1     -40.106  51.200 -50.816  1.00  0.00     0.020 C 
HETATM   21  C   UNL     1     -39.632  49.916 -51.496  1.00  0.00     0.003 C 
HETATM   22  C   UNL     1     -39.823  49.998 -53.010  1.00  0.00     0.020 C 
HETATM   23  C   UNL     1     -39.175  51.260 -53.571  1.00  0.00     0.125 C 
ENDBRANCH  14  18
ENDBRANCH  11  12
ENDBRANCH   8  11
ENDBRANCH   4   7
BRANCH   1  24
HETATM   24  C   UNL     1     -45.376  60.737 -50.135  1.00  0.00     0.256 C 
HETATM   25  N   UNL     1     -44.498  60.896 -49.076  1.00  0.00    -0.323 N 
HETATM   26  H   UNL     1     -43.639  60.365 -49.097  1.00  0.00     0.169 HD
HETATM   27  O   UNL     1     -46.499  61.220 -50.225  1.00  0.00    -0.267 OA
BRANCH  25  28
HETATM   28  C   UNL     1     -44.691  61.667 -47.908  1.00  0.00     0.035 A 
HETATM   29  C   UNL     1     -44.851  61.132 -46.632  1.00  0.00     0.030 A 
HETATM   30  C   UNL     1     -45.022  61.970 -45.521  1.00  0.00     0.010 A 
HETATM   31  C   UNL     1     -45.030  63.364 -45.661  1.00  0.00    -0.054 A 
HETATM   32  C   UNL     1     -44.893  63.897 -46.950  1.00  0.00     0.010 A 
HETATM   33  C   UNL     1     -44.722  63.059 -48.059  1.00  0.00     0.030 A 
BRANCH  31  34
HETATM   34  C   UNL     1     -45.211  64.302 -44.476  1.00  0.00     0.014 C 
HETATM   35  C   UNL     1     -44.476  63.806 -43.224  1.00  0.00     0.015 C 
BRANCH  34  36
HETATM   36  C   UNL     1     -46.711  64.545 -44.222  1.00  0.00     0.004 C 
HETATM   37  C   UNL     1     -47.082  64.548 -42.745  1.00  0.00     0.006 C 
ENDBRANCH  34  36
ENDBRANCH  31  34
ENDBRANCH  25  28
ENDBRANCH   1  24
TORSDOF 8
ENDMDL
MODEL 4
REMARK VINA RESULT:      -8.0     20.728     23.996
REMARK  8 active torsions:
REMARK  status: ('A' for Active; 'I' for Inactive)
REMARK    1  A    between atoms: C_2  and  C_3 
REMARK    2  A    between atoms: C_3  and  C_4 
REMARK    3  A    between atoms: C_7  and  N_8 
REMARK       I    between atoms: N_8  and  C_9 
REMARK    4  A    between atoms: C_9  and  C_10 
REMARK    5  A    between atoms: C_13  and  N_14 
REMARK       I    between atoms: N_14  and  C_15 
REMARK    6  A    between atoms: C_15  and  C_16 
REMARK    7  A    between atoms: C_16  and  C_17 
REMARK    8  A    between atoms: C_19  and  N_20 
ROOT
HETATM    1  C   UNL     1     -32.506  39.616 -49.886  1.00  0.00     0.032 A 
HETATM    2  C   UNL     1     -33.898  39.663 -50.013  1.00  0.00     0.019 A 
HETATM    3  C   UNL     1     -34.488  40.215 -51.159  1.00  0.00     0.030 A 
HETATM    4  C   UNL     1     -33.704  40.710 -52.204  1.00  0.00     0.034 A 
HETATM    5  C   UNL     1     -32.311  40.634 -52.089  1.00  0.00     0.030 A 
HETATM    6  C   UNL     1     -31.717  40.095 -50.941  1.00  0.00     0.019 A 
ENDROOT
BRANCH   4   7
HETATM    7  N   UNL     1     -34.228  41.271 -53.389  1.00  0.00    -0.327 N 
HETATM    8  C   UNL     1     -35.311  42.126 -53.499  1.00  0.00     0.223 C 
HETATM    9  O   UNL     1     -35.998  42.541 -52.572  1.00  0.00    -0.273 OA
HETATM   10  H   UNL     1     -33.725  41.051 -54.240  1.00  0.00     0.169 HD
BRANCH   8  11
HETATM   11  C   UNL     1     -35.629  42.483 -54.942  1.00  0.00     0.128 C 
BRANCH  11  12
HETATM   12  C   UNL     1     -36.039  41.246 -55.730  1.00  0.00     0.158 C 
HETATM   13  S   UNL     1     -37.525  41.534 -56.741  1.00  0.00    -0.077 SA
HETATM   14  C   UNL     1     -36.827  40.568 -58.034  1.00  0.00     0.168 C 
HETATM   15  N   UNL     1     -35.572  40.287 -57.905  1.00  0.00    -0.189 NA
HETATM   16  C   UNL     1     -35.014  40.818 -56.763  1.00  0.00     0.260 C 
HETATM   17  O   UNL     1     -33.806  40.888 -56.571  1.00  0.00    -0.270 OA
BRANCH  14  18
HETATM   18  N   UNL     1     -37.641  40.122 -59.051  1.00  0.00    -0.360 N 
HETATM   19  C   UNL     1     -37.369  40.367 -60.469  1.00  0.00     0.125 C 
HETATM   20  C   UNL     1     -36.746  39.116 -61.094  1.00  0.00     0.020 C 
HETATM   21  C   UNL     1     -37.627  37.886 -60.875  1.00  0.00     0.003 C 
HETATM   22  C   UNL     1     -37.960  37.710 -59.393  1.00  0.00     0.020 C 
HETATM   23  C   UNL     1     -38.548  38.993 -58.813  1.00  0.00     0.125 C 
ENDBRANCH  14  18
ENDBRANCH  11  12
ENDBRANCH   8  11
ENDBRANCH   4   7
BRANCH   1  24
HETATM   24  C   UNL     1     -31.813  39.044 -48.687  1.00  0.00     0.256 C 
HETATM   25  N   UNL     1     -31.067  39.937 -47.937  1.00  0.00    -0.323 N 
HETATM   26  H   UNL     1     -30.985  40.882 -48.282  1.00  0.00     0.169 HD
HETATM   27  O   UNL     1     -31.934  37.842 -48.476  1.00  0.00    -0.267 OA
BRANCH  25  28
HETATM   28  C   UNL     1     -30.328  39.667 -46.764  1.00  0.00     0.035 A 
HETATM   29  C   UNL     1     -30.896  39.459 -45.509  1.00  0.00     0.030 A 
HETATM   30  C   UNL     1     -30.090  39.180 -44.396  1.00  0.00     0.010 A 
HETATM   31  C   UNL     1     -28.697  39.096 -44.516  1.00  0.00    -0.054 A 
HETATM   32  C   UNL     1     -28.129  39.329 -45.775  1.00  0.00     0.010 A 
HETATM   33  C   UNL     1     -28.935  39.607 -46.886  1.00  0.00     0.030 A 
BRANCH  31  34
HETATM   34  C   UNL     1     -27.794  38.792 -43.329  1.00  0.00     0.014 C 
HETATM   35  C   UNL     1     -27.701  37.289 -43.037  1.00  0.00     0.015 C 
BRANCH  34  36
HETATM   36  C   UNL     1     -28.248  39.604 -42.101  1.00  0.00     0.004 C 
HETATM   37  C   UNL     1     -27.687  41.019 -42.070  1.00  0.00     0.006 C 
ENDBRANCH  34  36
ENDBRANCH  31  34
ENDBRANCH  25  28
ENDBRANCH   1  24
TORSDOF 8
ENDMDL
MODEL 5
REMARK VINA RESULT:      -8.0      7.169      8.729
REMARK  8 active torsions:
REMARK  status: ('A' for Active; 'I' for Inactive)
REMARK    1  A    between atoms: C_2  and  C_3 
REMARK    2  A    between atoms: C_3  and  C_4 
REMARK    3  A    between atoms: C_7  and  N_8 
REMARK       I    between atoms: N_8  and  C_9 
REMARK    4  A    between atoms: C_9  and  C_10 
REMARK    5  A    between atoms: C_13  and  N_14 
REMARK       I    between atoms: N_14  and  C_15 
REMARK    6  A    between atoms: C_15  and  C_16 
REMARK    7  A    between atoms: C_16  and  C_17 
REMARK    8  A    between atoms: C_19  and  N_20 
ROOT
HETATM    1  C   UNL     1     -43.786  57.019 -57.785  1.00  0.00     0.032 A 
HETATM    2  C   UNL     1     -43.502  56.720 -59.121  1.00  0.00     0.019 A 
HETATM    3  C   UNL     1     -44.377  57.121 -60.140  1.00  0.00     0.030 A 
HETATM    4  C   UNL     1     -45.539  57.841 -59.848  1.00  0.00     0.034 A 
HETATM    5  C   UNL     1     -45.806  58.166 -58.514  1.00  0.00     0.030 A 
HETATM    6  C   UNL     1     -44.941  57.758 -57.491  1.00  0.00     0.019 A 
ENDROOT
BRANCH   4   7
HETATM    7  N   UNL     1     -46.461  58.284 -60.822  1.00  0.00    -0.327 N 
HETATM    8  C   UNL     1     -46.522  59.538 -61.405  1.00  0.00     0.223 C 
HETATM    9  O   UNL     1     -45.772  60.479 -61.167  1.00  0.00    -0.273 OA
HETATM   10  H   UNL     1     -47.118  57.589 -61.154  1.00  0.00     0.169 HD
BRANCH   8  11
HETATM   11  C   UNL     1     -47.686  59.677 -62.372  1.00  0.00     0.128 C 
BRANCH  11  12
HETATM   12  C   UNL     1     -48.965  59.116 -61.766  1.00  0.00     0.158 C 
HETATM   13  S   UNL     1     -50.235  60.398 -61.528  1.00  0.00    -0.077 SA
HETATM   14  C   UNL     1     -51.476  59.256 -62.025  1.00  0.00     0.168 C 
HETATM   15  N   UNL     1     -51.043  58.164 -62.567  1.00  0.00    -0.189 NA
HETATM   16  C   UNL     1     -49.670  58.114 -62.660  1.00  0.00     0.260 C 
HETATM   17  O   UNL     1     -49.069  57.302 -63.353  1.00  0.00    -0.270 OA
BRANCH  14  18
HETATM   18  N   UNL     1     -52.796  59.544 -61.762  1.00  0.00    -0.360 N 
HETATM   19  C   UNL     1     -53.817  58.516 -61.539  1.00  0.00     0.125 C 
HETATM   20  C   UNL     1     -54.070  58.364 -60.037  1.00  0.00     0.020 C 
HETATM   21  C   UNL     1     -54.442  59.702 -59.398  1.00  0.00     0.003 C 
HETATM   22  C   UNL     1     -53.398  60.769 -59.720  1.00  0.00     0.020 C 
HETATM   23  C   UNL     1     -53.161  60.859 -61.225  1.00  0.00     0.125 C 
ENDBRANCH  14  18
ENDBRANCH  11  12
ENDBRANCH   8  11
ENDBRANCH   4   7
BRANCH   1  24
HETATM   24  C   UNL     1     -42.895  56.617 -56.649  1.00  0.00     0.256 C 
HETATM   25  N   UNL     1     -43.045  55.318 -56.195  1.00  0.00    -0.323 N 
HETATM   26  H   UNL     1     -43.780  54.761 -56.606  1.00  0.00     0.169 HD
HETATM   27  O   UNL     1     -42.130  57.461 -56.196  1.00  0.00    -0.267 OA
BRANCH  25  28
HETATM   28  C   UNL     1     -42.332  54.685 -55.153  1.00  0.00     0.035 A 
HETATM   29  C   UNL     1     -42.845  54.453 -53.878  1.00  0.00     0.030 A 
HETATM   30  C   UNL     1     -42.075  53.802 -52.904  1.00  0.00     0.010 A 
HETATM   31  C   UNL     1     -40.776  53.363 -53.185  1.00  0.00    -0.054 A 
HETATM   32  C   UNL     1     -40.255  53.620 -54.460  1.00  0.00     0.010 A 
HETATM   33  C   UNL     1     -41.025  54.270 -55.433  1.00  0.00     0.030 A 
BRANCH  31  34
HETATM   34  C   UNL     1     -39.914  52.652 -52.151  1.00  0.00     0.014 C 
HETATM   35  C   UNL     1     -39.617  51.198 -52.541  1.00  0.00     0.015 C 
BRANCH  34  36
HETATM   36  C   UNL     1     -40.561  52.767 -50.758  1.00  0.00     0.004 C 
HETATM   37  C   UNL     1     -39.935  53.849 -49.888  1.00  0.00     0.006 C 
ENDBRANCH  34  36
ENDBRANCH  31  34
ENDBRANCH  25  28
ENDBRANCH   1  24
TORSDOF 8
ENDMDL
MODEL 6
REMARK VINA RESULT:      -7.9      6.261     11.523
REMARK  8 active torsions:
REMARK  status: ('A' for Active; 'I' for Inactive)
REMARK    1  A    between atoms: C_2  and  C_3 
REMARK    2  A    between atoms: C_3  and  C_4 
REMARK    3  A    between atoms: C_7  and  N_8 
REMARK       I    between atoms: N_8  and  C_9 
REMARK    4  A    between atoms: C_9  and  C_10 
REMARK    5  A    between atoms: C_13  and  N_14 
REMARK       I    between atoms: N_14  and  C_15 
REMARK    6  A    between atoms: C_15  and  C_16 
REMARK    7  A    between atoms: C_16  and  C_17 
REMARK    8  A    between atoms: C_19  and  N_20 
ROOT
HETATM    1  C   UNL     1     -43.832  58.675 -56.164  1.00  0.00     0.032 A 
HETATM    2  C   UNL     1     -44.484  59.232 -55.059  1.00  0.00     0.019 A 
HETATM    3  C   UNL     1     -44.630  58.496 -53.874  1.00  0.00     0.030 A 
HETATM    4  C   UNL     1     -44.113  57.202 -53.764  1.00  0.00     0.034 A 
HETATM    5  C   UNL     1     -43.435  56.657 -54.860  1.00  0.00     0.030 A 
HETATM    6  C   UNL     1     -43.298  57.384 -56.049  1.00  0.00     0.019 A 
ENDROOT
BRANCH   4   7
HETATM    7  N   UNL     1     -44.216  56.405 -52.602  1.00  0.00    -0.327 N 
HETATM    8  C   UNL     1     -43.340  56.377 -51.530  1.00  0.00     0.223 C 
HETATM    9  O   UNL     1     -42.322  57.051 -51.414  1.00  0.00    -0.273 OA
HETATM   10  H   UNL     1     -45.044  55.826 -52.537  1.00  0.00     0.169 HD
BRANCH   8  11
HETATM   11  C   UNL     1     -43.735  55.352 -50.480  1.00  0.00     0.128 C 
BRANCH  11  12
HETATM   12  C   UNL     1     -42.912  54.079 -50.627  1.00  0.00     0.158 C 
HETATM   13  S   UNL     1     -42.311  53.840 -52.328  1.00  0.00    -0.077 SA
HETATM   14  C   UNL     1     -40.781  53.243 -51.699  1.00  0.00     0.168 C 
HETATM   15  N   UNL     1     -40.585  53.436 -50.436  1.00  0.00    -0.189 NA
HETATM   16  C   UNL     1     -41.627  54.093 -49.820  1.00  0.00     0.260 C 
HETATM   17  O   UNL     1     -41.546  54.593 -48.705  1.00  0.00    -0.270 OA
BRANCH  14  18
HETATM   18  N   UNL     1     -39.929  52.566 -52.542  1.00  0.00    -0.360 N 
HETATM   19  C   UNL     1     -39.077  51.455 -52.107  1.00  0.00     0.125 C 
HETATM   20  C   UNL     1     -39.724  50.128 -52.509  1.00  0.00     0.020 C 
HETATM   21  C   UNL     1     -40.018  50.083 -54.008  1.00  0.00     0.003 C 
HETATM   22  C   UNL     1     -40.836  51.299 -54.441  1.00  0.00     0.020 C 
HETATM   23  C   UNL     1     -40.164  52.593 -53.990  1.00  0.00     0.125 C 
ENDBRANCH  14  18
ENDBRANCH  11  12
ENDBRANCH   8  11
ENDBRANCH   4   7
BRANCH   1  24
HETATM   24  C   UNL     1     -43.647  59.406 -57.458  1.00  0.00     0.256 C 
HETATM   25  N   UNL     1     -42.345  59.756 -57.772  1.00  0.00    -0.323 N 
HETATM   26  H   UNL     1     -41.630  59.561 -57.086  1.00  0.00     0.169 HD
HETATM   27  O   UNL     1     -44.646  59.659 -58.120  1.00  0.00    -0.267 OA
BRANCH  25  28
HETATM   28  C   UNL     1     -41.892  60.437 -58.924  1.00  0.00     0.035 A 
HETATM   29  C   UNL     1     -42.166  60.037 -60.230  1.00  0.00     0.030 A 
HETATM   30  C   UNL     1     -41.692  60.780 -61.321  1.00  0.00     0.010 A 
HETATM   31  C   UNL     1     -40.937  61.943 -61.128  1.00  0.00    -0.054 A 
HETATM   32  C   UNL     1     -40.643  62.328 -59.814  1.00  0.00     0.010 A 
HETATM   33  C   UNL     1     -41.118  61.586 -58.725  1.00  0.00     0.030 A 
BRANCH  31  34
HETATM   34  C   UNL     1     -40.408  62.773 -62.290  1.00  0.00     0.014 C 
HETATM   35  C   UNL     1     -39.009  63.337 -62.013  1.00  0.00     0.015 C 
BRANCH  34  36
HETATM   36  C   UNL     1     -41.424  63.871 -62.658  1.00  0.00     0.004 C 
HETATM   37  C   UNL     1     -42.415  63.444 -63.731  1.00  0.00     0.006 C 
ENDBRANCH  34  36
ENDBRANCH  31  34
ENDBRANCH  25  28
ENDBRANCH   1  24
TORSDOF 8
ENDMDL
MODEL 7
REMARK VINA RESULT:      -7.9      2.125      2.622
REMARK  8 active torsions:
REMARK  status: ('A' for Active; 'I' for Inactive)
REMARK    1  A    between atoms: C_2  and  C_3 
REMARK    2  A    between atoms: C_3  and  C_4 
REMARK    3  A    between atoms: C_7  and  N_8 
REMARK       I    between atoms: N_8  and  C_9 
REMARK    4  A    between atoms: C_9  and  C_10 
REMARK    5  A    between atoms: C_13  and  N_14 
REMARK       I    between atoms: N_14  and  C_15 
REMARK    6  A    between atoms: C_15  and  C_16 
REMARK    7  A    between atoms: C_16  and  C_17 
REMARK    8  A    between atoms: C_19  and  N_20 
ROOT
HETATM    1  C   UNL     1     -43.881  58.181 -52.880  1.00  0.00     0.032 A 
HETATM    2  C   UNL     1     -44.451  59.006 -53.855  1.00  0.00     0.019 A 
HETATM    3  C   UNL     1     -45.469  59.909 -53.516  1.00  0.00     0.030 A 
HETATM    4  C   UNL     1     -45.921  60.019 -52.198  1.00  0.00     0.034 A 
HETATM    5  C   UNL     1     -45.329  59.215 -51.218  1.00  0.00     0.030 A 
HETATM    6  C   UNL     1     -44.321  58.303 -51.555  1.00  0.00     0.019 A 
ENDROOT
BRANCH   4   7
HETATM    7  N   UNL     1     -46.935  60.910 -51.781  1.00  0.00    -0.327 N 
HETATM    8  C   UNL     1     -46.995  62.274 -52.016  1.00  0.00     0.223 C 
HETATM    9  O   UNL     1     -46.169  62.935 -52.634  1.00  0.00    -0.273 OA
HETATM   10  H   UNL     1     -47.718  60.491 -51.295  1.00  0.00     0.169 HD
BRANCH   8  11
HETATM   11  C   UNL     1     -48.205  62.925 -51.366  1.00  0.00     0.128 C 
BRANCH  11  12
HETATM   12  C   UNL     1     -49.173  63.446 -52.420  1.00  0.00     0.158 C 
HETATM   13  S   UNL     1     -49.040  62.533 -53.989  1.00  0.00    -0.077 SA
HETATM   14  C   UNL     1     -50.786  62.607 -54.176  1.00  0.00     0.168 C 
HETATM   15  N   UNL     1     -51.443  62.988 -53.130  1.00  0.00    -0.189 NA
HETATM   16  C   UNL     1     -50.632  63.255 -52.049  1.00  0.00     0.260 C 
HETATM   17  O   UNL     1     -51.051  63.385 -50.905  1.00  0.00    -0.270 OA
BRANCH  14  18
HETATM   18  N   UNL     1     -51.341  62.329 -55.405  1.00  0.00    -0.360 N 
HETATM   19  C   UNL     1     -50.575  61.792 -56.533  1.00  0.00     0.125 C 
HETATM   20  C   UNL     1     -50.816  60.284 -56.642  1.00  0.00     0.020 C 
HETATM   21  C   UNL     1     -52.307  59.965 -56.746  1.00  0.00     0.003 C 
HETATM   22  C   UNL     1     -53.084  60.610 -55.601  1.00  0.00     0.020 C 
HETATM   23  C   UNL     1     -52.786  62.105 -55.517  1.00  0.00     0.125 C 
ENDBRANCH  14  18
ENDBRANCH  11  12
ENDBRANCH   8  11
ENDBRANCH   4   7
BRANCH   1  24
HETATM   24  C   UNL     1     -42.795  57.194 -53.178  1.00  0.00     0.256 C 
HETATM   25  N   UNL     1     -43.118  55.863 -52.979  1.00  0.00    -0.323 N 
HETATM   26  H   UNL     1     -44.025  55.655 -52.586  1.00  0.00     0.169 HD
HETATM   27  O   UNL     1     -41.710  57.631 -53.545  1.00  0.00    -0.267 OA
BRANCH  25  28
HETATM   28  C   UNL     1     -42.290  54.737 -53.189  1.00  0.00     0.035 A 
HETATM   29  C   UNL     1     -42.182  54.058 -54.401  1.00  0.00     0.030 A 
HETATM   30  C   UNL     1     -41.324  52.957 -54.530  1.00  0.00     0.010 A 
HETATM   31  C   UNL     1     -40.549  52.514 -53.451  1.00  0.00    -0.054 A 
HETATM   32  C   UNL     1     -40.679  53.185 -52.228  1.00  0.00     0.010 A 
HETATM   33  C   UNL     1     -41.537  54.285 -52.100  1.00  0.00     0.030 A 
BRANCH  31  34
HETATM   34  C   UNL     1     -39.606  51.324 -53.558  1.00  0.00     0.014 C 
HETATM   35  C   UNL     1     -40.229  50.155 -54.332  1.00  0.00     0.015 C 
BRANCH  34  36
HETATM   36  C   UNL     1     -39.119  50.910 -52.157  1.00  0.00     0.004 C 
HETATM   37  C   UNL     1     -39.845  49.694 -51.598  1.00  0.00     0.006 C 
ENDBRANCH  34  36
ENDBRANCH  31  34
ENDBRANCH  25  28
ENDBRANCH   1  24
TORSDOF 8
ENDMDL
MODEL 8
REMARK VINA RESULT:      -7.8      2.061      2.484
REMARK  8 active torsions:
REMARK  status: ('A' for Active; 'I' for Inactive)
REMARK    1  A    between atoms: C_2  and  C_3 
REMARK    2  A    between atoms: C_3  and  C_4 
REMARK    3  A    between atoms: C_7  and  N_8 
REMARK       I    between atoms: N_8  and  C_9 
REMARK    4  A    between atoms: C_9  and  C_10 
REMARK    5  A    between atoms: C_13  and  N_14 
REMARK       I    between atoms: N_14  and  C_15 
REMARK    6  A    between atoms: C_15  and  C_16 
REMARK    7  A    between atoms: C_16  and  C_17 
REMARK    8  A    between atoms: C_19  and  N_20 
ROOT
HETATM    1  C   UNL     1     -43.963  58.361 -54.575  1.00  0.00     0.032 A 
HETATM    2  C   UNL     1     -44.960  58.913 -55.386  1.00  0.00     0.019 A 
HETATM    3  C   UNL     1     -45.457  60.198 -55.126  1.00  0.00     0.030 A 
HETATM    4  C   UNL     1     -44.956  60.962 -54.068  1.00  0.00     0.034 A 
HETATM    5  C   UNL     1     -43.937  60.421 -53.276  1.00  0.00     0.030 A 
HETATM    6  C   UNL     1     -43.447  59.132 -53.524  1.00  0.00     0.019 A 
ENDROOT
BRANCH   4   7
HETATM    7  N   UNL     1     -45.402  62.264 -53.752  1.00  0.00    -0.327 N 
HETATM    8  C   UNL     1     -46.080  62.660 -52.611  1.00  0.00     0.223 C 
HETATM    9  O   UNL     1     -46.403  61.934 -51.677  1.00  0.00    -0.273 OA
HETATM   10  H   UNL     1     -45.159  62.987 -54.418  1.00  0.00     0.169 HD
BRANCH   8  11
HETATM   11  C   UNL     1     -46.455  64.133 -52.636  1.00  0.00     0.128 C 
BRANCH  11  12
HETATM   12  C   UNL     1     -47.967  64.306 -52.692  1.00  0.00     0.158 C 
HETATM   13  S   UNL     1     -48.787  62.932 -53.561  1.00  0.00    -0.077 SA
HETATM   14  C   UNL     1     -50.099  62.982 -52.391  1.00  0.00     0.168 C 
HETATM   15  N   UNL     1     -49.878  63.695 -51.336  1.00  0.00    -0.189 NA
HETATM   16  C   UNL     1     -48.631  64.279 -51.328  1.00  0.00     0.260 C 
HETATM   17  O   UNL     1     -48.125  64.780 -50.332  1.00  0.00    -0.270 OA
BRANCH  14  18
HETATM   18  N   UNL     1     -51.279  62.334 -52.680  1.00  0.00    -0.360 N 
HETATM   19  C   UNL     1     -52.584  62.770 -52.177  1.00  0.00     0.125 C 
HETATM   20  C   UNL     1     -53.322  63.544 -53.272  1.00  0.00     0.020 C 
HETATM   21  C   UNL     1     -53.439  62.718 -54.553  1.00  0.00     0.003 C 
HETATM   22  C   UNL     1     -52.070  62.210 -55.002  1.00  0.00     0.020 C 
HETATM   23  C   UNL     1     -51.365  61.474 -53.866  1.00  0.00     0.125 C 
ENDBRANCH  14  18
ENDBRANCH  11  12
ENDBRANCH   8  11
ENDBRANCH   4   7
BRANCH   1  24
HETATM   24  C   UNL     1     -43.393  56.994 -54.797  1.00  0.00     0.256 C 
HETATM   25  N   UNL     1     -42.405  56.601 -53.910  1.00  0.00    -0.323 N 
HETATM   26  H   UNL     1     -42.092  57.277 -53.229  1.00  0.00     0.169 HD
HETATM   27  O   UNL     1     -43.817  56.344 -55.746  1.00  0.00    -0.267 OA
BRANCH  25  28
HETATM   28  C   UNL     1     -41.712  55.370 -53.887  1.00  0.00     0.035 A 
HETATM   29  C   UNL     1     -40.929  54.890 -54.935  1.00  0.00     0.030 A 
HETATM   30  C   UNL     1     -40.260  53.663 -54.824  1.00  0.00     0.010 A 
HETATM   31  C   UNL     1     -40.353  52.891 -53.659  1.00  0.00    -0.054 A 
HETATM   32  C   UNL     1     -41.161  53.366 -52.618  1.00  0.00     0.010 A 
HETATM   33  C   UNL     1     -41.829  54.592 -52.729  1.00  0.00     0.030 A 
BRANCH  31  34
HETATM   34  C   UNL     1     -39.638  51.557 -53.506  1.00  0.00     0.014 C 
HETATM   35  C   UNL     1     -40.292  50.447 -54.339  1.00  0.00     0.015 C 
BRANCH  34  36
HETATM   36  C   UNL     1     -39.526  51.187 -52.015  1.00  0.00     0.004 C 
HETATM   37  C   UNL     1     -39.576  49.687 -51.758  1.00  0.00     0.006 C 
ENDBRANCH  34  36
ENDBRANCH  31  34
ENDBRANCH  25  28
ENDBRANCH   1  24
TORSDOF 8
ENDMDL
MODEL 9
REMARK VINA RESULT:      -7.7      4.219      5.155
REMARK  8 active torsions:
REMARK  status: ('A' for Active; 'I' for Inactive)
REMARK    1  A    between atoms: C_2  and  C_3 
REMARK    2  A    between atoms: C_3  and  C_4 
REMARK    3  A    between atoms: C_7  and  N_8 
REMARK       I    between atoms: N_8  and  C_9 
REMARK    4  A    between atoms: C_9  and  C_10 
REMARK    5  A    between atoms: C_13  and  N_14 
REMARK       I    between atoms: N_14  and  C_15 
REMARK    6  A    between atoms: C_15  and  C_16 
REMARK    7  A    between atoms: C_16  and  C_17 
REMARK    8  A    between atoms: C_19  and  N_20 
ROOT
HETATM    1  C   UNL     1     -44.096  57.659 -57.083  1.00  0.00     0.032 A 
HETATM    2  C   UNL     1     -44.117  58.215 -58.366  1.00  0.00     0.019 A 
HETATM    3  C   UNL     1     -44.854  59.379 -58.624  1.00  0.00     0.030 A 
HETATM    4  C   UNL     1     -45.565  60.020 -57.606  1.00  0.00     0.034 A 
HETATM    5  C   UNL     1     -45.518  59.480 -56.316  1.00  0.00     0.030 A 
HETATM    6  C   UNL     1     -44.793  58.310 -56.057  1.00  0.00     0.019 A 
ENDROOT
BRANCH   4   7
HETATM    7  N   UNL     1     -46.322  61.198 -57.789  1.00  0.00    -0.327 N 
HETATM    8  C   UNL     1     -47.683  61.287 -58.027  1.00  0.00     0.223 C 
HETATM    9  O   UNL     1     -48.462  60.344 -58.115  1.00  0.00    -0.273 OA
HETATM   10  H   UNL     1     -45.812  62.068 -57.694  1.00  0.00     0.169 HD
BRANCH   8  11
HETATM   11  C   UNL     1     -48.147  62.720 -58.234  1.00  0.00     0.128 C 
BRANCH  11  12
HETATM   12  C   UNL     1     -48.983  63.195 -57.053  1.00  0.00     0.158 C 
HETATM   13  S   UNL     1     -50.588  62.342 -56.957  1.00  0.00    -0.077 SA
HETATM   14  C   UNL     1     -50.449  62.287 -55.205  1.00  0.00     0.168 C 
HETATM   15  N   UNL     1     -49.285  62.586 -54.729  1.00  0.00    -0.189 NA
HETATM   16  C   UNL     1     -48.360  62.883 -55.706  1.00  0.00     0.260 C 
HETATM   17  O   UNL     1     -47.155  62.946 -55.498  1.00  0.00    -0.270 OA
BRANCH  14  18
HETATM   18  N   UNL     1     -51.567  62.004 -54.453  1.00  0.00    -0.360 N 
HETATM   19  C   UNL     1     -51.509  61.549 -53.061  1.00  0.00     0.125 C 
HETATM   20  C   UNL     1     -51.794  62.727 -52.126  1.00  0.00     0.020 C 
HETATM   21  C   UNL     1     -53.125  63.397 -52.465  1.00  0.00     0.003 C 
HETATM   22  C   UNL     1     -53.183  63.782 -53.942  1.00  0.00     0.020 C 
HETATM   23  C   UNL     1     -52.862  62.581 -54.829  1.00  0.00     0.125 C 
ENDBRANCH  14  18
ENDBRANCH  11  12
ENDBRANCH   8  11
ENDBRANCH   4   7
BRANCH   1  24
HETATM   24  C   UNL     1     -43.332  56.416 -56.743  1.00  0.00     0.256 C 
HETATM   25  N   UNL     1     -42.930  56.296 -55.424  1.00  0.00    -0.323 N 
HETATM   26  H   UNL     1     -43.115  57.073 -54.806  1.00  0.00     0.169 HD
HETATM   27  O   UNL     1     -43.100  55.622 -57.648  1.00  0.00    -0.267 OA
BRANCH  25  28
HETATM   28  C   UNL     1     -42.211  55.230 -54.838  1.00  0.00     0.035 A 
HETATM   29  C   UNL     1     -40.975  54.775 -55.292  1.00  0.00     0.030 A 
HETATM   30  C   UNL     1     -40.319  53.720 -54.643  1.00  0.00     0.010 A 
HETATM   31  C   UNL     1     -40.882  53.100 -53.520  1.00  0.00    -0.054 A 
HETATM   32  C   UNL     1     -42.136  53.546 -53.082  1.00  0.00     0.010 A 
HETATM   33  C   UNL     1     -42.791  54.600 -53.731  1.00  0.00     0.030 A 
BRANCH  31  34
HETATM   34  C   UNL     1     -40.195  51.954 -52.791  1.00  0.00     0.014 C 
HETATM   35  C   UNL     1     -39.474  52.421 -51.520  1.00  0.00     0.015 C 
BRANCH  34  36
HETATM   36  C   UNL     1     -39.261  51.201 -53.756  1.00  0.00     0.004 C 
HETATM   37  C   UNL     1     -39.925  50.012 -54.437  1.00  0.00     0.006 C 
ENDBRANCH  34  36
ENDBRANCH  31  34
ENDBRANCH  25  28
ENDBRANCH   1  24
TORSDOF 8
ENDMDL
MODEL 10
REMARK VINA RESULT:      -7.6      4.054      5.156
REMARK  8 active torsions:
REMARK  status: ('A' for Active; 'I' for Inactive)
REMARK    1  A    between atoms: C_2  and  C_3 
REMARK    2  A    between atoms: C_3  and  C_4 
REMARK    3  A    between atoms: C_7  and  N_8 
REMARK       I    between atoms: N_8  and  C_9 
REMARK    4  A    between atoms: C_9  and  C_10 
REMARK    5  A    between atoms: C_13  and  N_14 
REMARK       I    between atoms: N_14  and  C_15 
REMARK    6  A    between atoms: C_15  and  C_16 
REMARK    7  A    between atoms: C_16  and  C_17 
REMARK    8  A    between atoms: C_19  and  N_20 
ROOT
HETATM    1  C   UNL     1     -43.997  57.899 -56.039  1.00  0.00     0.032 A 
HETATM    2  C   UNL     1     -44.567  57.721 -57.304  1.00  0.00     0.019 A 
HETATM    3  C   UNL     1     -45.628  58.534 -57.726  1.00  0.00     0.030 A 
HETATM    4  C   UNL     1     -46.125  59.549 -56.905  1.00  0.00     0.034 A 
HETATM    5  C   UNL     1     -45.535  59.747 -55.652  1.00  0.00     0.030 A 
HETATM    6  C   UNL     1     -44.483  58.928 -55.221  1.00  0.00     0.019 A 
ENDROOT
BRANCH   4   7
HETATM    7  N   UNL     1     -47.185  60.411 -57.266  1.00  0.00    -0.327 N 
HETATM    8  C   UNL     1     -47.131  61.473 -58.153  1.00  0.00     0.223 C 
HETATM    9  O   UNL     1     -46.142  61.839 -58.778  1.00  0.00    -0.273 OA
HETATM   10  H   UNL     1     -48.086  60.196 -56.858  1.00  0.00     0.169 HD
BRANCH   8  11
HETATM   11  C   UNL     1     -48.452  62.218 -58.252  1.00  0.00     0.128 C 
BRANCH  11  12
HETATM   12  C   UNL     1     -49.289  62.009 -56.997  1.00  0.00     0.158 C 
HETATM   13  S   UNL     1     -49.122  63.387 -55.820  1.00  0.00    -0.077 SA
HETATM   14  C   UNL     1     -50.836  63.271 -55.446  1.00  0.00     0.168 C 
HETATM   15  N   UNL     1     -51.532  62.532 -56.248  1.00  0.00    -0.189 NA
HETATM   16  C   UNL     1     -50.782  61.979 -57.262  1.00  0.00     0.260 C 
HETATM   17  O   UNL     1     -51.271  61.460 -58.258  1.00  0.00    -0.270 OA
BRANCH  14  18
HETATM   18  N   UNL     1     -51.321  63.897 -54.321  1.00  0.00    -0.360 N 
HETATM   19  C   UNL     1     -52.747  64.135 -54.080  1.00  0.00     0.125 C 
HETATM   20  C   UNL     1     -53.286  63.078 -53.113  1.00  0.00     0.020 C 
HETATM   21  C   UNL     1     -52.475  63.044 -51.818  1.00  0.00     0.003 C 
HETATM   22  C   UNL     1     -50.984  62.879 -52.111  1.00  0.00     0.020 C 
HETATM   23  C   UNL     1     -50.506  63.937 -53.102  1.00  0.00     0.125 C 
ENDBRANCH  14  18
ENDBRANCH  11  12
ENDBRANCH   8  11
ENDBRANCH   4   7
BRANCH   1  24
HETATM   24  C   UNL     1     -42.865  57.062 -55.527  1.00  0.00     0.256 C 
HETATM   25  N   UNL     1     -43.211  55.815 -55.034  1.00  0.00    -0.323 N 
HETATM   26  H   UNL     1     -44.193  55.586 -54.990  1.00  0.00     0.169 HD
HETATM   27  O   UNL     1     -41.738  57.543 -55.557  1.00  0.00    -0.267 OA
BRANCH  25  28
HETATM   28  C   UNL     1     -42.347  54.831 -54.504  1.00  0.00     0.035 A 
HETATM   29  C   UNL     1     -42.406  54.357 -53.195  1.00  0.00     0.030 A 
HETATM   30  C   UNL     1     -41.520  53.366 -52.752  1.00  0.00     0.010 A 
HETATM   31  C   UNL     1     -40.557  52.820 -53.611  1.00  0.00    -0.054 A 
HETATM   32  C   UNL     1     -40.485  53.317 -54.919  1.00  0.00     0.010 A 
HETATM   33  C   UNL     1     -41.372  54.307 -55.361  1.00  0.00     0.030 A 
BRANCH  31  34
HETATM   34  C   UNL     1     -39.582  51.741 -53.162  1.00  0.00     0.014 C 
HETATM   35  C   UNL     1     -39.791  50.419 -53.912  1.00  0.00     0.015 C 
BRANCH  34  36
HETATM   36  C   UNL     1     -39.653  51.570 -51.633  1.00  0.00     0.004 C 
HETATM   37  C   UNL     1     -39.534  50.121 -51.180  1.00  0.00     0.006 C 
ENDBRANCH  34  36
ENDBRANCH  31  34
ENDBRANCH  25  28
ENDBRANCH   1  24
TORSDOF 8
ENDMDL
