MODEL 1
REMARK VINA RESULT:      -8.7      0.000      0.000
REMARK  5 active torsions:
REMARK  status: ('A' for Active; 'I' for Inactive)
REMARK    1  A    between atoms: C_2  and  N_3 
REMARK    2  A    between atoms: N_7  and  C_8 
REMARK    3  A    between atoms: N_14  and  C_15 
REMARK    4  A    between atoms: C_19  and  C_20 
REMARK       I    between atoms: C_20  and  N_21 
REMARK    5  A    between atoms: N_21  and  C_22 
ROOT
HETATM    1  C   UNL     1     -42.314  60.330 -59.194  1.00  0.00     0.071 A 
HETATM    2  C   UNL     1     -41.912  60.601 -57.870  1.00  0.00     0.143 A 
HETATM    3  F   UNL     1     -41.407  61.800 -57.539  1.00  0.00    -0.204 F 
HETATM    4  C   UNL     1     -41.956  59.642 -56.862  1.00  0.00     0.062 A 
HETATM    5  C   UNL     1     -42.408  58.357 -57.156  1.00  0.00     0.045 A 
HETATM    6  C   UNL     1     -42.848  58.025 -58.445  1.00  0.00     0.051 A 
HETATM    7  N   UNL     1     -43.298  56.701 -58.708  1.00  0.00    -0.350 N 
HETATM    8  C   UNL     1     -43.091  55.722 -57.749  1.00  0.00     0.113 C 
HETATM    9  C   UNL     1     -42.668  55.919 -56.491  1.00  0.00     0.099 C 
HETATM   10  C   UNL     1     -42.398  57.323 -56.093  1.00  0.00     0.201 C 
HETATM   11  O   UNL     1     -42.140  57.625 -54.931  1.00  0.00    -0.286 OA
HETATM   12  C   UNL     1     -42.809  59.029 -59.434  1.00  0.00     0.063 A 
ENDROOT
BRANCH   9  13
HETATM   13  C   UNL     1     -42.458  54.734 -55.601  1.00  0.00     0.275 C 
HETATM   14  N   UNL     1     -41.261  54.767 -54.922  1.00  0.00    -0.153 N 
HETATM   15  H   UNL     1     -40.664  55.584 -55.021  1.00  0.00     0.187 HD
HETATM   16  O   UNL     1     -43.322  53.865 -55.541  1.00  0.00    -0.267 OA
BRANCH  14  17
HETATM   17  C   UNL     1     -40.799  53.705 -54.187  1.00  0.00     0.708 A 
HETATM   18  N   UNL     1     -40.534  53.644 -52.904  1.00  0.00    -0.062 NA
HETATM   19  C   UNL     1     -40.162  52.346 -52.657  1.00  0.00     0.103 A 
HETATM   20  C   UNL     1     -40.179  51.595 -53.827  1.00  0.00     0.078 A 
HETATM   21  C   UNL     1     -39.798  51.727 -51.453  1.00  0.00     0.034 A 
HETATM   22  N   UNL     1     -40.588  52.487 -54.785  1.00  0.00    -0.187 N 
HETATM   23  C   UNL     1     -39.838  50.243 -53.879  1.00  0.00     0.032 A 
HETATM   24  H   UNL     1     -40.713  52.283 -55.763  1.00  0.00     0.184 HD
HETATM   25  C   UNL     1     -39.476  49.643 -52.667  1.00  0.00     0.002 A 
HETATM   26  C   UNL     1     -39.458  50.368 -51.472  1.00  0.00     0.002 A 
ENDBRANCH  14  17
ENDBRANCH   9  13
BRANCH   7  27
HETATM   27  C   UNL     1     -43.712  56.265 -60.056  1.00  0.00     0.090 A 
HETATM   28  C   UNL     1     -44.436  54.960 -60.285  1.00  0.00     0.028 A 
HETATM   29  C   UNL     1     -45.161  56.255 -60.475  1.00  0.00     0.028 A 
ENDBRANCH   7  27
BRANCH   1  30
HETATM   30  N   UNL     1     -42.286  61.267 -60.240  1.00  0.00    -0.375 N 
HETATM   31  C   UNL     1     -43.058  62.517 -60.066  1.00  0.00     0.150 C 
HETATM   32  C   UNL     1     -44.490  62.359 -60.623  1.00  0.00     0.254 C 
HETATM   33  N   UNL     1     -44.458  61.917 -62.092  1.00  0.00    -0.068 N 
HETATM   34  H   UNL     1     -43.965  62.647 -62.623  1.00  0.00     0.280 HD
HETATM   35  C   UNL     1     -43.625  60.630 -62.249  1.00  0.00     0.254 C 
HETATM   36  C   UNL     1     -42.214  60.820 -61.646  1.00  0.00     0.150 C 
BRANCH  33  37
HETATM   37  C   UNL     1     -45.833  61.746 -62.692  1.00  0.00     0.230 C 
HETATM   38  C   UNL     1     -46.546  60.555 -62.079  1.00  0.00     0.034 C 
ENDBRANCH  33  37
ENDBRANCH   1  30
TORSDOF 5
ENDMDL
MODEL 2
REMARK VINA RESULT:      -8.5      1.642      2.379
REMARK  5 active torsions:
REMARK  status: ('A' for Active; 'I' for Inactive)
REMARK    1  A    between atoms: C_2  and  N_3 
REMARK    2  A    between atoms: N_7  and  C_8 
REMARK    3  A    between atoms: N_14  and  C_15 
REMARK    4  A    between atoms: C_19  and  C_20 
REMARK       I    between atoms: C_20  and  N_21 
REMARK    5  A    between atoms: N_21  and  C_22 
ROOT
HETATM    1  C   UNL     1     -42.943  61.260 -57.160  1.00  0.00     0.071 A 
HETATM    2  C   UNL     1     -42.939  61.215 -55.751  1.00  0.00     0.143 A 
HETATM    3  F   UNL     1     -42.831  62.341 -55.029  1.00  0.00    -0.204 F 
HETATM    4  C   UNL     1     -42.984  60.019 -55.040  1.00  0.00     0.062 A 
HETATM    5  C   UNL     1     -43.031  58.810 -55.730  1.00  0.00     0.045 A 
HETATM    6  C   UNL     1     -43.063  58.782 -57.132  1.00  0.00     0.051 A 
HETATM    7  N   UNL     1     -43.106  57.527 -57.802  1.00  0.00    -0.350 N 
HETATM    8  C   UNL     1     -42.898  56.369 -57.069  1.00  0.00     0.113 C 
HETATM    9  C   UNL     1     -42.841  56.276 -55.731  1.00  0.00     0.099 C 
HETATM   10  C   UNL     1     -43.019  57.537 -54.970  1.00  0.00     0.201 C 
HETATM   11  O   UNL     1     -43.121  57.541 -53.745  1.00  0.00    -0.286 OA
HETATM   12  C   UNL     1     -43.039  60.013 -57.817  1.00  0.00     0.063 A 
ENDROOT
BRANCH   9  13
HETATM   13  C   UNL     1     -42.565  54.945 -55.107  1.00  0.00     0.275 C 
HETATM   14  N   UNL     1     -41.445  54.939 -54.306  1.00  0.00    -0.153 N 
HETATM   15  H   UNL     1     -40.948  55.813 -54.154  1.00  0.00     0.187 HD
HETATM   16  O   UNL     1     -43.316  54.003 -55.339  1.00  0.00    -0.267 OA
BRANCH  14  17
HETATM   17  C   UNL     1     -40.922  53.788 -53.775  1.00  0.00     0.708 A 
HETATM   18  N   UNL     1     -40.550  53.543 -52.542  1.00  0.00    -0.062 NA
HETATM   19  C   UNL     1     -40.157  52.228 -52.520  1.00  0.00     0.103 A 
HETATM   20  C   UNL     1     -40.271  51.656 -53.781  1.00  0.00     0.078 A 
HETATM   21  C   UNL     1     -39.692  51.445 -51.454  1.00  0.00     0.034 A 
HETATM   22  N   UNL     1     -40.761  52.673 -54.561  1.00  0.00    -0.187 N 
HETATM   23  C   UNL     1     -39.934  50.331 -54.060  1.00  0.00     0.032 A 
HETATM   24  H   UNL     1     -40.967  52.613 -55.545  1.00  0.00     0.184 HD
HETATM   25  C   UNL     1     -39.470  49.565 -52.984  1.00  0.00     0.002 A 
HETATM   26  C   UNL     1     -39.353  50.108 -51.701  1.00  0.00     0.002 A 
ENDBRANCH  14  17
ENDBRANCH   9  13
BRANCH   7  27
HETATM   27  C   UNL     1     -43.076  57.421 -59.274  1.00  0.00     0.090 A 
HETATM   28  C   UNL     1     -41.779  57.426 -60.048  1.00  0.00     0.028 A 
HETATM   29  C   UNL     1     -42.592  56.172 -59.969  1.00  0.00     0.028 A 
ENDBRANCH   7  27
BRANCH   1  30
HETATM   30  N   UNL     1     -42.898  62.442 -57.917  1.00  0.00    -0.375 N 
HETATM   31  C   UNL     1     -43.817  62.557 -59.071  1.00  0.00     0.150 C 
HETATM   32  C   UNL     1     -43.145  62.040 -60.361  1.00  0.00     0.254 C 
HETATM   33  N   UNL     1     -41.823  62.775 -60.619  1.00  0.00    -0.068 N 
HETATM   34  H   UNL     1     -42.042  63.774 -60.727  1.00  0.00     0.280 HD
HETATM   35  C   UNL     1     -40.897  62.663 -59.393  1.00  0.00     0.254 C 
HETATM   36  C   UNL     1     -41.621  63.156 -58.119  1.00  0.00     0.150 C 
BRANCH  33  37
HETATM   37  C   UNL     1     -41.118  62.310 -61.872  1.00  0.00     0.230 C 
HETATM   38  C   UNL     1     -39.757  62.968 -62.001  1.00  0.00     0.034 C 
ENDBRANCH  33  37
ENDBRANCH   1  30
TORSDOF 5
ENDMDL
MODEL 3
REMARK VINA RESULT:      -8.3      5.400      7.507
REMARK  5 active torsions:
REMARK  status: ('A' for Active; 'I' for Inactive)
REMARK    1  A    between atoms: C_2  and  N_3 
REMARK    2  A    between atoms: N_7  and  C_8 
REMARK    3  A    between atoms: N_14  and  C_15 
REMARK    4  A    between atoms: C_19  and  C_20 
REMARK       I    between atoms: C_20  and  N_21 
REMARK    5  A    between atoms: N_21  and  C_22 
ROOT
HETATM    1  C   UNL     1     -44.531  61.411 -52.459  1.00  0.00     0.071 A 
HETATM    2  C   UNL     1     -45.193  60.691 -53.475  1.00  0.00     0.143 A 
HETATM    3  F   UNL     1     -46.414  61.059 -53.892  1.00  0.00    -0.204 F 
HETATM    4  C   UNL     1     -44.656  59.543 -54.050  1.00  0.00     0.062 A 
HETATM    5  C   UNL     1     -43.420  59.069 -53.615  1.00  0.00     0.045 A 
HETATM    6  C   UNL     1     -42.695  59.751 -52.627  1.00  0.00     0.051 A 
HETATM    7  N   UNL     1     -41.438  59.234 -52.205  1.00  0.00    -0.350 N 
HETATM    8  C   UNL     1     -41.062  57.966 -52.620  1.00  0.00     0.113 C 
HETATM    9  C   UNL     1     -41.680  57.219 -53.548  1.00  0.00     0.099 C 
HETATM   10  C   UNL     1     -42.879  57.814 -54.189  1.00  0.00     0.201 C 
HETATM   11  O   UNL     1     -43.434  57.274 -55.143  1.00  0.00    -0.286 OA
HETATM   12  C   UNL     1     -43.260  60.922 -52.083  1.00  0.00     0.063 A 
ENDROOT
BRANCH   9  13
HETATM   13  C   UNL     1     -41.158  55.848 -53.842  1.00  0.00     0.275 C 
HETATM   14  N   UNL     1     -41.406  54.942 -52.836  1.00  0.00    -0.153 N 
HETATM   15  H   UNL     1     -41.954  55.240 -52.033  1.00  0.00     0.187 HD
HETATM   16  O   UNL     1     -40.579  55.638 -54.903  1.00  0.00    -0.267 OA
BRANCH  14  17
HETATM   17  C   UNL     1     -40.870  53.679 -52.829  1.00  0.00     0.708 A 
HETATM   18  N   UNL     1     -40.413  52.983 -51.816  1.00  0.00    -0.062 NA
HETATM   19  C   UNL     1     -40.049  51.764 -52.330  1.00  0.00     0.103 A 
HETATM   20  C   UNL     1     -40.270  51.719 -53.702  1.00  0.00     0.078 A 
HETATM   21  C   UNL     1     -39.524  50.636 -51.685  1.00  0.00     0.034 A 
HETATM   22  N   UNL     1     -40.793  52.953 -53.992  1.00  0.00    -0.187 N 
HETATM   23  C   UNL     1     -39.983  50.605 -54.492  1.00  0.00     0.032 A 
HETATM   24  H   UNL     1     -41.073  53.273 -54.905  1.00  0.00     0.184 HD
HETATM   25  C   UNL     1     -39.458  49.488 -53.831  1.00  0.00     0.002 A 
HETATM   26  C   UNL     1     -39.234  49.498 -52.451  1.00  0.00     0.002 A 
ENDBRANCH  14  17
ENDBRANCH   9  13
BRANCH   7  27
HETATM   27  C   UNL     1     -40.653  59.862 -51.124  1.00  0.00     0.090 A 
HETATM   28  C   UNL     1     -40.719  59.368 -49.699  1.00  0.00     0.028 A 
HETATM   29  C   UNL     1     -39.470  59.167 -50.497  1.00  0.00     0.028 A 
ENDBRANCH   7  27
BRANCH   1  30
HETATM   30  N   UNL     1     -45.036  62.573 -51.852  1.00  0.00    -0.375 N 
HETATM   31  C   UNL     1     -44.065  63.516 -51.255  1.00  0.00     0.150 C 
HETATM   32  C   UNL     1     -43.822  63.183 -49.766  1.00  0.00     0.254 C 
HETATM   33  N   UNL     1     -45.144  63.168 -48.988  1.00  0.00    -0.068 N 
HETATM   34  H   UNL     1     -45.557  64.108 -49.063  1.00  0.00     0.280 HD
HETATM   35  C   UNL     1     -46.146  62.201 -49.646  1.00  0.00     0.254 C 
HETATM   36  C   UNL     1     -46.331  62.546 -51.142  1.00  0.00     0.150 C 
BRANCH  33  37
HETATM   37  C   UNL     1     -44.969  62.848 -47.522  1.00  0.00     0.230 C 
HETATM   38  C   UNL     1     -44.918  61.348 -47.299  1.00  0.00     0.034 C 
ENDBRANCH  33  37
ENDBRANCH   1  30
TORSDOF 5
ENDMDL
MODEL 4
REMARK VINA RESULT:      -8.2      6.301      8.261
REMARK  5 active torsions:
REMARK  status: ('A' for Active; 'I' for Inactive)
REMARK    1  A    between atoms: C_2  and  N_3 
REMARK    2  A    between atoms: N_7  and  C_8 
REMARK    3  A    between atoms: N_14  and  C_15 
REMARK    4  A    between atoms: C_19  and  C_20 
REMARK       I    between atoms: C_20  and  N_21 
REMARK    5  A    between atoms: N_21  and  C_22 
ROOT
HETATM    1  C   UNL     1     -43.566  58.192 -57.053  1.00  0.00     0.071 A 
HETATM    2  C   UNL     1     -44.219  59.440 -57.001  1.00  0.00     0.143 A 
HETATM    3  F   UNL     1     -44.240  60.248 -58.073  1.00  0.00    -0.204 F 
HETATM    4  C   UNL     1     -44.815  59.926 -55.841  1.00  0.00     0.062 A 
HETATM    5  C   UNL     1     -44.772  59.165 -54.675  1.00  0.00     0.045 A 
HETATM    6  C   UNL     1     -44.161  57.903 -54.662  1.00  0.00     0.051 A 
HETATM    7  N   UNL     1     -44.132  57.156 -53.450  1.00  0.00    -0.350 N 
HETATM    8  C   UNL     1     -44.512  57.779 -52.271  1.00  0.00     0.113 C 
HETATM    9  C   UNL     1     -45.095  58.983 -52.161  1.00  0.00     0.099 C 
HETATM   10  C   UNL     1     -45.357  59.712 -53.427  1.00  0.00     0.201 C 
HETATM   11  O   UNL     1     -46.007  60.754 -53.447  1.00  0.00    -0.286 OA
HETATM   12  C   UNL     1     -43.588  57.434 -55.861  1.00  0.00     0.063 A 
ENDROOT
BRANCH   9  13
HETATM   13  C   UNL     1     -45.399  59.521 -50.799  1.00  0.00     0.275 C 
HETATM   14  N   UNL     1     -44.843  60.759 -50.564  1.00  0.00    -0.153 N 
HETATM   15  H   UNL     1     -44.344  61.222 -51.319  1.00  0.00     0.187 HD
HETATM   16  O   UNL     1     -46.087  58.858 -50.029  1.00  0.00    -0.267 OA
BRANCH  14  17
HETATM   17  C   UNL     1     -44.859  61.354 -49.328  1.00  0.00     0.708 A 
HETATM   18  N   UNL     1     -44.951  62.627 -49.028  1.00  0.00    -0.062 NA
HETATM   19  C   UNL     1     -44.986  62.689 -47.657  1.00  0.00     0.103 A 
HETATM   20  C   UNL     1     -44.891  61.419 -47.101  1.00  0.00     0.078 A 
HETATM   21  C   UNL     1     -45.102  63.799 -46.809  1.00  0.00     0.034 A 
HETATM   22  N   UNL     1     -44.812  60.588 -48.190  1.00  0.00    -0.187 N 
HETATM   23  C   UNL     1     -44.892  61.177 -45.727  1.00  0.00     0.032 A 
HETATM   24  H   UNL     1     -44.731  59.584 -48.159  1.00  0.00     0.184 HD
HETATM   25  C   UNL     1     -45.008  62.298 -44.896  1.00  0.00     0.002 A 
HETATM   26  C   UNL     1     -45.115  63.588 -45.424  1.00  0.00     0.002 A 
ENDBRANCH  14  17
ENDBRANCH   9  13
BRANCH   7  27
HETATM   27  C   UNL     1     -43.450  55.852 -53.347  1.00  0.00     0.090 A 
HETATM   28  C   UNL     1     -42.032  55.731 -52.843  1.00  0.00     0.028 A 
HETATM   29  C   UNL     1     -43.162  55.211 -52.012  1.00  0.00     0.028 A 
ENDBRANCH   7  27
BRANCH   1  30
HETATM   30  N   UNL     1     -42.952  57.664 -58.201  1.00  0.00    -0.375 N 
HETATM   31  C   UNL     1     -43.238  58.317 -59.497  1.00  0.00     0.150 C 
HETATM   32  C   UNL     1     -44.452  57.659 -60.187  1.00  0.00     0.254 C 
HETATM   33  N   UNL     1     -44.232  56.149 -60.354  1.00  0.00    -0.068 N 
HETATM   34  H   UNL     1     -43.397  56.023 -60.941  1.00  0.00     0.280 HD
HETATM   35  C   UNL     1     -43.910  55.499 -58.995  1.00  0.00     0.254 C 
HETATM   36  C   UNL     1     -42.714  56.211 -58.323  1.00  0.00     0.150 C 
BRANCH  33  37
HETATM   37  C   UNL     1     -45.390  55.450 -61.026  1.00  0.00     0.230 C 
HETATM   38  C   UNL     1     -46.710  56.082 -60.625  1.00  0.00     0.034 C 
ENDBRANCH  33  37
ENDBRANCH   1  30
TORSDOF 5
ENDMDL
MODEL 5
REMARK VINA RESULT:      -8.0      3.490     10.618
REMARK  5 active torsions:
REMARK  status: ('A' for Active; 'I' for Inactive)
REMARK    1  A    between atoms: C_2  and  N_3 
REMARK    2  A    between atoms: N_7  and  C_8 
REMARK    3  A    between atoms: N_14  and  C_15 
REMARK    4  A    between atoms: C_19  and  C_20 
REMARK       I    between atoms: C_20  and  N_21 
REMARK    5  A    between atoms: N_21  and  C_22 
ROOT
HETATM    1  C   UNL     1     -42.697  54.909 -53.584  1.00  0.00     0.071 A 
HETATM    2  C   UNL     1     -42.752  54.676 -54.974  1.00  0.00     0.143 A 
HETATM    3  F   UNL     1     -42.701  53.426 -55.461  1.00  0.00    -0.204 F 
HETATM    4  C   UNL     1     -42.799  55.708 -55.906  1.00  0.00     0.062 A 
HETATM    5  C   UNL     1     -42.788  57.030 -55.468  1.00  0.00     0.045 A 
HETATM    6  C   UNL     1     -42.761  57.336 -54.099  1.00  0.00     0.051 A 
HETATM    7  N   UNL     1     -42.746  58.699 -53.690  1.00  0.00    -0.350 N 
HETATM    8  C   UNL     1     -42.542  59.682 -54.646  1.00  0.00     0.113 C 
HETATM    9  C   UNL     1     -42.539  59.508 -55.976  1.00  0.00     0.099 C 
HETATM   10  C   UNL     1     -42.779  58.127 -56.465  1.00  0.00     0.201 C 
HETATM   11  O   UNL     1     -42.933  57.885 -57.660  1.00  0.00    -0.286 OA
HETATM   12  C   UNL     1     -42.736  56.264 -53.184  1.00  0.00     0.063 A 
ENDROOT
BRANCH   9  13
HETATM   13  C   UNL     1     -42.259  60.680 -56.862  1.00  0.00     0.275 C 
HETATM   14  N   UNL     1     -41.385  60.394 -57.887  1.00  0.00    -0.153 N 
HETATM   15  H   UNL     1     -41.060  59.437 -57.999  1.00  0.00     0.187 HD
HETATM   16  O   UNL     1     -42.799  61.756 -56.626  1.00  0.00    -0.267 OA
BRANCH  14  17
HETATM   17  C   UNL     1     -40.867  61.362 -58.709  1.00  0.00     0.708 A 
HETATM   18  N   UNL     1     -39.900  62.214 -58.471  1.00  0.00    -0.062 NA
HETATM   19  C   UNL     1     -39.725  62.922 -59.634  1.00  0.00     0.103 A 
HETATM   20  C   UNL     1     -40.626  62.504 -60.607  1.00  0.00     0.078 A 
HETATM   21  C   UNL     1     -38.810  63.938 -59.941  1.00  0.00     0.034 A 
HETATM   22  N   UNL     1     -41.341  61.510 -59.989  1.00  0.00    -0.187 N 
HETATM   23  C   UNL     1     -40.684  63.053 -61.888  1.00  0.00     0.032 A 
HETATM   24  H   UNL     1     -42.088  60.978 -60.405  1.00  0.00     0.184 HD
HETATM   25  C   UNL     1     -39.763  64.068 -62.176  1.00  0.00     0.002 A 
HETATM   26  C   UNL     1     -38.838  64.503 -61.223  1.00  0.00     0.002 A 
ENDBRANCH  14  17
ENDBRANCH   9  13
BRANCH   7  27
HETATM   27  C   UNL     1     -42.651  59.092 -52.270  1.00  0.00     0.090 A 
HETATM   28  C   UNL     1     -41.323  59.201 -51.560  1.00  0.00     0.028 A 
HETATM   29  C   UNL     1     -42.111  60.438 -51.856  1.00  0.00     0.028 A 
ENDBRANCH   7  27
BRANCH   1  30
HETATM   30  N   UNL     1     -42.649  53.898 -52.611  1.00  0.00    -0.375 N 
HETATM   31  C   UNL     1     -43.597  53.986 -51.479  1.00  0.00     0.150 C 
HETATM   32  C   UNL     1     -42.973  54.763 -50.299  1.00  0.00     0.254 C 
HETATM   33  N   UNL     1     -41.643  54.127 -49.871  1.00  0.00    -0.068 N 
HETATM   34  H   UNL     1     -41.843  53.163 -49.575  1.00  0.00     0.280 HD
HETATM   35  C   UNL     1     -40.685  54.023 -51.073  1.00  0.00     0.254 C 
HETATM   36  C   UNL     1     -41.362  53.272 -52.243  1.00  0.00     0.150 C 
BRANCH  33  37
HETATM   37  C   UNL     1     -40.984  54.846 -48.717  1.00  0.00     0.230 C 
HETATM   38  C   UNL     1     -40.116  53.895 -47.914  1.00  0.00     0.034 C 
ENDBRANCH  33  37
ENDBRANCH   1  30
TORSDOF 5
ENDMDL
MODEL 6
REMARK VINA RESULT:      -8.0     16.787     19.837
REMARK  5 active torsions:
REMARK  status: ('A' for Active; 'I' for Inactive)
REMARK    1  A    between atoms: C_2  and  N_3 
REMARK    2  A    between atoms: N_7  and  C_8 
REMARK    3  A    between atoms: N_14  and  C_15 
REMARK    4  A    between atoms: C_19  and  C_20 
REMARK       I    between atoms: C_20  and  N_21 
REMARK    5  A    between atoms: N_21  and  C_22 
ROOT
HETATM    1  C   UNL     1     -36.743  41.216 -54.966  1.00  0.00     0.071 A 
HETATM    2  C   UNL     1     -37.330  41.061 -53.694  1.00  0.00     0.143 A 
HETATM    3  F   UNL     1     -38.623  41.360 -53.494  1.00  0.00    -0.204 F 
HETATM    4  C   UNL     1     -36.603  40.656 -52.577  1.00  0.00     0.062 A 
HETATM    5  C   UNL     1     -35.241  40.394 -52.703  1.00  0.00     0.045 A 
HETATM    6  C   UNL     1     -34.597  40.502 -53.944  1.00  0.00     0.051 A 
HETATM    7  N   UNL     1     -33.203  40.230 -54.032  1.00  0.00    -0.350 N 
HETATM    8  C   UNL     1     -32.477  40.076 -52.861  1.00  0.00     0.113 C 
HETATM    9  C   UNL     1     -32.981  39.969 -51.622  1.00  0.00     0.099 C 
HETATM   10  C   UNL     1     -34.459  40.019 -51.500  1.00  0.00     0.201 C 
HETATM   11  O   UNL     1     -35.025  39.793 -50.433  1.00  0.00    -0.286 OA
HETATM   12  C   UNL     1     -35.370  40.893 -55.056  1.00  0.00     0.063 A 
ENDROOT
BRANCH   9  13
HETATM   13  C   UNL     1     -32.042  39.850 -50.463  1.00  0.00     0.275 C 
HETATM   14  N   UNL     1     -32.629  39.320 -49.336  1.00  0.00    -0.153 N 
HETATM   15  H   UNL     1     -33.594  39.005 -49.390  1.00  0.00     0.187 HD
HETATM   16  O   UNL     1     -30.877  40.212 -50.592  1.00  0.00    -0.267 OA
BRANCH  14  17
HETATM   17  C   UNL     1     -31.995  39.281 -48.121  1.00  0.00     0.708 A 
HETATM   18  N   UNL     1     -32.022  38.342 -47.206  1.00  0.00    -0.062 NA
HETATM   19  C   UNL     1     -31.174  38.759 -46.211  1.00  0.00     0.103 A 
HETATM   20  C   UNL     1     -30.627  40.000 -46.515  1.00  0.00     0.078 A 
HETATM   21  C   UNL     1     -30.813  38.128 -45.013  1.00  0.00     0.034 A 
HETATM   22  N   UNL     1     -31.168  40.308 -47.737  1.00  0.00    -0.187 N 
HETATM   23  C   UNL     1     -29.735  40.674 -45.680  1.00  0.00     0.032 A 
HETATM   24  H   UNL     1     -30.989  41.148 -48.265  1.00  0.00     0.184 HD
HETATM   25  C   UNL     1     -29.386  40.029 -44.487  1.00  0.00     0.002 A 
HETATM   26  C   UNL     1     -29.912  38.776 -44.158  1.00  0.00     0.002 A 
ENDBRANCH  14  17
ENDBRANCH   9  13
BRANCH   7  27
HETATM   27  C   UNL     1     -32.449  40.389 -55.290  1.00  0.00     0.090 A 
HETATM   28  C   UNL     1     -31.245  39.537 -55.612  1.00  0.00     0.028 A 
HETATM   29  C   UNL     1     -32.512  39.354 -56.387  1.00  0.00     0.028 A 
ENDBRANCH   7  27
BRANCH   1  30
HETATM   30  N   UNL     1     -37.437  41.622 -56.117  1.00  0.00    -0.375 N 
HETATM   31  C   UNL     1     -38.566  40.781 -56.573  1.00  0.00     0.150 C 
HETATM   32  C   UNL     1     -38.084  39.716 -57.582  1.00  0.00     0.254 C 
HETATM   33  N   UNL     1     -37.358  40.374 -58.764  1.00  0.00    -0.068 N 
HETATM   34  H   UNL     1     -38.030  41.001 -59.227  1.00  0.00     0.280 HD
HETATM   35  C   UNL     1     -36.207  41.264 -58.260  1.00  0.00     0.254 C 
HETATM   36  C   UNL     1     -36.726  42.290 -57.226  1.00  0.00     0.150 C 
BRANCH  33  37
HETATM   37  C   UNL     1     -36.863  39.378 -59.786  1.00  0.00     0.230 C 
HETATM   38  C   UNL     1     -37.478  39.650 -61.147  1.00  0.00     0.034 C 
ENDBRANCH  33  37
ENDBRANCH   1  30
TORSDOF 5
ENDMDL
MODEL 7
REMARK VINA RESULT:      -7.9      1.940      3.609
REMARK  5 active torsions:
REMARK  status: ('A' for Active; 'I' for Inactive)
REMARK    1  A    between atoms: C_2  and  N_3 
REMARK    2  A    between atoms: N_7  and  C_8 
REMARK    3  A    between atoms: N_14  and  C_15 
REMARK    4  A    between atoms: C_19  and  C_20 
REMARK       I    between atoms: C_20  and  N_21 
REMARK    5  A    between atoms: N_21  and  C_22 
ROOT
HETATM    1  C   UNL     1     -44.224  59.675 -58.934  1.00  0.00     0.071 A 
HETATM    2  C   UNL     1     -44.382  58.368 -59.440  1.00  0.00     0.143 A 
HETATM    3  F   UNL     1     -45.058  58.151 -60.579  1.00  0.00    -0.204 F 
HETATM    4  C   UNL     1     -43.910  57.243 -58.770  1.00  0.00     0.062 A 
HETATM    5  C   UNL     1     -43.257  57.395 -57.549  1.00  0.00     0.045 A 
HETATM    6  C   UNL     1     -43.041  58.667 -57.000  1.00  0.00     0.051 A 
HETATM    7  N   UNL     1     -42.374  58.781 -55.748  1.00  0.00    -0.350 N 
HETATM    8  C   UNL     1     -42.147  57.633 -55.004  1.00  0.00     0.113 C 
HETATM    9  C   UNL     1     -42.324  56.370 -55.419  1.00  0.00     0.099 C 
HETATM   10  C   UNL     1     -42.808  56.190 -56.810  1.00  0.00     0.201 C 
HETATM   11  O   UNL     1     -42.871  55.079 -57.331  1.00  0.00    -0.286 OA
HETATM   12  C   UNL     1     -43.514  59.784 -57.717  1.00  0.00     0.063 A 
ENDROOT
BRANCH   9  13
HETATM   13  C   UNL     1     -42.068  55.248 -54.462  1.00  0.00     0.275 C 
HETATM   14  N   UNL     1     -40.961  54.496 -54.786  1.00  0.00    -0.153 N 
HETATM   15  H   UNL     1     -40.389  54.782 -55.576  1.00  0.00     0.187 HD
HETATM   16  O   UNL     1     -42.821  55.087 -53.507  1.00  0.00    -0.267 OA
BRANCH  14  17
HETATM   17  C   UNL     1     -40.647  53.327 -54.140  1.00  0.00     0.708 A 
HETATM   18  N   UNL     1     -40.467  52.130 -54.644  1.00  0.00    -0.062 NA
HETATM   19  C   UNL     1     -40.112  51.327 -53.589  1.00  0.00     0.103 A 
HETATM   20  C   UNL     1     -40.093  52.048 -52.402  1.00  0.00     0.078 A 
HETATM   21  C   UNL     1     -39.783  49.964 -53.566  1.00  0.00     0.034 A 
HETATM   22  N   UNL     1     -40.438  53.320 -52.783  1.00  0.00    -0.187 N 
HETATM   23  C   UNL     1     -39.774  51.487 -51.165  1.00  0.00     0.032 A 
HETATM   24  H   UNL     1     -40.525  54.115 -52.170  1.00  0.00     0.184 HD
HETATM   25  C   UNL     1     -39.449  50.126 -51.161  1.00  0.00     0.002 A 
HETATM   26  C   UNL     1     -39.450  49.375 -52.340  1.00  0.00     0.002 A 
ENDBRANCH  14  17
ENDBRANCH   9  13
BRANCH   7  27
HETATM   27  C   UNL     1     -42.173  60.082 -55.081  1.00  0.00     0.090 A 
HETATM   28  C   UNL     1     -43.239  60.708 -54.214  1.00  0.00     0.028 A 
HETATM   29  C   UNL     1     -41.984  60.186 -53.588  1.00  0.00     0.028 A 
ENDBRANCH   7  27
BRANCH   1  30
HETATM   30  N   UNL     1     -44.684  60.836 -59.576  1.00  0.00    -0.375 N 
HETATM   31  C   UNL     1     -44.501  60.932 -61.042  1.00  0.00     0.150 C 
HETATM   32  C   UNL     1     -43.158  61.614 -61.383  1.00  0.00     0.254 C 
HETATM   33  N   UNL     1     -43.060  62.991 -60.713  1.00  0.00    -0.068 N 
HETATM   34  H   UNL     1     -43.834  63.565 -61.073  1.00  0.00     0.280 HD
HETATM   35  C   UNL     1     -43.281  62.867 -59.194  1.00  0.00     0.254 C 
HETATM   36  C   UNL     1     -44.617  62.146 -58.897  1.00  0.00     0.150 C 
BRANCH  33  37
HETATM   37  C   UNL     1     -41.765  63.708 -61.012  1.00  0.00     0.230 C 
HETATM   38  C   UNL     1     -40.936  62.930 -62.017  1.00  0.00     0.034 C 
ENDBRANCH  33  37
ENDBRANCH   1  30
TORSDOF 5
ENDMDL
MODEL 8
REMARK VINA RESULT:      -7.7      2.357      3.532
REMARK  5 active torsions:
REMARK  status: ('A' for Active; 'I' for Inactive)
REMARK    1  A    between atoms: C_2  and  N_3 
REMARK    2  A    between atoms: N_7  and  C_8 
REMARK    3  A    between atoms: N_14  and  C_15 
REMARK    4  A    between atoms: C_19  and  C_20 
REMARK       I    between atoms: C_20  and  N_21 
REMARK    5  A    between atoms: N_21  and  C_22 
ROOT
HETATM    1  C   UNL     1     -44.059  59.652 -58.750  1.00  0.00     0.071 A 
HETATM    2  C   UNL     1     -44.150  58.334 -59.240  1.00  0.00     0.143 A 
HETATM    3  F   UNL     1     -44.772  58.076 -60.402  1.00  0.00    -0.204 F 
HETATM    4  C   UNL     1     -43.666  57.236 -58.534  1.00  0.00     0.062 A 
HETATM    5  C   UNL     1     -43.068  57.428 -57.291  1.00  0.00     0.045 A 
HETATM    6  C   UNL     1     -42.920  58.715 -56.754  1.00  0.00     0.051 A 
HETATM    7  N   UNL     1     -42.308  58.872 -55.479  1.00  0.00    -0.350 N 
HETATM    8  C   UNL     1     -42.070  57.744 -54.708  1.00  0.00     0.113 C 
HETATM    9  C   UNL     1     -42.185  56.469 -55.110  1.00  0.00     0.099 C 
HETATM   10  C   UNL     1     -42.606  56.251 -56.517  1.00  0.00     0.201 C 
HETATM   11  O   UNL     1     -42.608  55.131 -57.022  1.00  0.00    -0.286 OA
HETATM   12  C   UNL     1     -43.403  59.804 -57.508  1.00  0.00     0.063 A 
ENDROOT
BRANCH   9  13
HETATM   13  C   UNL     1     -41.928  55.371 -54.127  1.00  0.00     0.275 C 
HETATM   14  N   UNL     1     -40.769  54.672 -54.379  1.00  0.00    -0.153 N 
HETATM   15  H   UNL     1     -40.169  54.978 -55.141  1.00  0.00     0.187 HD
HETATM   16  O   UNL     1     -42.724  55.183 -53.212  1.00  0.00    -0.267 OA
BRANCH  14  17
HETATM   17  C   UNL     1     -40.434  53.527 -53.702  1.00  0.00     0.708 A 
HETATM   18  N   UNL     1     -40.262  53.351 -52.414  1.00  0.00    -0.062 NA
HETATM   19  C   UNL     1     -40.000  52.014 -52.248  1.00  0.00     0.103 A 
HETATM   20  C   UNL     1     -39.992  51.355 -53.471  1.00  0.00     0.078 A 
HETATM   21  C   UNL     1     -39.763  51.282 -51.076  1.00  0.00     0.034 A 
HETATM   22  N   UNL     1     -40.271  52.343 -54.380  1.00  0.00    -0.187 N 
HETATM   23  C   UNL     1     -39.744  49.989 -53.608  1.00  0.00     0.032 A 
HETATM   24  H   UNL     1     -40.343  52.222 -55.377  1.00  0.00     0.184 HD
HETATM   25  C   UNL     1     -39.509  49.274 -52.428  1.00  0.00     0.002 A 
HETATM   26  C   UNL     1     -39.520  49.906 -51.181  1.00  0.00     0.002 A 
ENDBRANCH  14  17
ENDBRANCH   9  13
BRANCH   7  27
HETATM   27  C   UNL     1     -42.180  60.188 -54.825  1.00  0.00     0.090 A 
HETATM   28  C   UNL     1     -43.295  60.780 -53.997  1.00  0.00     0.028 A 
HETATM   29  C   UNL     1     -42.038  60.320 -53.329  1.00  0.00     0.028 A 
ENDBRANCH   7  27
BRANCH   1  30
HETATM   30  N   UNL     1     -44.534  60.786 -59.428  1.00  0.00    -0.375 N 
HETATM   31  C   UNL     1     -44.694  62.036 -58.652  1.00  0.00     0.150 C 
HETATM   32  C   UNL     1     -46.119  62.138 -58.065  1.00  0.00     0.254 C 
HETATM   33  N   UNL     1     -47.175  62.024 -59.173  1.00  0.00    -0.068 N 
HETATM   34  H   UNL     1     -47.020  62.802 -59.828  1.00  0.00     0.280 HD
HETATM   35  C   UNL     1     -46.968  60.729 -59.982  1.00  0.00     0.254 C 
HETATM   36  C   UNL     1     -45.520  60.650 -60.519  1.00  0.00     0.150 C 
BRANCH  33  37
HETATM   37  C   UNL     1     -48.591  62.117 -58.658  1.00  0.00     0.230 C 
HETATM   38  C   UNL     1     -49.040  60.794 -58.066  1.00  0.00     0.034 C 
ENDBRANCH  33  37
ENDBRANCH   1  30
TORSDOF 5
ENDMDL
MODEL 9
REMARK VINA RESULT:      -7.6      5.220      6.637
REMARK  5 active torsions:
REMARK  status: ('A' for Active; 'I' for Inactive)
REMARK    1  A    between atoms: C_2  and  N_3 
REMARK    2  A    between atoms: N_7  and  C_8 
REMARK    3  A    between atoms: N_14  and  C_15 
REMARK    4  A    between atoms: C_19  and  C_20 
REMARK       I    between atoms: C_20  and  N_21 
REMARK    5  A    between atoms: N_21  and  C_22 
ROOT
HETATM    1  C   UNL     1     -44.503  61.562 -52.461  1.00  0.00     0.071 A 
HETATM    2  C   UNL     1     -45.173  60.854 -53.480  1.00  0.00     0.143 A 
HETATM    3  F   UNL     1     -46.380  61.253 -53.912  1.00  0.00    -0.204 F 
HETATM    4  C   UNL     1     -44.662  59.689 -54.043  1.00  0.00     0.062 A 
HETATM    5  C   UNL     1     -43.444  59.185 -53.593  1.00  0.00     0.045 A 
HETATM    6  C   UNL     1     -42.711  59.851 -52.601  1.00  0.00     0.051 A 
HETATM    7  N   UNL     1     -41.473  59.303 -52.163  1.00  0.00    -0.350 N 
HETATM    8  C   UNL     1     -41.128  58.022 -52.568  1.00  0.00     0.113 C 
HETATM    9  C   UNL     1     -41.756  57.288 -53.499  1.00  0.00     0.099 C 
HETATM   10  C   UNL     1     -42.932  57.912 -54.155  1.00  0.00     0.201 C 
HETATM   11  O   UNL     1     -43.491  57.382 -55.112  1.00  0.00    -0.286 OA
HETATM   12  C   UNL     1     -43.249  61.040 -52.069  1.00  0.00     0.063 A 
ENDROOT
BRANCH   9  13
HETATM   13  C   UNL     1     -41.269  55.901 -53.780  1.00  0.00     0.275 C 
HETATM   14  N   UNL     1     -41.402  55.048 -52.708  1.00  0.00    -0.153 N 
HETATM   15  H   UNL     1     -41.857  55.388 -51.865  1.00  0.00     0.187 HD
HETATM   16  O   UNL     1     -40.812  55.636 -54.888  1.00  0.00    -0.267 OA
BRANCH  14  17
HETATM   17  C   UNL     1     -40.867  53.785 -52.698  1.00  0.00     0.708 A 
HETATM   18  N   UNL     1     -40.376  53.105 -51.690  1.00  0.00    -0.062 NA
HETATM   19  C   UNL     1     -40.031  51.877 -52.195  1.00  0.00     0.103 A 
HETATM   20  C   UNL     1     -40.299  51.809 -53.557  1.00  0.00     0.078 A 
HETATM   21  C   UNL     1     -39.484  50.759 -51.549  1.00  0.00     0.034 A 
HETATM   22  N   UNL     1     -40.831  53.038 -53.850  1.00  0.00    -0.187 N 
HETATM   23  C   UNL     1     -40.041  50.681 -54.338  1.00  0.00     0.032 A 
HETATM   24  H   UNL     1     -41.142  53.343 -54.759  1.00  0.00     0.184 HD
HETATM   25  C   UNL     1     -39.494  49.575 -53.676  1.00  0.00     0.002 A 
HETATM   26  C   UNL     1     -39.222  49.608 -52.305  1.00  0.00     0.002 A 
ENDBRANCH  14  17
ENDBRANCH   9  13
BRANCH   7  27
HETATM   27  C   UNL     1     -40.682  59.915 -51.078  1.00  0.00     0.090 A 
HETATM   28  C   UNL     1     -40.604  59.298 -49.702  1.00  0.00     0.028 A 
HETATM   29  C   UNL     1     -39.397  59.296 -50.587  1.00  0.00     0.028 A 
ENDBRANCH   7  27
BRANCH   1  30
HETATM   30  N   UNL     1     -44.982  62.740 -51.865  1.00  0.00    -0.375 N 
HETATM   31  C   UNL     1     -45.995  62.608 -50.795  1.00  0.00     0.150 C 
HETATM   32  C   UNL     1     -47.423  62.660 -51.384  1.00  0.00     0.254 C 
HETATM   33  N   UNL     1     -47.629  63.942 -52.200  1.00  0.00    -0.068 N 
HETATM   34  H   UNL     1     -47.495  64.739 -51.563  1.00  0.00     0.280 HD
HETATM   35  C   UNL     1     -46.546  64.069 -53.288  1.00  0.00     0.254 C 
HETATM   36  C   UNL     1     -45.135  63.975 -52.662  1.00  0.00     0.150 C 
BRANCH  33  37
HETATM   37  C   UNL     1     -49.011  64.049 -52.801  1.00  0.00     0.230 C 
HETATM   38  C   UNL     1     -48.992  63.672 -54.271  1.00  0.00     0.034 C 
ENDBRANCH  33  37
ENDBRANCH   1  30
TORSDOF 5
ENDMDL
MODEL 10
REMARK VINA RESULT:      -7.5      3.445     10.220
REMARK  5 active torsions:
REMARK  status: ('A' for Active; 'I' for Inactive)
REMARK    1  A    between atoms: C_2  and  N_3 
REMARK    2  A    between atoms: N_7  and  C_8 
REMARK    3  A    between atoms: N_14  and  C_15 
REMARK    4  A    between atoms: C_19  and  C_20 
REMARK       I    between atoms: C_20  and  N_21 
REMARK    5  A    between atoms: N_21  and  C_22 
ROOT
HETATM    1  C   UNL     1     -43.392  56.397 -51.901  1.00  0.00     0.071 A 
HETATM    2  C   UNL     1     -44.270  57.495 -52.007  1.00  0.00     0.143 A 
HETATM    3  F   UNL     1     -44.867  58.003 -50.917  1.00  0.00    -0.204 F 
HETATM    4  C   UNL     1     -44.612  58.066 -53.229  1.00  0.00     0.062 A 
HETATM    5  C   UNL     1     -44.078  57.544 -54.405  1.00  0.00     0.045 A 
HETATM    6  C   UNL     1     -43.178  56.469 -54.372  1.00  0.00     0.051 A 
HETATM    7  N   UNL     1     -42.657  55.959 -55.594  1.00  0.00    -0.350 N 
HETATM    8  C   UNL     1     -43.212  56.390 -56.789  1.00  0.00     0.113 C 
HETATM    9  C   UNL     1     -44.084  57.398 -56.942  1.00  0.00     0.099 C 
HETATM   10  C   UNL     1     -44.490  58.118 -55.709  1.00  0.00     0.201 C 
HETATM   11  O   UNL     1     -45.173  59.138 -55.754  1.00  0.00    -0.286 OA
HETATM   12  C   UNL     1     -42.838  55.931 -53.114  1.00  0.00     0.063 A 
ENDROOT
BRANCH   9  13
HETATM   13  C   UNL     1     -44.615  57.700 -58.308  1.00  0.00     0.275 C 
HETATM   14  N   UNL     1     -45.979  57.545 -58.410  1.00  0.00    -0.153 N 
HETATM   15  H   UNL     1     -46.509  57.310 -57.575  1.00  0.00     0.187 HD
HETATM   16  O   UNL     1     -43.839  58.047 -59.193  1.00  0.00    -0.267 OA
BRANCH  14  17
HETATM   17  C   UNL     1     -46.642  57.608 -59.610  1.00  0.00     0.708 A 
HETATM   18  N   UNL     1     -47.154  56.633 -60.321  1.00  0.00    -0.062 NA
HETATM   19  C   UNL     1     -47.760  57.229 -61.398  1.00  0.00     0.103 A 
HETATM   20  C   UNL     1     -47.596  58.609 -61.357  1.00  0.00     0.078 A 
HETATM   21  C   UNL     1     -48.477  56.657 -62.458  1.00  0.00     0.034 A 
HETATM   22  N   UNL     1     -46.880  58.821 -60.207  1.00  0.00    -0.187 N 
HETATM   23  C   UNL     1     -48.100  59.473 -62.329  1.00  0.00     0.032 A 
HETATM   24  H   UNL     1     -46.579  59.717 -59.859  1.00  0.00     0.184 HD
HETATM   25  C   UNL     1     -48.813  58.885 -63.380  1.00  0.00     0.002 A 
HETATM   26  C   UNL     1     -49.003  57.501 -63.445  1.00  0.00     0.002 A 
ENDBRANCH  14  17
ENDBRANCH   9  13
BRANCH   7  27
HETATM   27  C   UNL     1     -41.758  54.789 -55.638  1.00  0.00     0.090 A 
HETATM   28  C   UNL     1     -40.382  54.817 -55.017  1.00  0.00     0.028 A 
HETATM   29  C   UNL     1     -41.457  53.975 -54.405  1.00  0.00     0.028 A 
ENDBRANCH   7  27
BRANCH   1  30
HETATM   30  N   UNL     1     -43.021  55.791 -50.690  1.00  0.00    -0.375 N 
HETATM   31  C   UNL     1     -41.822  56.313 -49.997  1.00  0.00     0.150 C 
HETATM   32  C   UNL     1     -40.556  55.548 -50.442  1.00  0.00     0.254 C 
HETATM   33  N   UNL     1     -40.723  54.040 -50.219  1.00  0.00    -0.068 N 
HETATM   34  H   UNL     1     -40.874  53.892 -49.211  1.00  0.00     0.280 HD
HETATM   35  C   UNL     1     -41.992  53.528 -50.926  1.00  0.00     0.254 C 
HETATM   36  C   UNL     1     -43.228  54.343 -50.481  1.00  0.00     0.150 C 
BRANCH  33  37
HETATM   37  C   UNL     1     -39.513  53.238 -50.636  1.00  0.00     0.230 C 
HETATM   38  C   UNL     1     -39.904  52.125 -51.589  1.00  0.00     0.034 C 
ENDBRANCH  33  37
ENDBRANCH   1  30
TORSDOF 5
ENDMDL
