MODEL 1
REMARK VINA RESULT:      -8.9      0.000      0.000
REMARK  9 active torsions:
REMARK  status: ('A' for Active; 'I' for Inactive)
REMARK    1  A    between atoms: C_3  and  N_4 
REMARK       I    between atoms: N_4  and  C_5 
REMARK    2  A    between atoms: C_5  and  C_6 
REMARK    3  A    between atoms: C_6  and  S_7 
REMARK    4  A    between atoms: S_7  and  C_8 
REMARK    5  A    between atoms: N_9  and  C_10 
REMARK    6  A    between atoms: C_10  and  C_11 
REMARK       I    between atoms: C_11  and  N_12 
REMARK    7  A    between atoms: N_12  and  C_13 
REMARK    8  A    between atoms: C_15  and  O_16 
REMARK    9  A    between atoms: C_21  and  C_22 
ROOT
HETATM    1  C   UNL     1     -41.845  58.902 -53.219  1.00  0.00     0.169 A 
HETATM    2  N   UNL     1     -41.971  58.678 -54.568  1.00  0.00    -0.315 N 
HETATM    3  C   UNL     1     -42.401  59.865 -55.140  1.00  0.00     0.065 A 
HETATM    4  C   UNL     1     -42.462  60.749 -54.077  1.00  0.00     0.150 A 
HETATM    5  N   UNL     1     -42.120  60.141 -52.902  1.00  0.00    -0.234 NA
ENDROOT
BRANCH   1   6
HETATM    6  S   UNL     1     -41.355  57.705 -52.072  1.00  0.00    -0.083 SA
BRANCH   6   7
HETATM    7  C   UNL     1     -42.827  56.627 -52.045  1.00  0.00     0.185 C 
BRANCH   7   8
HETATM    8  C   UNL     1     -42.507  55.146 -52.211  1.00  0.00     0.231 C 
HETATM    9  N   UNL     1     -41.168  54.856 -52.397  1.00  0.00    -0.326 N 
HETATM   10  H   UNL     1     -40.609  55.636 -52.722  1.00  0.00     0.169 HD
HETATM   11  O   UNL     1     -43.409  54.313 -52.142  1.00  0.00    -0.272 OA
BRANCH   9  12
HETATM   12  C   UNL     1     -40.620  53.568 -52.575  1.00  0.00     0.046 A 
HETATM   13  C   UNL     1     -40.417  53.117 -53.900  1.00  0.00    -0.035 A 
HETATM   14  C   UNL     1     -40.836  53.931 -55.096  1.00  0.00     0.050 C 
HETATM   15  C   UNL     1     -39.855  51.849 -54.122  1.00  0.00     0.009 A 
HETATM   16  C   UNL     1     -39.492  51.039 -53.053  1.00  0.00     0.001 A 
HETATM   17  C   UNL     1     -39.665  51.493 -51.749  1.00  0.00     0.009 A 
HETATM   18  C   UNL     1     -40.204  52.767 -51.491  1.00  0.00    -0.035 A 
HETATM   19  C   UNL     1     -40.247  53.214 -50.054  1.00  0.00     0.050 C 
ENDBRANCH   9  12
ENDBRANCH   7   8
ENDBRANCH   6   7
ENDBRANCH   1   6
BRANCH   2  20
HETATM   20  C   UNL     1     -41.666  57.442 -55.268  1.00  0.00     0.234 C 
BRANCH  20  21
HETATM   21  C   UNL     1     -42.771  56.898 -56.164  1.00  0.00     0.240 C 
HETATM   22  N   UNL     1     -42.425  56.619 -57.475  1.00  0.00    -0.326 N 
HETATM   23  H   UNL     1     -41.491  56.857 -57.783  1.00  0.00     0.169 HD
HETATM   24  O   UNL     1     -43.876  56.684 -55.663  1.00  0.00    -0.271 OA
BRANCH  22  25
HETATM   25  C   UNL     1     -43.244  56.056 -58.479  1.00  0.00     0.037 A 
HETATM   26  C   UNL     1     -43.765  54.760 -58.434  1.00  0.00     0.066 A 
HETATM   27  C   UNL     1     -44.556  54.293 -59.483  1.00  0.00     0.067 A 
HETATM   28  C   UNL     1     -44.840  55.093 -60.582  1.00  0.00     0.036 A 
HETATM   29  C   UNL     1     -44.327  56.386 -60.636  1.00  0.00     0.005 A 
HETATM   30  C   UNL     1     -43.533  56.864 -59.589  1.00  0.00     0.029 A 
BRANCH  27  31
HETATM   31  O   UNL     1     -45.079  53.032 -59.467  1.00  0.00    -0.361 OA
HETATM   32  H   UNL     1     -44.940  52.629 -60.340  1.00  0.00     0.217 HD
ENDBRANCH  27  31
ENDBRANCH  22  25
ENDBRANCH  20  21
ENDBRANCH   2  20
BRANCH   3  33
HETATM   33  C   UNL     1     -42.666  60.111 -56.553  1.00  0.00    -0.008 A 
HETATM   34  C   UNL     1     -41.620  60.268 -57.472  1.00  0.00     0.017 A 
HETATM   35  C   UNL     1     -41.897  60.476 -58.826  1.00  0.00     0.043 A 
HETATM   36  C   UNL     1     -43.216  60.516 -59.259  1.00  0.00     0.116 A 
HETATM   37  F   UNL     1     -43.479  60.707 -60.557  1.00  0.00    -0.206 F 
HETATM   38  C   UNL     1     -44.267  60.351 -58.365  1.00  0.00     0.043 A 
HETATM   39  C   UNL     1     -43.991  60.146 -57.011  1.00  0.00     0.017 A 
ENDBRANCH   3  33
TORSDOF 9
ENDMDL
MODEL 2
REMARK VINA RESULT:      -8.7      2.773      7.208
REMARK  9 active torsions:
REMARK  status: ('A' for Active; 'I' for Inactive)
REMARK    1  A    between atoms: C_3  and  N_4 
REMARK       I    between atoms: N_4  and  C_5 
REMARK    2  A    between atoms: C_5  and  C_6 
REMARK    3  A    between atoms: C_6  and  S_7 
REMARK    4  A    between atoms: S_7  and  C_8 
REMARK    5  A    between atoms: N_9  and  C_10 
REMARK    6  A    between atoms: C_10  and  C_11 
REMARK       I    between atoms: C_11  and  N_12 
REMARK    7  A    between atoms: N_12  and  C_13 
REMARK    8  A    between atoms: C_15  and  O_16 
REMARK    9  A    between atoms: C_21  and  C_22 
ROOT
HETATM    1  C   UNL     1     -42.579  56.771 -52.212  1.00  0.00     0.169 A 
HETATM    2  N   UNL     1     -41.866  55.906 -53.006  1.00  0.00    -0.315 N 
HETATM    3  C   UNL     1     -41.776  54.704 -52.321  1.00  0.00     0.065 A 
HETATM    4  C   UNL     1     -42.494  54.924 -51.159  1.00  0.00     0.150 A 
HETATM    5  N   UNL     1     -42.979  56.200 -51.105  1.00  0.00    -0.234 NA
ENDROOT
BRANCH   1   6
HETATM    6  S   UNL     1     -42.935  58.410 -52.629  1.00  0.00    -0.083 SA
BRANCH   6   7
HETATM    7  C   UNL     1     -44.668  58.260 -53.178  1.00  0.00     0.185 C 
BRANCH   7   8
HETATM    8  C   UNL     1     -45.017  59.151 -54.364  1.00  0.00     0.231 C 
HETATM    9  N   UNL     1     -44.597  58.678 -55.593  1.00  0.00    -0.326 N 
HETATM   10  H   UNL     1     -43.851  57.995 -55.548  1.00  0.00     0.169 HD
HETATM   11  O   UNL     1     -45.656  60.187 -54.185  1.00  0.00    -0.272 OA
BRANCH   9  12
HETATM   12  C   UNL     1     -44.796  59.316 -56.835  1.00  0.00     0.046 A 
HETATM   13  C   UNL     1     -43.801  60.220 -57.277  1.00  0.00    -0.035 A 
HETATM   14  C   UNL     1     -42.601  60.564 -56.435  1.00  0.00     0.050 C 
HETATM   15  C   UNL     1     -43.950  60.862 -58.518  1.00  0.00     0.009 A 
HETATM   16  C   UNL     1     -45.061  60.613 -59.314  1.00  0.00     0.001 A 
HETATM   17  C   UNL     1     -46.027  59.704 -58.893  1.00  0.00     0.009 A 
HETATM   18  C   UNL     1     -45.898  59.026 -57.667  1.00  0.00    -0.035 A 
HETATM   19  C   UNL     1     -46.933  57.981 -57.351  1.00  0.00     0.050 C 
ENDBRANCH   9  12
ENDBRANCH   7   8
ENDBRANCH   6   7
ENDBRANCH   1   6
BRANCH   2  20
HETATM   20  C   UNL     1     -41.344  56.185 -54.333  1.00  0.00     0.234 C 
BRANCH  20  21
HETATM   21  C   UNL     1     -42.365  56.176 -55.462  1.00  0.00     0.240 C 
HETATM   22  N   UNL     1     -41.929  56.628 -56.695  1.00  0.00    -0.326 N 
HETATM   23  H   UNL     1     -40.991  57.004 -56.762  1.00  0.00     0.169 HD
HETATM   24  O   UNL     1     -43.484  55.716 -55.232  1.00  0.00    -0.271 OA
BRANCH  22  25
HETATM   25  C   UNL     1     -42.658  56.662 -57.906  1.00  0.00     0.037 A 
HETATM   26  C   UNL     1     -43.785  55.879 -58.168  1.00  0.00     0.066 A 
HETATM   27  C   UNL     1     -44.429  55.979 -59.401  1.00  0.00     0.067 A 
HETATM   28  C   UNL     1     -43.970  56.847 -60.383  1.00  0.00     0.036 A 
HETATM   29  C   UNL     1     -42.849  57.631 -60.132  1.00  0.00     0.005 A 
HETATM   30  C   UNL     1     -42.196  57.539 -58.899  1.00  0.00     0.029 A 
BRANCH  27  31
HETATM   31  O   UNL     1     -45.533  55.228 -59.684  1.00  0.00    -0.361 OA
HETATM   32  H   UNL     1     -45.346  54.304 -59.449  1.00  0.00     0.217 HD
ENDBRANCH  27  31
ENDBRANCH  22  25
ENDBRANCH  20  21
ENDBRANCH   2  20
BRANCH   3  33
HETATM   33  C   UNL     1     -41.115  53.485 -52.773  1.00  0.00    -0.008 A 
HETATM   34  C   UNL     1     -41.412  52.917 -54.020  1.00  0.00     0.017 A 
HETATM   35  C   UNL     1     -40.747  51.764 -54.445  1.00  0.00     0.043 A 
HETATM   36  C   UNL     1     -39.781  51.188 -53.630  1.00  0.00     0.116 A 
HETATM   37  F   UNL     1     -39.140  50.088 -54.042  1.00  0.00    -0.206 F 
HETATM   38  C   UNL     1     -39.465  51.742 -52.396  1.00  0.00     0.043 A 
HETATM   39  C   UNL     1     -40.130  52.893 -51.969  1.00  0.00     0.017 A 
ENDBRANCH   3  33
TORSDOF 9
ENDMDL
MODEL 3
REMARK VINA RESULT:      -8.7      3.696      8.913
REMARK  9 active torsions:
REMARK  status: ('A' for Active; 'I' for Inactive)
REMARK    1  A    between atoms: C_3  and  N_4 
REMARK       I    between atoms: N_4  and  C_5 
REMARK    2  A    between atoms: C_5  and  C_6 
REMARK    3  A    between atoms: C_6  and  S_7 
REMARK    4  A    between atoms: S_7  and  C_8 
REMARK    5  A    between atoms: N_9  and  C_10 
REMARK    6  A    between atoms: C_10  and  C_11 
REMARK       I    between atoms: C_11  and  N_12 
REMARK    7  A    between atoms: N_12  and  C_13 
REMARK    8  A    between atoms: C_15  and  O_16 
REMARK    9  A    between atoms: C_21  and  C_22 
ROOT
HETATM    1  C   UNL     1     -43.955  57.346 -55.078  1.00  0.00     0.169 A 
HETATM    2  N   UNL     1     -42.996  56.733 -54.310  1.00  0.00    -0.315 N 
HETATM    3  C   UNL     1     -43.427  56.794 -52.994  1.00  0.00     0.065 A 
HETATM    4  C   UNL     1     -44.662  57.413 -53.073  1.00  0.00     0.150 A 
HETATM    5  N   UNL     1     -44.971  57.750 -54.360  1.00  0.00    -0.234 NA
ENDROOT
BRANCH   1   6
HETATM    6  S   UNL     1     -43.854  57.541 -56.793  1.00  0.00    -0.083 SA
BRANCH   6   7
HETATM    7  C   UNL     1     -45.111  58.834 -57.069  1.00  0.00     0.185 C 
BRANCH   7   8
HETATM    8  C   UNL     1     -46.277  58.383 -57.941  1.00  0.00     0.231 C 
HETATM    9  N   UNL     1     -46.068  58.504 -59.302  1.00  0.00    -0.326 N 
HETATM   10  H   UNL     1     -45.337  59.156 -59.560  1.00  0.00     0.169 HD
HETATM   11  O   UNL     1     -47.290  57.920 -57.418  1.00  0.00    -0.272 OA
BRANCH   9  12
HETATM   12  C   UNL     1     -46.990  58.157 -60.312  1.00  0.00     0.046 A 
HETATM   13  C   UNL     1     -47.796  59.188 -60.850  1.00  0.00    -0.035 A 
HETATM   14  C   UNL     1     -47.746  60.599 -60.326  1.00  0.00     0.050 C 
HETATM   15  C   UNL     1     -48.713  58.889 -61.872  1.00  0.00     0.009 A 
HETATM   16  C   UNL     1     -48.830  57.594 -62.361  1.00  0.00     0.001 A 
HETATM   17  C   UNL     1     -48.018  56.585 -61.852  1.00  0.00     0.009 A 
HETATM   18  C   UNL     1     -47.073  56.853 -60.844  1.00  0.00    -0.035 A 
HETATM   19  C   UNL     1     -46.165  55.724 -60.439  1.00  0.00     0.050 C 
ENDBRANCH   9  12
ENDBRANCH   7   8
ENDBRANCH   6   7
ENDBRANCH   1   6
BRANCH   2  20
HETATM   20  C   UNL     1     -41.780  56.100 -54.792  1.00  0.00     0.234 C 
BRANCH  20  21
HETATM   21  C   UNL     1     -41.683  54.597 -54.570  1.00  0.00     0.240 C 
HETATM   22  N   UNL     1     -40.559  54.141 -53.903  1.00  0.00    -0.326 N 
HETATM   23  H   UNL     1     -39.838  54.811 -53.668  1.00  0.00     0.169 HD
HETATM   24  O   UNL     1     -42.623  53.891 -54.935  1.00  0.00    -0.271 OA
BRANCH  22  25
HETATM   25  C   UNL     1     -40.264  52.811 -53.523  1.00  0.00     0.037 A 
HETATM   26  C   UNL     1     -40.245  51.727 -54.405  1.00  0.00     0.066 A 
HETATM   27  C   UNL     1     -39.952  50.450 -53.928  1.00  0.00     0.067 A 
HETATM   28  C   UNL     1     -39.676  50.229 -52.585  1.00  0.00     0.036 A 
HETATM   29  C   UNL     1     -39.691  51.302 -51.699  1.00  0.00     0.005 A 
HETATM   30  C   UNL     1     -39.984  52.587 -52.167  1.00  0.00     0.029 A 
BRANCH  27  31
HETATM   31  O   UNL     1     -39.925  49.372 -54.765  1.00  0.00    -0.361 OA
HETATM   32  H   UNL     1     -39.023  49.271 -55.110  1.00  0.00     0.217 HD
ENDBRANCH  27  31
ENDBRANCH  22  25
ENDBRANCH  20  21
ENDBRANCH   2  20
BRANCH   3  33
HETATM   33  C   UNL     1     -42.740  56.265 -51.822  1.00  0.00    -0.008 A 
HETATM   34  C   UNL     1     -43.120  55.046 -51.244  1.00  0.00     0.017 A 
HETATM   35  C   UNL     1     -42.430  54.545 -50.138  1.00  0.00     0.043 A 
HETATM   36  C   UNL     1     -41.357  55.257 -49.616  1.00  0.00     0.116 A 
HETATM   37  F   UNL     1     -40.692  54.771 -48.561  1.00  0.00    -0.206 F 
HETATM   38  C   UNL     1     -40.958  56.462 -50.181  1.00  0.00     0.043 A 
HETATM   39  C   UNL     1     -41.649  56.965 -51.286  1.00  0.00     0.017 A 
ENDBRANCH   3  33
TORSDOF 9
ENDMDL
MODEL 4
REMARK VINA RESULT:      -8.5      4.134      7.665
REMARK  9 active torsions:
REMARK  status: ('A' for Active; 'I' for Inactive)
REMARK    1  A    between atoms: C_3  and  N_4 
REMARK       I    between atoms: N_4  and  C_5 
REMARK    2  A    between atoms: C_5  and  C_6 
REMARK    3  A    between atoms: C_6  and  S_7 
REMARK    4  A    between atoms: S_7  and  C_8 
REMARK    5  A    between atoms: N_9  and  C_10 
REMARK    6  A    between atoms: C_10  and  C_11 
REMARK       I    between atoms: C_11  and  N_12 
REMARK    7  A    between atoms: N_12  and  C_13 
REMARK    8  A    between atoms: C_15  and  O_16 
REMARK    9  A    between atoms: C_21  and  C_22 
ROOT
HETATM    1  C   UNL     1     -42.992  56.722 -51.726  1.00  0.00     0.169 A 
HETATM    2  N   UNL     1     -42.201  56.007 -52.592  1.00  0.00    -0.315 N 
HETATM    3  C   UNL     1     -42.018  54.751 -52.035  1.00  0.00     0.065 A 
HETATM    4  C   UNL     1     -42.764  54.788 -50.870  1.00  0.00     0.150 A 
HETATM    5  N   UNL     1     -43.353  56.007 -50.692  1.00  0.00    -0.234 NA
ENDROOT
BRANCH   1   6
HETATM    6  S   UNL     1     -43.478  58.362 -51.976  1.00  0.00    -0.083 SA
BRANCH   6   7
HETATM    7  C   UNL     1     -45.055  58.400 -51.059  1.00  0.00     0.185 C 
BRANCH   7   8
HETATM    8  C   UNL     1     -45.382  59.760 -50.454  1.00  0.00     0.231 C 
HETATM    9  N   UNL     1     -44.413  60.270 -49.609  1.00  0.00    -0.326 N 
HETATM   10  H   UNL     1     -43.774  59.579 -49.235  1.00  0.00     0.169 HD
HETATM   11  O   UNL     1     -46.428  60.331 -50.757  1.00  0.00    -0.272 OA
BRANCH   9  12
HETATM   12  C   UNL     1     -44.479  61.504 -48.928  1.00  0.00     0.046 A 
HETATM   13  C   UNL     1     -43.949  62.643 -49.579  1.00  0.00    -0.035 A 
HETATM   14  C   UNL     1     -43.264  62.555 -50.917  1.00  0.00     0.050 C 
HETATM   15  C   UNL     1     -44.013  63.895 -48.945  1.00  0.00     0.009 A 
HETATM   16  C   UNL     1     -44.595  64.024 -47.689  1.00  0.00     0.001 A 
HETATM   17  C   UNL     1     -45.141  62.909 -47.061  1.00  0.00     0.009 A 
HETATM   18  C   UNL     1     -45.116  61.644 -47.677  1.00  0.00    -0.035 A 
HETATM   19  C   UNL     1     -45.831  60.524 -46.971  1.00  0.00     0.050 C 
ENDBRANCH   9  12
ENDBRANCH   7   8
ENDBRANCH   6   7
ENDBRANCH   1   6
BRANCH   2  20
HETATM   20  C   UNL     1     -41.692  56.467 -53.873  1.00  0.00     0.234 C 
BRANCH  20  21
HETATM   21  C   UNL     1     -42.649  56.345 -55.050  1.00  0.00     0.240 C 
HETATM   22  N   UNL     1     -42.110  56.532 -56.310  1.00  0.00    -0.326 N 
HETATM   23  H   UNL     1     -41.138  56.809 -56.378  1.00  0.00     0.169 HD
HETATM   24  O   UNL     1     -43.818  56.031 -54.821  1.00  0.00    -0.271 OA
BRANCH  22  25
HETATM   25  C   UNL     1     -42.769  56.414 -57.555  1.00  0.00     0.037 A 
HETATM   26  C   UNL     1     -43.289  55.219 -58.059  1.00  0.00     0.066 A 
HETATM   27  C   UNL     1     -43.914  55.205 -59.305  1.00  0.00     0.067 A 
HETATM   28  C   UNL     1     -44.031  56.362 -60.064  1.00  0.00     0.036 A 
HETATM   29  C   UNL     1     -43.517  57.557 -59.571  1.00  0.00     0.005 A 
HETATM   30  C   UNL     1     -42.889  57.582 -58.323  1.00  0.00     0.029 A 
BRANCH  27  31
HETATM   31  O   UNL     1     -44.433  54.053 -59.823  1.00  0.00    -0.361 OA
HETATM   32  H   UNL     1     -43.835  53.319 -59.603  1.00  0.00     0.217 HD
ENDBRANCH  27  31
ENDBRANCH  22  25
ENDBRANCH  20  21
ENDBRANCH   2  20
BRANCH   3  33
HETATM   33  C   UNL     1     -41.254  53.645 -52.600  1.00  0.00    -0.008 A 
HETATM   34  C   UNL     1     -40.226  53.027 -51.875  1.00  0.00     0.017 A 
HETATM   35  C   UNL     1     -39.524  51.952 -52.426  1.00  0.00     0.043 A 
HETATM   36  C   UNL     1     -39.858  51.489 -53.693  1.00  0.00     0.116 A 
HETATM   37  F   UNL     1     -39.190  50.453 -54.215  1.00  0.00    -0.206 F 
HETATM   38  C   UNL     1     -40.882  52.082 -54.422  1.00  0.00     0.043 A 
HETATM   39  C   UNL     1     -41.582  53.159 -53.874  1.00  0.00     0.017 A 
ENDBRANCH   3  33
TORSDOF 9
ENDMDL
MODEL 5
REMARK VINA RESULT:      -8.4      3.216      8.021
REMARK  9 active torsions:
REMARK  status: ('A' for Active; 'I' for Inactive)
REMARK    1  A    between atoms: C_3  and  N_4 
REMARK       I    between atoms: N_4  and  C_5 
REMARK    2  A    between atoms: C_5  and  C_6 
REMARK    3  A    between atoms: C_6  and  S_7 
REMARK    4  A    between atoms: S_7  and  C_8 
REMARK    5  A    between atoms: N_9  and  C_10 
REMARK    6  A    between atoms: C_10  and  C_11 
REMARK       I    between atoms: C_11  and  N_12 
REMARK    7  A    between atoms: N_12  and  C_13 
REMARK    8  A    between atoms: C_15  and  O_16 
REMARK    9  A    between atoms: C_21  and  C_22 
ROOT
HETATM    1  C   UNL     1     -42.002  58.785 -54.395  1.00  0.00     0.169 A 
HETATM    2  N   UNL     1     -42.031  57.540 -53.815  1.00  0.00    -0.315 N 
HETATM    3  C   UNL     1     -41.808  57.717 -52.458  1.00  0.00     0.065 A 
HETATM    4  C   UNL     1     -41.703  59.089 -52.311  1.00  0.00     0.150 A 
HETATM    5  N   UNL     1     -41.821  59.731 -53.511  1.00  0.00    -0.234 NA
ENDROOT
BRANCH   1   6
HETATM    6  S   UNL     1     -42.206  59.078 -56.087  1.00  0.00    -0.083 SA
BRANCH   6   7
HETATM    7  C   UNL     1     -43.955  59.592 -56.140  1.00  0.00     0.185 C 
BRANCH   7   8
HETATM    8  C   UNL     1     -44.864  58.606 -56.865  1.00  0.00     0.231 C 
HETATM    9  N   UNL     1     -44.614  58.468 -58.218  1.00  0.00    -0.326 N 
HETATM   10  H   UNL     1     -44.105  59.240 -58.633  1.00  0.00     0.169 HD
HETATM   11  O   UNL     1     -45.716  57.981 -56.236  1.00  0.00    -0.272 OA
BRANCH   9  12
HETATM   12  C   UNL     1     -45.314  57.623 -59.105  1.00  0.00     0.046 A 
HETATM   13  C   UNL     1     -46.458  58.150 -59.749  1.00  0.00    -0.035 A 
HETATM   14  C   UNL     1     -46.977  59.533 -59.456  1.00  0.00     0.050 C 
HETATM   15  C   UNL     1     -47.173  57.349 -60.655  1.00  0.00     0.009 A 
HETATM   16  C   UNL     1     -46.763  56.050 -60.928  1.00  0.00     0.001 A 
HETATM   17  C   UNL     1     -45.621  55.541 -60.315  1.00  0.00     0.009 A 
HETATM   18  C   UNL     1     -44.869  56.323 -59.420  1.00  0.00    -0.035 A 
HETATM   19  C   UNL     1     -43.590  55.725 -58.898  1.00  0.00     0.050 C 
ENDBRANCH   9  12
ENDBRANCH   7   8
ENDBRANCH   6   7
ENDBRANCH   1   6
BRANCH   2  20
HETATM   20  C   UNL     1     -42.291  56.280 -54.490  1.00  0.00     0.234 C 
BRANCH  20  21
HETATM   21  C   UNL     1     -41.248  55.190 -54.283  1.00  0.00     0.240 C 
HETATM   22  N   UNL     1     -41.701  53.991 -53.761  1.00  0.00    -0.326 N 
HETATM   23  H   UNL     1     -42.671  53.928 -53.479  1.00  0.00     0.169 HD
HETATM   24  O   UNL     1     -40.092  55.412 -54.644  1.00  0.00    -0.271 OA
BRANCH  22  25
HETATM   25  C   UNL     1     -40.952  52.814 -53.533  1.00  0.00     0.037 A 
HETATM   26  C   UNL     1     -40.894  51.735 -54.418  1.00  0.00     0.066 A 
HETATM   27  C   UNL     1     -40.132  50.612 -54.096  1.00  0.00     0.067 A 
HETATM   28  C   UNL     1     -39.424  50.542 -52.904  1.00  0.00     0.036 A 
HETATM   29  C   UNL     1     -39.474  51.611 -52.015  1.00  0.00     0.005 A 
HETATM   30  C   UNL     1     -40.235  52.742 -52.329  1.00  0.00     0.029 A 
BRANCH  27  31
HETATM   31  O   UNL     1     -40.056  49.543 -54.942  1.00  0.00    -0.361 OA
HETATM   32  H   UNL     1     -39.133  49.241 -54.975  1.00  0.00     0.217 HD
ENDBRANCH  27  31
ENDBRANCH  22  25
ENDBRANCH  20  21
ENDBRANCH   2  20
BRANCH   3  33
HETATM   33  C   UNL     1     -41.759  56.679 -51.436  1.00  0.00    -0.008 A 
HETATM   34  C   UNL     1     -42.896  55.928 -51.107  1.00  0.00     0.017 A 
HETATM   35  C   UNL     1     -42.819  54.919 -50.143  1.00  0.00     0.043 A 
HETATM   36  C   UNL     1     -41.606  54.657 -49.518  1.00  0.00     0.116 A 
HETATM   37  F   UNL     1     -41.533  53.685 -48.600  1.00  0.00    -0.206 F 
HETATM   38  C   UNL     1     -40.466  55.383 -49.838  1.00  0.00     0.043 A 
HETATM   39  C   UNL     1     -40.542  56.393 -50.799  1.00  0.00     0.017 A 
ENDBRANCH   3  33
TORSDOF 9
ENDMDL
MODEL 6
REMARK VINA RESULT:      -8.3      4.738      7.803
REMARK  9 active torsions:
REMARK  status: ('A' for Active; 'I' for Inactive)
REMARK    1  A    between atoms: C_3  and  N_4 
REMARK       I    between atoms: N_4  and  C_5 
REMARK    2  A    between atoms: C_5  and  C_6 
REMARK    3  A    between atoms: C_6  and  S_7 
REMARK    4  A    between atoms: S_7  and  C_8 
REMARK    5  A    between atoms: N_9  and  C_10 
REMARK    6  A    between atoms: C_10  and  C_11 
REMARK       I    between atoms: C_11  and  N_12 
REMARK    7  A    between atoms: N_12  and  C_13 
REMARK    8  A    between atoms: C_15  and  O_16 
REMARK    9  A    between atoms: C_21  and  C_22 
ROOT
HETATM    1  C   UNL     1     -42.756  58.585 -52.014  1.00  0.00     0.169 A 
HETATM    2  N   UNL     1     -42.750  57.476 -52.825  1.00  0.00    -0.315 N 
HETATM    3  C   UNL     1     -41.630  56.731 -52.490  1.00  0.00     0.065 A 
HETATM    4  C   UNL     1     -41.055  57.439 -51.449  1.00  0.00     0.150 A 
HETATM    5  N   UNL     1     -41.756  58.578 -51.171  1.00  0.00    -0.234 NA
ENDROOT
BRANCH   1   6
HETATM    6  S   UNL     1     -43.952  59.832 -52.075  1.00  0.00    -0.083 SA
BRANCH   6   7
HETATM    7  C   UNL     1     -44.980  59.396 -50.632  1.00  0.00     0.185 C 
BRANCH   7   8
HETATM    8  C   UNL     1     -45.454  60.601 -49.829  1.00  0.00     0.231 C 
HETATM    9  N   UNL     1     -44.627  60.967 -48.783  1.00  0.00    -0.326 N 
HETATM   10  H   UNL     1     -44.001  60.237 -48.465  1.00  0.00     0.169 HD
HETATM   11  O   UNL     1     -46.486  61.188 -50.153  1.00  0.00    -0.272 OA
BRANCH   9  12
HETATM   12  C   UNL     1     -44.845  62.043 -47.895  1.00  0.00     0.046 A 
HETATM   13  C   UNL     1     -45.385  61.745 -46.622  1.00  0.00    -0.035 A 
HETATM   14  C   UNL     1     -45.795  60.349 -46.232  1.00  0.00     0.050 C 
HETATM   15  C   UNL     1     -45.599  62.783 -45.701  1.00  0.00     0.009 A 
HETATM   16  C   UNL     1     -45.279  64.096 -46.027  1.00  0.00     0.001 A 
HETATM   17  C   UNL     1     -44.722  64.385 -47.268  1.00  0.00     0.009 A 
HETATM   18  C   UNL     1     -44.473  63.367 -48.206  1.00  0.00    -0.035 A 
HETATM   19  C   UNL     1     -43.765  63.763 -49.474  1.00  0.00     0.050 C 
ENDBRANCH   9  12
ENDBRANCH   7   8
ENDBRANCH   6   7
ENDBRANCH   1   6
BRANCH   2  20
HETATM   20  C   UNL     1     -43.754  57.127 -53.816  1.00  0.00     0.234 C 
BRANCH  20  21
HETATM   21  C   UNL     1     -43.409  57.470 -55.258  1.00  0.00     0.240 C 
HETATM   22  N   UNL     1     -43.928  56.638 -56.234  1.00  0.00    -0.326 N 
HETATM   23  H   UNL     1     -44.440  55.816 -55.939  1.00  0.00     0.169 HD
HETATM   24  O   UNL     1     -42.750  58.488 -55.474  1.00  0.00    -0.271 OA
BRANCH  22  25
HETATM   25  C   UNL     1     -43.806  56.775 -57.636  1.00  0.00     0.037 A 
HETATM   26  C   UNL     1     -44.501  57.717 -58.398  1.00  0.00     0.066 A 
HETATM   27  C   UNL     1     -44.318  57.765 -59.780  1.00  0.00     0.067 A 
HETATM   28  C   UNL     1     -43.453  56.888 -60.421  1.00  0.00     0.036 A 
HETATM   29  C   UNL     1     -42.755  55.946 -59.671  1.00  0.00     0.005 A 
HETATM   30  C   UNL     1     -42.931  55.890 -58.285  1.00  0.00     0.029 A 
BRANCH  27  31
HETATM   31  O   UNL     1     -44.983  58.675 -60.550  1.00  0.00    -0.361 OA
HETATM   32  H   UNL     1     -44.590  59.551 -60.401  1.00  0.00     0.217 HD
ENDBRANCH  27  31
ENDBRANCH  22  25
ENDBRANCH  20  21
ENDBRANCH   2  20
BRANCH   3  33
HETATM   33  C   UNL     1     -41.211  55.465 -53.080  1.00  0.00    -0.008 A 
HETATM   34  C   UNL     1     -41.428  54.248 -52.418  1.00  0.00     0.017 A 
HETATM   35  C   UNL     1     -41.043  53.045 -53.014  1.00  0.00     0.043 A 
HETATM   36  C   UNL     1     -40.452  53.058 -54.272  1.00  0.00     0.116 A 
HETATM   37  F   UNL     1     -40.090  51.903 -54.843  1.00  0.00    -0.206 F 
HETATM   38  C   UNL     1     -40.238  54.253 -54.947  1.00  0.00     0.043 A 
HETATM   39  C   UNL     1     -40.620  55.457 -54.351  1.00  0.00     0.017 A 
ENDBRANCH   3  33
TORSDOF 9
ENDMDL
MODEL 7
REMARK VINA RESULT:      -8.1      3.202      8.221
REMARK  9 active torsions:
REMARK  status: ('A' for Active; 'I' for Inactive)
REMARK    1  A    between atoms: C_3  and  N_4 
REMARK       I    between atoms: N_4  and  C_5 
REMARK    2  A    between atoms: C_5  and  C_6 
REMARK    3  A    between atoms: C_6  and  S_7 
REMARK    4  A    between atoms: S_7  and  C_8 
REMARK    5  A    between atoms: N_9  and  C_10 
REMARK    6  A    between atoms: C_10  and  C_11 
REMARK       I    between atoms: C_11  and  N_12 
REMARK    7  A    between atoms: N_12  and  C_13 
REMARK    8  A    between atoms: C_15  and  O_16 
REMARK    9  A    between atoms: C_21  and  C_22 
ROOT
HETATM    1  C   UNL     1     -44.438  57.587 -57.160  1.00  0.00     0.169 A 
HETATM    2  N   UNL     1     -43.443  57.251 -56.275  1.00  0.00    -0.315 N 
HETATM    3  C   UNL     1     -43.798  57.777 -55.043  1.00  0.00     0.065 A 
HETATM    4  C   UNL     1     -45.029  58.367 -55.271  1.00  0.00     0.150 A 
HETATM    5  N   UNL     1     -45.408  58.245 -56.578  1.00  0.00    -0.234 NA
ENDROOT
BRANCH   1   6
HETATM    6  S   UNL     1     -44.434  57.173 -58.839  1.00  0.00    -0.083 SA
BRANCH   6   7
HETATM    7  C   UNL     1     -45.247  58.638 -59.560  1.00  0.00     0.185 C 
BRANCH   7   8
HETATM    8  C   UNL     1     -44.407  59.907 -59.481  1.00  0.00     0.231 C 
HETATM    9  N   UNL     1     -43.064  59.737 -59.759  1.00  0.00    -0.326 N 
HETATM   10  H   UNL     1     -42.731  58.785 -59.663  1.00  0.00     0.169 HD
HETATM   11  O   UNL     1     -44.945  60.983 -59.219  1.00  0.00    -0.272 OA
BRANCH   9  12
HETATM   12  C   UNL     1     -42.084  60.752 -59.752  1.00  0.00     0.046 A 
HETATM   13  C   UNL     1     -41.460  61.054 -58.518  1.00  0.00    -0.035 A 
HETATM   14  C   UNL     1     -41.864  60.385 -57.231  1.00  0.00     0.050 C 
HETATM   15  C   UNL     1     -40.464  62.044 -58.470  1.00  0.00     0.009 A 
HETATM   16  C   UNL     1     -40.085  62.723 -59.622  1.00  0.00     0.001 A 
HETATM   17  C   UNL     1     -40.679  62.407 -60.840  1.00  0.00     0.009 A 
HETATM   18  C   UNL     1     -41.662  61.405 -60.928  1.00  0.00    -0.035 A 
HETATM   19  C   UNL     1     -42.163  61.057 -62.305  1.00  0.00     0.050 C 
ENDBRANCH   9  12
ENDBRANCH   7   8
ENDBRANCH   6   7
ENDBRANCH   1   6
BRANCH   2  20
HETATM   20  C   UNL     1     -42.263  56.454 -56.567  1.00  0.00     0.234 C 
BRANCH  20  21
HETATM   21  C   UNL     1     -42.106  55.180 -55.751  1.00  0.00     0.240 C 
HETATM   22  N   UNL     1     -40.915  55.028 -55.061  1.00  0.00    -0.326 N 
HETATM   23  H   UNL     1     -40.195  55.727 -55.192  1.00  0.00     0.169 HD
HETATM   24  O   UNL     1     -43.055  54.397 -55.702  1.00  0.00    -0.271 OA
BRANCH  22  25
HETATM   25  C   UNL     1     -40.552  53.974 -54.192  1.00  0.00     0.037 A 
HETATM   26  C   UNL     1     -40.109  52.720 -54.619  1.00  0.00     0.066 A 
HETATM   27  C   UNL     1     -39.783  51.742 -53.681  1.00  0.00     0.067 A 
HETATM   28  C   UNL     1     -39.892  51.988 -52.318  1.00  0.00     0.036 A 
HETATM   29  C   UNL     1     -40.332  53.234 -51.882  1.00  0.00     0.005 A 
HETATM   30  C   UNL     1     -40.660  54.222 -52.815  1.00  0.00     0.029 A 
BRANCH  27  31
HETATM   31  O   UNL     1     -39.347  50.508 -54.068  1.00  0.00    -0.361 OA
HETATM   32  H   UNL     1     -38.382  50.474 -53.960  1.00  0.00     0.217 HD
ENDBRANCH  27  31
ENDBRANCH  22  25
ENDBRANCH  20  21
ENDBRANCH   2  20
BRANCH   3  33
HETATM   33  C   UNL     1     -43.051  57.668 -53.796  1.00  0.00    -0.008 A 
HETATM   34  C   UNL     1     -41.833  58.339 -53.618  1.00  0.00     0.017 A 
HETATM   35  C   UNL     1     -41.147  58.242 -52.404  1.00  0.00     0.043 A 
HETATM   36  C   UNL     1     -41.682  57.484 -51.370  1.00  0.00     0.116 A 
HETATM   37  F   UNL     1     -41.026  57.400 -50.206  1.00  0.00    -0.206 F 
HETATM   38  C   UNL     1     -42.893  56.821 -51.525  1.00  0.00     0.043 A 
HETATM   39  C   UNL     1     -43.578  56.915 -52.737  1.00  0.00     0.017 A 
ENDBRANCH   3  33
TORSDOF 9
ENDMDL
MODEL 8
REMARK VINA RESULT:      -8.1      1.853      2.716
REMARK  9 active torsions:
REMARK  status: ('A' for Active; 'I' for Inactive)
REMARK    1  A    between atoms: C_3  and  N_4 
REMARK       I    between atoms: N_4  and  C_5 
REMARK    2  A    between atoms: C_5  and  C_6 
REMARK    3  A    between atoms: C_6  and  S_7 
REMARK    4  A    between atoms: S_7  and  C_8 
REMARK    5  A    between atoms: N_9  and  C_10 
REMARK    6  A    between atoms: C_10  and  C_11 
REMARK       I    between atoms: C_11  and  N_12 
REMARK    7  A    between atoms: N_12  and  C_13 
REMARK    8  A    between atoms: C_15  and  O_16 
REMARK    9  A    between atoms: C_21  and  C_22 
ROOT
HETATM    1  C   UNL     1     -43.386  57.886 -51.729  1.00  0.00     0.169 A 
HETATM    2  N   UNL     1     -43.919  58.204 -52.955  1.00  0.00    -0.315 N 
HETATM    3  C   UNL     1     -43.687  59.554 -53.163  1.00  0.00     0.065 A 
HETATM    4  C   UNL     1     -42.977  59.950 -52.043  1.00  0.00     0.150 A 
HETATM    5  N   UNL     1     -42.803  58.915 -51.169  1.00  0.00    -0.234 NA
ENDROOT
BRANCH   1   6
HETATM    6  S   UNL     1     -43.449  56.313 -51.015  1.00  0.00    -0.083 SA
BRANCH   6   7
HETATM    7  C   UNL     1     -41.761  55.710 -51.357  1.00  0.00     0.185 C 
BRANCH   7   8
HETATM    8  C   UNL     1     -41.720  54.333 -52.008  1.00  0.00     0.231 C 
HETATM    9  N   UNL     1     -40.466  53.753 -52.069  1.00  0.00    -0.326 N 
HETATM   10  H   UNL     1     -39.696  54.406 -51.984  1.00  0.00     0.169 HD
HETATM   11  O   UNL     1     -42.762  53.809 -52.401  1.00  0.00    -0.272 OA
BRANCH   9  12
HETATM   12  C   UNL     1     -40.167  52.490 -52.621  1.00  0.00     0.046 A 
HETATM   13  C   UNL     1     -40.045  51.396 -51.733  1.00  0.00    -0.035 A 
HETATM   14  C   UNL     1     -40.149  51.561 -50.239  1.00  0.00     0.050 C 
HETATM   15  C   UNL     1     -39.768  50.117 -52.243  1.00  0.00     0.009 A 
HETATM   16  C   UNL     1     -39.618  49.917 -53.610  1.00  0.00     0.001 A 
HETATM   17  C   UNL     1     -39.765  50.988 -54.487  1.00  0.00     0.009 A 
HETATM   18  C   UNL     1     -40.066  52.278 -54.012  1.00  0.00    -0.035 A 
HETATM   19  C   UNL     1     -40.318  53.345 -55.043  1.00  0.00     0.050 C 
ENDBRANCH   9  12
ENDBRANCH   7   8
ENDBRANCH   6   7
ENDBRANCH   1   6
BRANCH   2  20
HETATM   20  C   UNL     1     -44.565  57.285 -53.878  1.00  0.00     0.234 C 
BRANCH  20  21
HETATM   21  C   UNL     1     -43.771  56.937 -55.129  1.00  0.00     0.240 C 
HETATM   22  N   UNL     1     -44.230  57.467 -56.322  1.00  0.00    -0.326 N 
HETATM   23  H   UNL     1     -45.097  57.989 -56.310  1.00  0.00     0.169 HD
HETATM   24  O   UNL     1     -42.747  56.265 -55.002  1.00  0.00    -0.271 OA
BRANCH  22  25
HETATM   25  C   UNL     1     -43.643  57.344 -57.602  1.00  0.00     0.037 A 
HETATM   26  C   UNL     1     -44.096  56.472 -58.595  1.00  0.00     0.066 A 
HETATM   27  C   UNL     1     -43.439  56.418 -59.824  1.00  0.00     0.067 A 
HETATM   28  C   UNL     1     -42.335  57.218 -60.085  1.00  0.00     0.036 A 
HETATM   29  C   UNL     1     -41.876  58.090 -59.103  1.00  0.00     0.005 A 
HETATM   30  C   UNL     1     -42.527  58.152 -57.867  1.00  0.00     0.029 A 
BRANCH  27  31
HETATM   31  O   UNL     1     -43.859  55.577 -60.813  1.00  0.00    -0.361 OA
HETATM   32  H   UNL     1     -43.819  56.051 -61.660  1.00  0.00     0.217 HD
ENDBRANCH  27  31
ENDBRANCH  22  25
ENDBRANCH  20  21
ENDBRANCH   2  20
BRANCH   3  33
HETATM   33  C   UNL     1     -44.068  60.338 -54.332  1.00  0.00    -0.008 A 
HETATM   34  C   UNL     1     -43.120  60.716 -55.294  1.00  0.00     0.017 A 
HETATM   35  C   UNL     1     -43.511  61.444 -56.420  1.00  0.00     0.043 A 
HETATM   36  C   UNL     1     -44.848  61.784 -56.589  1.00  0.00     0.116 A 
HETATM   37  F   UNL     1     -45.221  62.475 -57.673  1.00  0.00    -0.206 F 
HETATM   38  C   UNL     1     -45.803  61.410 -55.652  1.00  0.00     0.043 A 
HETATM   39  C   UNL     1     -45.413  60.684 -54.525  1.00  0.00     0.017 A 
ENDBRANCH   3  33
TORSDOF 9
ENDMDL
MODEL 9
REMARK VINA RESULT:      -8.1      4.788      7.850
REMARK  9 active torsions:
REMARK  status: ('A' for Active; 'I' for Inactive)
REMARK    1  A    between atoms: C_3  and  N_4 
REMARK       I    between atoms: N_4  and  C_5 
REMARK    2  A    between atoms: C_5  and  C_6 
REMARK    3  A    between atoms: C_6  and  S_7 
REMARK    4  A    between atoms: S_7  and  C_8 
REMARK    5  A    between atoms: N_9  and  C_10 
REMARK    6  A    between atoms: C_10  and  C_11 
REMARK       I    between atoms: C_11  and  N_12 
REMARK    7  A    between atoms: N_12  and  C_13 
REMARK    8  A    between atoms: C_15  and  O_16 
REMARK    9  A    between atoms: C_21  and  C_22 
ROOT
HETATM    1  C   UNL     1     -42.994  58.199 -52.205  1.00  0.00     0.169 A 
HETATM    2  N   UNL     1     -42.963  57.058 -52.971  1.00  0.00    -0.315 N 
HETATM    3  C   UNL     1     -41.735  56.453 -52.752  1.00  0.00     0.065 A 
HETATM    4  C   UNL     1     -41.121  57.267 -51.816  1.00  0.00     0.150 A 
HETATM    5  N   UNL     1     -41.906  58.338 -51.493  1.00  0.00    -0.234 NA
ENDROOT
BRANCH   1   6
HETATM    6  S   UNL     1     -44.319  59.308 -52.160  1.00  0.00    -0.083 SA
BRANCH   6   7
HETATM    7  C   UNL     1     -43.809  60.401 -50.792  1.00  0.00     0.185 C 
BRANCH   7   8
HETATM    8  C   UNL     1     -44.944  60.770 -49.844  1.00  0.00     0.231 C 
HETATM    9  N   UNL     1     -44.751  61.938 -49.129  1.00  0.00    -0.326 N 
HETATM   10  H   UNL     1     -43.785  62.235 -49.060  1.00  0.00     0.169 HD
HETATM   11  O   UNL     1     -45.950  60.063 -49.786  1.00  0.00    -0.272 OA
BRANCH   9  12
HETATM   12  C   UNL     1     -45.650  62.490 -48.192  1.00  0.00     0.046 A 
HETATM   13  C   UNL     1     -46.604  63.422 -48.666  1.00  0.00    -0.035 A 
HETATM   14  C   UNL     1     -46.629  63.883 -50.100  1.00  0.00     0.050 C 
HETATM   15  C   UNL     1     -47.530  63.980 -47.771  1.00  0.00     0.009 A 
HETATM   16  C   UNL     1     -47.522  63.622 -46.428  1.00  0.00     0.001 A 
HETATM   17  C   UNL     1     -46.602  62.685 -45.967  1.00  0.00     0.009 A 
HETATM   18  C   UNL     1     -45.675  62.089 -46.840  1.00  0.00    -0.035 A 
HETATM   19  C   UNL     1     -44.798  61.006 -46.272  1.00  0.00     0.050 C 
ENDBRANCH   9  12
ENDBRANCH   7   8
ENDBRANCH   6   7
ENDBRANCH   1   6
BRANCH   2  20
HETATM   20  C   UNL     1     -44.034  56.559 -53.816  1.00  0.00     0.234 C 
BRANCH  20  21
HETATM   21  C   UNL     1     -44.054  57.089 -55.243  1.00  0.00     0.240 C 
HETATM   22  N   UNL     1     -43.138  56.537 -56.122  1.00  0.00    -0.326 N 
HETATM   23  H   UNL     1     -42.466  55.875 -55.758  1.00  0.00     0.169 HD
HETATM   24  O   UNL     1     -44.911  57.921 -55.544  1.00  0.00    -0.271 OA
BRANCH  22  25
HETATM   25  C   UNL     1     -42.996  56.812 -57.502  1.00  0.00     0.037 A 
HETATM   26  C   UNL     1     -43.588  56.058 -58.518  1.00  0.00     0.066 A 
HETATM   27  C   UNL     1     -43.378  56.405 -59.853  1.00  0.00     0.067 A 
HETATM   28  C   UNL     1     -42.587  57.493 -60.196  1.00  0.00     0.036 A 
HETATM   29  C   UNL     1     -41.993  58.251 -59.191  1.00  0.00     0.005 A 
HETATM   30  C   UNL     1     -42.198  57.911 -57.851  1.00  0.00     0.029 A 
BRANCH  27  31
HETATM   31  O   UNL     1     -43.944  55.688 -60.867  1.00  0.00    -0.361 OA
HETATM   32  H   UNL     1     -44.080  54.776 -60.561  1.00  0.00     0.217 HD
ENDBRANCH  27  31
ENDBRANCH  22  25
ENDBRANCH  20  21
ENDBRANCH   2  20
BRANCH   3  33
HETATM   33  C   UNL     1     -41.253  55.211 -53.344  1.00  0.00    -0.008 A 
HETATM   34  C   UNL     1     -40.554  55.210 -54.559  1.00  0.00     0.017 A 
HETATM   35  C   UNL     1     -40.077  54.010 -55.095  1.00  0.00     0.043 A 
HETATM   36  C   UNL     1     -40.290  52.819 -54.413  1.00  0.00     0.116 A 
HETATM   37  F   UNL     1     -39.826  51.673 -54.924  1.00  0.00    -0.206 F 
HETATM   38  C   UNL     1     -40.971  52.803 -53.202  1.00  0.00     0.043 A 
HETATM   39  C   UNL     1     -41.451  54.000 -52.666  1.00  0.00     0.017 A 
ENDBRANCH   3  33
TORSDOF 9
ENDMDL
MODEL 10
REMARK VINA RESULT:      -8.0      2.533      6.892
REMARK  9 active torsions:
REMARK  status: ('A' for Active; 'I' for Inactive)
REMARK    1  A    between atoms: C_3  and  N_4 
REMARK       I    between atoms: N_4  and  C_5 
REMARK    2  A    between atoms: C_5  and  C_6 
REMARK    3  A    between atoms: C_6  and  S_7 
REMARK    4  A    between atoms: S_7  and  C_8 
REMARK    5  A    between atoms: N_9  and  C_10 
REMARK    6  A    between atoms: C_10  and  C_11 
REMARK       I    between atoms: C_11  and  N_12 
REMARK    7  A    between atoms: N_12  and  C_13 
REMARK    8  A    between atoms: C_15  and  O_16 
REMARK    9  A    between atoms: C_21  and  C_22 
ROOT
HETATM    1  C   UNL     1     -43.593  57.020 -53.133  1.00  0.00     0.169 A 
HETATM    2  N   UNL     1     -42.826  56.719 -54.231  1.00  0.00    -0.315 N 
HETATM    3  C   UNL     1     -43.524  57.153 -55.347  1.00  0.00     0.065 A 
HETATM    4  C   UNL     1     -44.665  57.737 -54.825  1.00  0.00     0.150 A 
HETATM    5  N   UNL     1     -44.695  57.644 -53.463  1.00  0.00    -0.234 NA
ENDROOT
BRANCH   1   6
HETATM    6  S   UNL     1     -43.153  56.649 -51.503  1.00  0.00    -0.083 SA
BRANCH   6   7
HETATM    7  C   UNL     1     -41.507  57.429 -51.402  1.00  0.00     0.185 C 
BRANCH   7   8
HETATM    8  C   UNL     1     -41.516  58.923 -51.705  1.00  0.00     0.231 C 
HETATM    9  N   UNL     1     -42.773  59.491 -51.805  1.00  0.00    -0.326 N 
HETATM   10  H   UNL     1     -43.519  58.831 -51.990  1.00  0.00     0.169 HD
HETATM   11  O   UNL     1     -40.453  59.534 -51.809  1.00  0.00    -0.272 OA
BRANCH   9  12
HETATM   12  C   UNL     1     -43.046  60.848 -52.078  1.00  0.00     0.046 A 
HETATM   13  C   UNL     1     -43.378  61.684 -50.986  1.00  0.00    -0.035 A 
HETATM   14  C   UNL     1     -43.518  61.152 -49.584  1.00  0.00     0.050 C 
HETATM   15  C   UNL     1     -43.638  63.046 -51.211  1.00  0.00     0.009 A 
HETATM   16  C   UNL     1     -43.566  63.578 -52.492  1.00  0.00     0.001 A 
HETATM   17  C   UNL     1     -43.212  62.762 -53.562  1.00  0.00     0.009 A 
HETATM   18  C   UNL     1     -42.923  61.399 -53.370  1.00  0.00    -0.035 A 
HETATM   19  C   UNL     1     -42.441  60.626 -54.568  1.00  0.00     0.050 C 
ENDBRANCH   9  12
ENDBRANCH   7   8
ENDBRANCH   6   7
ENDBRANCH   1   6
BRANCH   2  20
HETATM   20  C   UNL     1     -41.511  56.102 -54.221  1.00  0.00     0.234 C 
BRANCH  20  21
HETATM   21  C   UNL     1     -41.493  54.582 -54.138  1.00  0.00     0.240 C 
HETATM   22  N   UNL     1     -40.365  54.005 -53.580  1.00  0.00    -0.326 N 
HETATM   23  H   UNL     1     -39.593  54.610 -53.329  1.00  0.00     0.169 HD
HETATM   24  O   UNL     1     -42.492  53.965 -54.509  1.00  0.00    -0.271 OA
BRANCH  22  25
HETATM   25  C   UNL     1     -40.131  52.633 -53.336  1.00  0.00     0.037 A 
HETATM   26  C   UNL     1     -40.164  51.642 -54.321  1.00  0.00     0.066 A 
HETATM   27  C   UNL     1     -39.929  50.311 -53.976  1.00  0.00     0.067 A 
HETATM   28  C   UNL     1     -39.662  49.945 -52.663  1.00  0.00     0.036 A 
HETATM   29  C   UNL     1     -39.626  50.924 -51.675  1.00  0.00     0.005 A 
HETATM   30  C   UNL     1     -39.860  52.261 -52.010  1.00  0.00     0.029 A 
BRANCH  27  31
HETATM   31  O   UNL     1     -39.953  49.322 -54.916  1.00  0.00    -0.361 OA
HETATM   32  H   UNL     1     -40.787  48.832 -54.827  1.00  0.00     0.217 HD
ENDBRANCH  27  31
ENDBRANCH  22  25
ENDBRANCH  20  21
ENDBRANCH   2  20
BRANCH   3  33
HETATM   33  C   UNL     1     -43.099  57.054 -56.739  1.00  0.00    -0.008 A 
HETATM   34  C   UNL     1     -43.334  55.894 -57.490  1.00  0.00     0.017 A 
HETATM   35  C   UNL     1     -42.943  55.831 -58.830  1.00  0.00     0.043 A 
HETATM   36  C   UNL     1     -42.328  56.929 -59.419  1.00  0.00     0.116 A 
HETATM   37  F   UNL     1     -41.961  56.868 -60.704  1.00  0.00    -0.206 F 
HETATM   38  C   UNL     1     -42.097  58.091 -58.694  1.00  0.00     0.043 A 
HETATM   39  C   UNL     1     -42.485  58.154 -57.354  1.00  0.00     0.017 A 
ENDBRANCH   3  33
TORSDOF 9
ENDMDL
