MODEL 1
REMARK VINA RESULT:      -7.5      0.000      0.000
REMARK  7 active torsions:
REMARK  status: ('A' for Active; 'I' for Inactive)
REMARK    1  A    between atoms: C_2  and  N_3 
REMARK    2  A    between atoms: C_6  and  C_7 
REMARK    3  A    between atoms: C_7  and  O_8 
REMARK    4  A    between atoms: O_8  and  C_9 
REMARK    5  A    between atoms: C_9  and  C_10 
REMARK    6  A    between atoms: C_12  and  N_13 
REMARK    7  A    between atoms: C_22  and  N_23 
ROOT
HETATM    1  O   UNL     1     -42.434  57.102 -53.750  1.00  0.00    -0.310 OA
ENDROOT
BRANCH   1   2
HETATM    2  C   UNL     1     -43.679  57.203 -54.299  1.00  0.00     0.299 C 
HETATM    3  O   UNL     1     -44.709  57.342 -53.650  1.00  0.00    -0.259 OA
BRANCH   2   4
HETATM    4  C   UNL     1     -43.678  57.099 -55.744  1.00  0.00     0.103 A 
HETATM    5  C   UNL     1     -44.535  57.797 -56.626  1.00  0.00     0.160 A 
HETATM    6  N   UNL     1     -44.321  57.499 -57.908  1.00  0.00    -0.182 NA
HETATM    7  N   UNL     1     -43.353  56.559 -57.859  1.00  0.00    -0.250 N 
HETATM    8  C   UNL     1     -42.888  56.327 -56.579  1.00  0.00     0.136 A 
BRANCH   7   9
HETATM    9  C   UNL     1     -42.923  55.909 -59.097  1.00  0.00     0.104 C 
HETATM   10  C   UNL     1     -42.200  56.901 -60.006  1.00  0.00     0.034 C 
HETATM   11  C   UNL     1     -44.079  55.225 -59.832  1.00  0.00     0.034 C 
ENDBRANCH   7   9
BRANCH   8  12
HETATM   12  N   UNL     1     -41.873  55.476 -56.299  1.00  0.00    -0.383 N 
HETATM   13  H   UNL     1     -41.020  55.540 -56.858  1.00  0.00     0.157 HD
HETATM   14  H   UNL     1     -42.040  54.531 -55.965  1.00  0.00     0.157 HD
ENDBRANCH   8  12
ENDBRANCH   2   4
ENDBRANCH   1   2
BRANCH   1  15
HETATM   15  C   UNL     1     -42.418  56.600 -52.404  1.00  0.00     0.259 C 
BRANCH  15  16
HETATM   16  C   UNL     1     -41.684  55.286 -52.228  1.00  0.00     0.152 A 
HETATM   17  N   UNL     1     -41.111  55.026 -51.039  1.00  0.00    -0.219 NA
HETATM   18  C   UNL     1     -40.462  53.859 -50.930  1.00  0.00     0.115 A 
HETATM   19  C   UNL     1     -40.324  52.949 -51.984  1.00  0.00     0.033 A 
HETATM   20  C   UNL     1     -40.943  53.332 -53.179  1.00  0.00     0.072 A 
HETATM   21  C   UNL     1     -39.621  51.721 -51.917  1.00  0.00     0.017 A 
HETATM   22  N   UNL     1     -41.607  54.485 -53.308  1.00  0.00    -0.231 NA
HETATM   23  C   UNL     1     -40.856  52.479 -54.272  1.00  0.00     0.032 A 
HETATM   24  C   UNL     1     -40.171  51.261 -54.208  1.00  0.00     0.002 A 
HETATM   25  C   UNL     1     -39.548  50.882 -53.027  1.00  0.00     0.001 A 
BRANCH  18  26
HETATM   26  N   UNL     1     -39.904  53.614 -49.668  1.00  0.00    -0.286 NA
HETATM   27  H   UNL     1     -39.165  54.302 -49.537  1.00  0.00     0.125 HD
HETATM   28  H   UNL     1     -40.608  53.691 -48.944  1.00  0.00     0.125 HD
ENDBRANCH  18  26
ENDBRANCH  15  16
ENDBRANCH   1  15
TORSDOF 7
ENDMDL
MODEL 2
REMARK VINA RESULT:      -6.9      1.648      2.053
REMARK  7 active torsions:
REMARK  status: ('A' for Active; 'I' for Inactive)
REMARK    1  A    between atoms: C_2  and  N_3 
REMARK    2  A    between atoms: C_6  and  C_7 
REMARK    3  A    between atoms: C_7  and  O_8 
REMARK    4  A    between atoms: O_8  and  C_9 
REMARK    5  A    between atoms: C_9  and  C_10 
REMARK    6  A    between atoms: C_12  and  N_13 
REMARK    7  A    between atoms: C_22  and  N_23 
ROOT
HETATM    1  O   UNL     1     -42.430  55.733 -54.304  1.00  0.00    -0.310 OA
ENDROOT
BRANCH   1   2
HETATM    2  C   UNL     1     -42.947  55.314 -55.496  1.00  0.00     0.299 C 
HETATM    3  O   UNL     1     -43.392  54.190 -55.697  1.00  0.00    -0.259 OA
BRANCH   2   4
HETATM    4  C   UNL     1     -42.894  56.326 -56.531  1.00  0.00     0.103 A 
HETATM    5  C   UNL     1     -42.393  57.640 -56.381  1.00  0.00     0.160 A 
HETATM    6  N   UNL     1     -42.478  58.363 -57.498  1.00  0.00    -0.182 NA
HETATM    7  N   UNL     1     -43.089  57.531 -58.370  1.00  0.00    -0.250 N 
HETATM    8  C   UNL     1     -43.305  56.268 -57.852  1.00  0.00     0.136 A 
BRANCH   7   9
HETATM    9  C   UNL     1     -43.449  58.025 -59.698  1.00  0.00     0.104 C 
HETATM   10  C   UNL     1     -42.211  58.509 -60.450  1.00  0.00     0.034 C 
HETATM   11  C   UNL     1     -44.525  59.114 -59.648  1.00  0.00     0.034 C 
ENDBRANCH   7   9
BRANCH   8  12
HETATM   12  N   UNL     1     -43.842  55.253 -58.569  1.00  0.00    -0.383 N 
HETATM   13  H   UNL     1     -44.376  54.539 -58.071  1.00  0.00     0.157 HD
HETATM   14  H   UNL     1     -43.388  54.881 -59.398  1.00  0.00     0.157 HD
ENDBRANCH   8  12
ENDBRANCH   2   4
ENDBRANCH   1   2
BRANCH   1  15
HETATM   15  C   UNL     1     -41.024  55.487 -54.147  1.00  0.00     0.259 C 
BRANCH  15  16
HETATM   16  C   UNL     1     -40.684  54.207 -53.411  1.00  0.00     0.152 A 
HETATM   17  N   UNL     1     -40.568  54.250 -52.070  1.00  0.00    -0.219 NA
HETATM   18  C   UNL     1     -40.255  53.099 -51.460  1.00  0.00     0.115 A 
HETATM   19  C   UNL     1     -40.009  51.903 -52.145  1.00  0.00     0.033 A 
HETATM   20  C   UNL     1     -40.138  51.981 -53.535  1.00  0.00     0.072 A 
HETATM   21  C   UNL     1     -39.645  50.675 -51.538  1.00  0.00     0.017 A 
HETATM   22  N   UNL     1     -40.463  53.114 -54.165  1.00  0.00    -0.231 NA
HETATM   23  C   UNL     1     -39.916  50.832 -54.285  1.00  0.00     0.032 A 
HETATM   24  C   UNL     1     -39.567  49.615 -53.691  1.00  0.00     0.002 A 
HETATM   25  C   UNL     1     -39.428  49.537 -52.312  1.00  0.00     0.001 A 
BRANCH  18  26
HETATM   26  N   UNL     1     -40.171  53.179 -50.064  1.00  0.00    -0.286 NA
HETATM   27  H   UNL     1     -41.069  52.868 -49.700  1.00  0.00     0.125 HD
HETATM   28  H   UNL     1     -39.415  52.600 -49.717  1.00  0.00     0.125 HD
ENDBRANCH  18  26
ENDBRANCH  15  16
ENDBRANCH   1  15
TORSDOF 7
ENDMDL
MODEL 3
REMARK VINA RESULT:      -6.8      0.726      1.490
REMARK  7 active torsions:
REMARK  status: ('A' for Active; 'I' for Inactive)
REMARK    1  A    between atoms: C_2  and  N_3 
REMARK    2  A    between atoms: C_6  and  C_7 
REMARK    3  A    between atoms: C_7  and  O_8 
REMARK    4  A    between atoms: O_8  and  C_9 
REMARK    5  A    between atoms: C_9  and  C_10 
REMARK    6  A    between atoms: C_12  and  N_13 
REMARK    7  A    between atoms: C_22  and  N_23 
ROOT
HETATM    1  O   UNL     1     -43.233  56.519 -53.423  1.00  0.00    -0.310 OA
ENDROOT
BRANCH   1   2
HETATM    2  C   UNL     1     -43.283  57.451 -54.419  1.00  0.00     0.299 C 
HETATM    3  O   UNL     1     -43.347  58.660 -54.228  1.00  0.00    -0.259 OA
BRANCH   2   4
HETATM    4  C   UNL     1     -43.282  56.871 -55.747  1.00  0.00     0.103 A 
HETATM    5  C   UNL     1     -42.880  55.558 -56.078  1.00  0.00     0.160 A 
HETATM    6  N   UNL     1     -42.971  55.295 -57.382  1.00  0.00    -0.182 NA
HETATM    7  N   UNL     1     -43.387  56.465 -57.914  1.00  0.00    -0.250 N 
HETATM    8  C   UNL     1     -43.648  57.430 -56.960  1.00  0.00     0.136 A 
BRANCH   7   9
HETATM    9  C   UNL     1     -43.503  56.591 -59.366  1.00  0.00     0.104 C 
HETATM   10  C   UNL     1     -44.075  55.312 -59.975  1.00  0.00     0.034 C 
HETATM   11  C   UNL     1     -42.179  56.975 -60.031  1.00  0.00     0.034 C 
ENDBRANCH   7   9
BRANCH   8  12
HETATM   12  N   UNL     1     -44.138  58.657 -57.258  1.00  0.00    -0.383 N 
HETATM   13  H   UNL     1     -44.236  58.913 -58.242  1.00  0.00     0.157 HD
HETATM   14  H   UNL     1     -43.960  59.466 -56.670  1.00  0.00     0.157 HD
ENDBRANCH   8  12
ENDBRANCH   2   4
ENDBRANCH   1   2
BRANCH   1  15
HETATM   15  C   UNL     1     -42.039  56.564 -52.628  1.00  0.00     0.259 C 
BRANCH  15  16
HETATM   16  C   UNL     1     -41.417  55.211 -52.344  1.00  0.00     0.152 A 
HETATM   17  N   UNL     1     -41.011  54.942 -51.089  1.00  0.00    -0.219 NA
HETATM   18  C   UNL     1     -40.456  53.740 -50.885  1.00  0.00     0.115 A 
HETATM   19  C   UNL     1     -40.248  52.801 -51.902  1.00  0.00     0.033 A 
HETATM   20  C   UNL     1     -40.690  53.196 -53.169  1.00  0.00     0.072 A 
HETATM   21  C   UNL     1     -39.638  51.534 -51.731  1.00  0.00     0.017 A 
HETATM   22  N   UNL     1     -41.259  54.384 -53.395  1.00  0.00    -0.231 NA
HETATM   23  C   UNL     1     -40.525  52.315 -54.231  1.00  0.00     0.032 A 
HETATM   24  C   UNL     1     -39.931  51.059 -54.066  1.00  0.00     0.002 A 
HETATM   25  C   UNL     1     -39.483  50.668 -52.812  1.00  0.00     0.001 A 
BRANCH  18  26
HETATM   26  N   UNL     1     -40.074  53.488 -49.560  1.00  0.00    -0.286 NA
HETATM   27  H   UNL     1     -39.855  52.496 -49.504  1.00  0.00     0.125 HD
HETATM   28  H   UNL     1     -39.273  54.054 -49.305  1.00  0.00     0.125 HD
ENDBRANCH  18  26
ENDBRANCH  15  16
ENDBRANCH   1  15
TORSDOF 7
ENDMDL
MODEL 4
REMARK VINA RESULT:      -6.8      1.883      6.356
REMARK  7 active torsions:
REMARK  status: ('A' for Active; 'I' for Inactive)
REMARK    1  A    between atoms: C_2  and  N_3 
REMARK    2  A    between atoms: C_6  and  C_7 
REMARK    3  A    between atoms: C_7  and  O_8 
REMARK    4  A    between atoms: O_8  and  C_9 
REMARK    5  A    between atoms: C_9  and  C_10 
REMARK    6  A    between atoms: C_12  and  N_13 
REMARK    7  A    between atoms: C_22  and  N_23 
ROOT
HETATM    1  O   UNL     1     -44.467  57.574 -53.597  1.00  0.00    -0.310 OA
ENDROOT
BRANCH   1   2
HETATM    2  C   UNL     1     -44.134  56.940 -52.435  1.00  0.00     0.299 C 
HETATM    3  O   UNL     1     -44.636  57.191 -51.346  1.00  0.00    -0.259 OA
BRANCH   2   4
HETATM    4  C   UNL     1     -43.093  55.946 -52.603  1.00  0.00     0.103 A 
HETATM    5  C   UNL     1     -41.971  55.771 -51.762  1.00  0.00     0.160 A 
HETATM    6  N   UNL     1     -41.167  54.785 -52.162  1.00  0.00    -0.182 NA
HETATM    7  N   UNL     1     -41.742  54.347 -53.303  1.00  0.00    -0.250 N 
HETATM    8  C   UNL     1     -42.941  54.976 -53.579  1.00  0.00     0.136 A 
BRANCH   7   9
HETATM    9  C   UNL     1     -41.071  53.316 -54.093  1.00  0.00     0.104 C 
HETATM   10  C   UNL     1     -40.237  52.404 -53.196  1.00  0.00     0.034 C 
HETATM   11  C   UNL     1     -40.224  53.903 -55.225  1.00  0.00     0.034 C 
ENDBRANCH   7   9
BRANCH   8  12
HETATM   12  N   UNL     1     -43.724  54.651 -54.635  1.00  0.00    -0.383 N 
HETATM   13  H   UNL     1     -43.673  53.698 -55.000  1.00  0.00     0.157 HD
HETATM   14  H   UNL     1     -43.960  55.324 -55.358  1.00  0.00     0.157 HD
ENDBRANCH   8  12
ENDBRANCH   2   4
ENDBRANCH   1   2
BRANCH   1  15
HETATM   15  C   UNL     1     -43.546  58.600 -53.998  1.00  0.00     0.259 C 
BRANCH  15  16
HETATM   16  C   UNL     1     -43.052  58.484 -55.426  1.00  0.00     0.152 A 
HETATM   17  N   UNL     1     -42.356  59.510 -55.950  1.00  0.00    -0.219 NA
HETATM   18  C   UNL     1     -41.950  59.370 -57.219  1.00  0.00     0.115 A 
HETATM   19  C   UNL     1     -42.249  58.254 -58.009  1.00  0.00     0.033 A 
HETATM   20  C   UNL     1     -42.994  57.259 -57.367  1.00  0.00     0.072 A 
HETATM   21  C   UNL     1     -41.863  58.084 -59.361  1.00  0.00     0.017 A 
HETATM   22  N   UNL     1     -43.400  57.370 -56.099  1.00  0.00    -0.231 NA
HETATM   23  C   UNL     1     -43.326  56.116 -58.084  1.00  0.00     0.032 A 
HETATM   24  C   UNL     1     -42.940  55.939 -59.416  1.00  0.00     0.002 A 
HETATM   25  C   UNL     1     -42.208  56.928 -60.059  1.00  0.00     0.001 A 
BRANCH  18  26
HETATM   26  N   UNL     1     -41.205  60.447 -57.718  1.00  0.00    -0.286 NA
HETATM   27  H   UNL     1     -41.715  61.293 -57.474  1.00  0.00     0.125 HD
HETATM   28  H   UNL     1     -40.273  60.454 -57.318  1.00  0.00     0.125 HD
ENDBRANCH  18  26
ENDBRANCH  15  16
ENDBRANCH   1  15
TORSDOF 7
ENDMDL
MODEL 5
REMARK VINA RESULT:      -6.8      2.986      5.109
REMARK  7 active torsions:
REMARK  status: ('A' for Active; 'I' for Inactive)
REMARK    1  A    between atoms: C_2  and  N_3 
REMARK    2  A    between atoms: C_6  and  C_7 
REMARK    3  A    between atoms: C_7  and  O_8 
REMARK    4  A    between atoms: O_8  and  C_9 
REMARK    5  A    between atoms: C_9  and  C_10 
REMARK    6  A    between atoms: C_12  and  N_13 
REMARK    7  A    between atoms: C_22  and  N_23 
ROOT
HETATM    1  O   UNL     1     -44.018  56.272 -54.301  1.00  0.00    -0.310 OA
ENDROOT
BRANCH   1   2
HETATM    2  C   UNL     1     -43.325  57.298 -54.874  1.00  0.00     0.299 C 
HETATM    3  O   UNL     1     -43.239  57.480 -56.083  1.00  0.00    -0.259 OA
BRANCH   2   4
HETATM    4  C   UNL     1     -42.664  58.153 -53.910  1.00  0.00     0.103 A 
HETATM    5  C   UNL     1     -41.544  58.977 -54.162  1.00  0.00     0.160 A 
HETATM    6  N   UNL     1     -41.134  59.648 -53.085  1.00  0.00    -0.182 NA
HETATM    7  N   UNL     1     -41.962  59.219 -52.108  1.00  0.00    -0.250 N 
HETATM    8  C   UNL     1     -42.943  58.361 -52.569  1.00  0.00     0.136 A 
BRANCH   7   9
HETATM    9  C   UNL     1     -41.745  59.671 -50.736  1.00  0.00     0.104 C 
HETATM   10  C   UNL     1     -42.375  61.044 -50.512  1.00  0.00     0.034 C 
HETATM   11  C   UNL     1     -40.264  59.672 -50.345  1.00  0.00     0.034 C 
ENDBRANCH   7   9
BRANCH   8  12
HETATM   12  N   UNL     1     -43.922  57.860 -51.780  1.00  0.00    -0.383 N 
HETATM   13  H   UNL     1     -44.179  56.878 -51.892  1.00  0.00     0.157 HD
HETATM   14  H   UNL     1     -44.707  58.426 -51.470  1.00  0.00     0.157 HD
ENDBRANCH   8  12
ENDBRANCH   2   4
ENDBRANCH   1   2
BRANCH   1  15
HETATM   15  C   UNL     1     -43.458  54.971 -54.540  1.00  0.00     0.259 C 
BRANCH  15  16
HETATM   16  C   UNL     1     -42.501  54.489 -53.468  1.00  0.00     0.152 A 
HETATM   17  N   UNL     1     -41.638  53.503 -53.775  1.00  0.00    -0.219 NA
HETATM   18  C   UNL     1     -40.819  53.098 -52.795  1.00  0.00     0.115 A 
HETATM   19  C   UNL     1     -40.854  53.615 -51.495  1.00  0.00     0.033 A 
HETATM   20  C   UNL     1     -41.803  54.621 -51.285  1.00  0.00     0.072 A 
HETATM   21  C   UNL     1     -40.026  53.193 -50.426  1.00  0.00     0.017 A 
HETATM   22  N   UNL     1     -42.622  55.051 -52.250  1.00  0.00    -0.231 NA
HETATM   23  C   UNL     1     -41.895  55.190 -50.021  1.00  0.00     0.032 A 
HETATM   24  C   UNL     1     -41.074  54.783 -48.964  1.00  0.00     0.002 A 
HETATM   25  C   UNL     1     -40.137  53.779 -49.166  1.00  0.00     0.001 A 
BRANCH  18  26
HETATM   26  N   UNL     1     -39.918  52.090 -53.163  1.00  0.00    -0.286 NA
HETATM   27  H   UNL     1     -39.434  52.421 -53.995  1.00  0.00     0.125 HD
HETATM   28  H   UNL     1     -39.265  51.902 -52.411  1.00  0.00     0.125 HD
ENDBRANCH  18  26
ENDBRANCH  15  16
ENDBRANCH   1  15
TORSDOF 7
ENDMDL
MODEL 6
REMARK VINA RESULT:      -6.8     14.559     17.169
REMARK  7 active torsions:
REMARK  status: ('A' for Active; 'I' for Inactive)
REMARK    1  A    between atoms: C_2  and  N_3 
REMARK    2  A    between atoms: C_6  and  C_7 
REMARK    3  A    between atoms: C_7  and  O_8 
REMARK    4  A    between atoms: O_8  and  C_9 
REMARK    5  A    between atoms: C_9  and  C_10 
REMARK    6  A    between atoms: C_12  and  N_13 
REMARK    7  A    between atoms: C_22  and  N_23 
ROOT
HETATM    1  O   UNL     1     -36.552  42.613 -55.418  1.00  0.00    -0.310 OA
ENDROOT
BRANCH   1   2
HETATM    2  C   UNL     1     -35.762  42.183 -54.391  1.00  0.00     0.299 C 
HETATM    3  O   UNL     1     -35.856  42.581 -53.236  1.00  0.00    -0.259 OA
BRANCH   2   4
HETATM    4  C   UNL     1     -34.764  41.216 -54.802  1.00  0.00     0.103 A 
HETATM    5  C   UNL     1     -34.225  40.188 -53.996  1.00  0.00     0.160 A 
HETATM    6  N   UNL     1     -33.312  39.451 -54.629  1.00  0.00    -0.182 NA
HETATM    7  N   UNL     1     -33.215  40.036 -55.842  1.00  0.00    -0.250 N 
HETATM    8  C   UNL     1     -34.117  41.069 -56.017  1.00  0.00     0.136 A 
BRANCH   7   9
HETATM    9  C   UNL     1     -32.217  39.552 -56.794  1.00  0.00     0.104 C 
HETATM   10  C   UNL     1     -32.558  38.141 -57.266  1.00  0.00     0.034 C 
HETATM   11  C   UNL     1     -30.793  39.619 -56.235  1.00  0.00     0.034 C 
ENDBRANCH   7   9
BRANCH   8  12
HETATM   12  N   UNL     1     -34.245  41.755 -57.177  1.00  0.00    -0.383 N 
HETATM   13  H   UNL     1     -33.843  41.351 -58.025  1.00  0.00     0.157 HD
HETATM   14  H   UNL     1     -34.251  42.771 -57.205  1.00  0.00     0.157 HD
ENDBRANCH   8  12
ENDBRANCH   2   4
ENDBRANCH   1   2
BRANCH   1  15
HETATM   15  C   UNL     1     -37.649  41.739 -55.728  1.00  0.00     0.259 C 
BRANCH  15  16
HETATM   16  C   UNL     1     -37.655  41.212 -57.148  1.00  0.00     0.152 A 
HETATM   17  N   UNL     1     -37.398  42.070 -58.153  1.00  0.00    -0.219 NA
HETATM   18  C   UNL     1     -37.425  41.565 -59.393  1.00  0.00     0.115 A 
HETATM   19  C   UNL     1     -37.742  40.232 -59.679  1.00  0.00     0.033 A 
HETATM   20  C   UNL     1     -38.011  39.437 -58.560  1.00  0.00     0.072 A 
HETATM   21  C   UNL     1     -37.811  39.669 -60.977  1.00  0.00     0.017 A 
HETATM   22  N   UNL     1     -37.977  39.914 -57.312  1.00  0.00    -0.231 NA
HETATM   23  C   UNL     1     -38.328  38.099 -58.761  1.00  0.00     0.032 A 
HETATM   24  C   UNL     1     -38.388  37.536 -60.040  1.00  0.00     0.002 A 
HETATM   25  C   UNL     1     -38.131  38.324 -61.152  1.00  0.00     0.001 A 
BRANCH  18  26
HETATM   26  N   UNL     1     -37.125  42.484 -60.407  1.00  0.00    -0.286 NA
HETATM   27  H   UNL     1     -36.785  41.944 -61.200  1.00  0.00     0.125 HD
HETATM   28  H   UNL     1     -37.947  43.022 -60.658  1.00  0.00     0.125 HD
ENDBRANCH  18  26
ENDBRANCH  15  16
ENDBRANCH   1  15
TORSDOF 7
ENDMDL
MODEL 7
REMARK VINA RESULT:      -6.8      1.728      2.175
REMARK  7 active torsions:
REMARK  status: ('A' for Active; 'I' for Inactive)
REMARK    1  A    between atoms: C_2  and  N_3 
REMARK    2  A    between atoms: C_6  and  C_7 
REMARK    3  A    between atoms: C_7  and  O_8 
REMARK    4  A    between atoms: O_8  and  C_9 
REMARK    5  A    between atoms: C_9  and  C_10 
REMARK    6  A    between atoms: C_12  and  N_13 
REMARK    7  A    between atoms: C_22  and  N_23 
ROOT
HETATM    1  O   UNL     1     -44.420  56.907 -51.847  1.00  0.00    -0.310 OA
ENDROOT
BRANCH   1   2
HETATM    2  C   UNL     1     -43.607  57.917 -52.272  1.00  0.00     0.299 C 
HETATM    3  O   UNL     1     -43.168  58.800 -51.545  1.00  0.00    -0.259 OA
BRANCH   2   4
HETATM    4  C   UNL     1     -43.329  57.870 -53.693  1.00  0.00     0.103 A 
HETATM    5  C   UNL     1     -42.412  58.693 -54.386  1.00  0.00     0.160 A 
HETATM    6  N   UNL     1     -42.366  58.439 -55.695  1.00  0.00    -0.182 NA
HETATM    7  N   UNL     1     -43.300  57.478 -55.866  1.00  0.00    -0.250 N 
HETATM    8  C   UNL     1     -43.866  57.057 -54.677  1.00  0.00     0.136 A 
BRANCH   7   9
HETATM    9  C   UNL     1     -43.609  57.012 -57.216  1.00  0.00     0.104 C 
HETATM   10  C   UNL     1     -42.930  55.673 -57.495  1.00  0.00     0.034 C 
HETATM   11  C   UNL     1     -43.255  58.046 -58.289  1.00  0.00     0.034 C 
ENDBRANCH   7   9
BRANCH   8  12
HETATM   12  N   UNL     1     -44.775  56.057 -54.601  1.00  0.00    -0.383 N 
HETATM   13  H   UNL     1     -45.652  56.159 -55.115  1.00  0.00     0.157 HD
HETATM   14  H   UNL     1     -44.889  55.495 -53.762  1.00  0.00     0.157 HD
ENDBRANCH   8  12
ENDBRANCH   2   4
ENDBRANCH   1   2
BRANCH   1  15
HETATM   15  C   UNL     1     -43.930  56.193 -50.702  1.00  0.00     0.259 C 
BRANCH  15  16
HETATM   16  C   UNL     1     -42.876  55.149 -51.011  1.00  0.00     0.152 A 
HETATM   17  N   UNL     1     -42.053  54.756 -50.021  1.00  0.00    -0.219 NA
HETATM   18  C   UNL     1     -41.128  53.841 -50.341  1.00  0.00     0.115 A 
HETATM   19  C   UNL     1     -40.962  53.327 -51.632  1.00  0.00     0.033 A 
HETATM   20  C   UNL     1     -41.859  53.822 -52.584  1.00  0.00     0.072 A 
HETATM   21  C   UNL     1     -39.978  52.382 -52.015  1.00  0.00     0.017 A 
HETATM   22  N   UNL     1     -42.799  54.725 -52.287  1.00  0.00    -0.231 NA
HETATM   23  C   UNL     1     -41.763  53.354 -53.889  1.00  0.00     0.032 A 
HETATM   24  C   UNL     1     -40.799  52.415 -54.270  1.00  0.00     0.002 A 
HETATM   25  C   UNL     1     -39.901  51.929 -53.330  1.00  0.00     0.001 A 
BRANCH  18  26
HETATM   26  N   UNL     1     -40.310  53.437 -49.277  1.00  0.00    -0.286 NA
HETATM   27  H   UNL     1     -40.451  54.112 -48.528  1.00  0.00     0.125 HD
HETATM   28  H   UNL     1     -40.552  52.500 -48.975  1.00  0.00     0.125 HD
ENDBRANCH  18  26
ENDBRANCH  15  16
ENDBRANCH   1  15
TORSDOF 7
ENDMDL
MODEL 8
REMARK VINA RESULT:      -6.7      1.391      2.207
REMARK  7 active torsions:
REMARK  status: ('A' for Active; 'I' for Inactive)
REMARK    1  A    between atoms: C_2  and  N_3 
REMARK    2  A    between atoms: C_6  and  C_7 
REMARK    3  A    between atoms: C_7  and  O_8 
REMARK    4  A    between atoms: O_8  and  C_9 
REMARK    5  A    between atoms: C_9  and  C_10 
REMARK    6  A    between atoms: C_12  and  N_13 
REMARK    7  A    between atoms: C_22  and  N_23 
ROOT
HETATM    1  O   UNL     1     -44.397  56.620 -54.225  1.00  0.00    -0.310 OA
ENDROOT
BRANCH   1   2
HETATM    2  C   UNL     1     -44.621  57.795 -54.883  1.00  0.00     0.299 C 
HETATM    3  O   UNL     1     -45.266  58.730 -54.423  1.00  0.00    -0.259 OA
BRANCH   2   4
HETATM    4  C   UNL     1     -44.042  57.828 -56.210  1.00  0.00     0.103 A 
HETATM    5  C   UNL     1     -43.837  58.984 -56.997  1.00  0.00     0.160 A 
HETATM    6  N   UNL     1     -43.297  58.718 -58.187  1.00  0.00    -0.182 NA
HETATM    7  N   UNL     1     -43.195  57.371 -58.197  1.00  0.00    -0.250 N 
HETATM    8  C   UNL     1     -43.575  56.791 -57.002  1.00  0.00     0.136 A 
BRANCH   7   9
HETATM    9  C   UNL     1     -42.729  56.698 -59.408  1.00  0.00     0.104 C 
HETATM   10  C   UNL     1     -41.811  57.612 -60.217  1.00  0.00     0.034 C 
HETATM   11  C   UNL     1     -43.881  56.171 -60.268  1.00  0.00     0.034 C 
ENDBRANCH   7   9
BRANCH   8  12
HETATM   12  N   UNL     1     -43.493  55.461 -56.762  1.00  0.00    -0.383 N 
HETATM   13  H   UNL     1     -44.107  55.059 -56.051  1.00  0.00     0.157 HD
HETATM   14  H   UNL     1     -42.617  54.953 -56.841  1.00  0.00     0.157 HD
ENDBRANCH   8  12
ENDBRANCH   2   4
ENDBRANCH   1   2
BRANCH   1  15
HETATM   15  C   UNL     1     -43.411  56.702 -53.183  1.00  0.00     0.259 C 
BRANCH  15  16
HETATM   16  C   UNL     1     -42.387  55.586 -53.192  1.00  0.00     0.152 A 
HETATM   17  N   UNL     1     -41.761  55.300 -54.349  1.00  0.00    -0.219 NA
HETATM   18  C   UNL     1     -40.872  54.298 -54.316  1.00  0.00     0.115 A 
HETATM   19  C   UNL     1     -40.610  53.534 -53.173  1.00  0.00     0.033 A 
HETATM   20  C   UNL     1     -41.333  53.907 -52.035  1.00  0.00     0.072 A 
HETATM   21  C   UNL     1     -39.701  52.449 -53.106  1.00  0.00     0.017 A 
HETATM   22  N   UNL     1     -42.215  54.911 -52.039  1.00  0.00    -0.231 NA
HETATM   23  C   UNL     1     -41.123  53.200 -50.857  1.00  0.00     0.032 A 
HETATM   24  C   UNL     1     -40.220  52.134 -50.783  1.00  0.00     0.002 A 
HETATM   25  C   UNL     1     -39.509  51.755 -51.913  1.00  0.00     0.001 A 
BRANCH  18  26
HETATM   26  N   UNL     1     -40.221  54.051 -55.532  1.00  0.00    -0.286 NA
HETATM   27  H   UNL     1     -40.802  54.459 -56.261  1.00  0.00     0.125 HD
HETATM   28  H   UNL     1     -39.294  54.459 -55.531  1.00  0.00     0.125 HD
ENDBRANCH  18  26
ENDBRANCH  15  16
ENDBRANCH   1  15
TORSDOF 7
ENDMDL
MODEL 9
REMARK VINA RESULT:      -6.7      2.046      3.016
REMARK  7 active torsions:
REMARK  status: ('A' for Active; 'I' for Inactive)
REMARK    1  A    between atoms: C_2  and  N_3 
REMARK    2  A    between atoms: C_6  and  C_7 
REMARK    3  A    between atoms: C_7  and  O_8 
REMARK    4  A    between atoms: O_8  and  C_9 
REMARK    5  A    between atoms: C_9  and  C_10 
REMARK    6  A    between atoms: C_12  and  N_13 
REMARK    7  A    between atoms: C_22  and  N_23 
ROOT
HETATM    1  O   UNL     1     -42.599  57.016 -52.034  1.00  0.00    -0.310 OA
ENDROOT
BRANCH   1   2
HETATM    2  C   UNL     1     -42.348  58.343 -52.231  1.00  0.00     0.299 C 
HETATM    3  O   UNL     1     -42.223  59.162 -51.327  1.00  0.00    -0.259 OA
BRANCH   2   4
HETATM    4  C   UNL     1     -42.270  58.711 -53.630  1.00  0.00     0.103 A 
HETATM    5  C   UNL     1     -41.716  59.906 -54.144  1.00  0.00     0.160 A 
HETATM    6  N   UNL     1     -41.788  59.987 -55.473  1.00  0.00    -0.182 NA
HETATM    7  N   UNL     1     -42.443  58.860 -55.826  1.00  0.00    -0.250 N 
HETATM    8  C   UNL     1     -42.701  58.026 -54.754  1.00  0.00     0.136 A 
BRANCH   7   9
HETATM    9  C   UNL     1     -42.802  58.649 -57.227  1.00  0.00     0.104 C 
HETATM   10  C   UNL     1     -41.803  59.342 -58.152  1.00  0.00     0.034 C 
HETATM   11  C   UNL     1     -44.237  59.083 -57.538  1.00  0.00     0.034 C 
ENDBRANCH   7   9
BRANCH   8  12
HETATM   12  N   UNL     1     -43.287  56.812 -54.881  1.00  0.00    -0.383 N 
HETATM   13  H   UNL     1     -44.021  56.700 -55.582  1.00  0.00     0.157 HD
HETATM   14  H   UNL     1     -43.421  56.194 -54.086  1.00  0.00     0.157 HD
ENDBRANCH   8  12
ENDBRANCH   2   4
ENDBRANCH   1   2
BRANCH   1  15
HETATM   15  C   UNL     1     -41.518  56.292 -51.427  1.00  0.00     0.259 C 
BRANCH  15  16
HETATM   16  C   UNL     1     -41.048  55.084 -52.211  1.00  0.00     0.152 A 
HETATM   17  N   UNL     1     -41.024  55.160 -53.554  1.00  0.00    -0.219 NA
HETATM   18  C   UNL     1     -40.613  54.066 -54.209  1.00  0.00     0.115 A 
HETATM   19  C   UNL     1     -40.261  52.870 -53.572  1.00  0.00     0.033 A 
HETATM   20  C   UNL     1     -40.343  52.899 -52.175  1.00  0.00     0.072 A 
HETATM   21  C   UNL     1     -39.852  51.684 -54.229  1.00  0.00     0.017 A 
HETATM   22  N   UNL     1     -40.737  53.982 -51.500  1.00  0.00    -0.231 NA
HETATM   23  C   UNL     1     -40.003  51.751 -51.470  1.00  0.00     0.032 A 
HETATM   24  C   UNL     1     -39.590  50.581 -52.114  1.00  0.00     0.002 A 
HETATM   25  C   UNL     1     -39.516  50.546 -53.499  1.00  0.00     0.001 A 
BRANCH  18  26
HETATM   26  N   UNL     1     -40.575  54.196 -55.603  1.00  0.00    -0.286 NA
HETATM   27  H   UNL     1     -41.231  54.936 -55.845  1.00  0.00     0.125 HD
HETATM   28  H   UNL     1     -39.638  54.421 -55.917  1.00  0.00     0.125 HD
ENDBRANCH  18  26
ENDBRANCH  15  16
ENDBRANCH   1  15
TORSDOF 7
ENDMDL
MODEL 10
REMARK VINA RESULT:      -6.7      2.584      4.551
REMARK  7 active torsions:
REMARK  status: ('A' for Active; 'I' for Inactive)
REMARK    1  A    between atoms: C_2  and  N_3 
REMARK    2  A    between atoms: C_6  and  C_7 
REMARK    3  A    between atoms: C_7  and  O_8 
REMARK    4  A    between atoms: O_8  and  C_9 
REMARK    5  A    between atoms: C_9  and  C_10 
REMARK    6  A    between atoms: C_12  and  N_13 
REMARK    7  A    between atoms: C_22  and  N_23 
ROOT
HETATM    1  O   UNL     1     -42.665  56.574 -55.615  1.00  0.00    -0.310 OA
ENDROOT
BRANCH   1   2
HETATM    2  C   UNL     1     -43.297  57.747 -55.321  1.00  0.00     0.299 C 
HETATM    3  O   UNL     1     -44.272  58.175 -55.927  1.00  0.00    -0.259 OA
BRANCH   2   4
HETATM    4  C   UNL     1     -42.684  58.469 -54.225  1.00  0.00     0.103 A 
HETATM    5  C   UNL     1     -41.633  59.408 -54.335  1.00  0.00     0.160 A 
HETATM    6  N   UNL     1     -41.255  59.911 -53.160  1.00  0.00    -0.182 NA
HETATM    7  N   UNL     1     -42.031  59.256 -52.269  1.00  0.00    -0.250 N 
HETATM    8  C   UNL     1     -42.953  58.419 -52.867  1.00  0.00     0.136 A 
BRANCH   7   9
HETATM    9  C   UNL     1     -41.822  59.479 -50.839  1.00  0.00     0.104 C 
HETATM   10  C   UNL     1     -42.463  60.792 -50.396  1.00  0.00     0.034 C 
HETATM   11  C   UNL     1     -40.343  59.425 -50.446  1.00  0.00     0.034 C 
ENDBRANCH   7   9
BRANCH   8  12
HETATM   12  N   UNL     1     -43.877  57.715 -52.173  1.00  0.00    -0.383 N 
HETATM   13  H   UNL     1     -43.812  56.695 -52.176  1.00  0.00     0.157 HD
HETATM   14  H   UNL     1     -44.837  58.035 -52.075  1.00  0.00     0.157 HD
ENDBRANCH   8  12
ENDBRANCH   2   4
ENDBRANCH   1   2
BRANCH   1  15
HETATM   15  C   UNL     1     -43.283  55.408 -55.047  1.00  0.00     0.259 C 
BRANCH  15  16
HETATM   16  C   UNL     1     -42.400  54.623 -54.099  1.00  0.00     0.152 A 
HETATM   17  N   UNL     1     -42.201  55.106 -52.859  1.00  0.00    -0.219 NA
HETATM   18  C   UNL     1     -41.403  54.387 -52.058  1.00  0.00     0.115 A 
HETATM   19  C   UNL     1     -40.755  53.214 -52.462  1.00  0.00     0.033 A 
HETATM   20  C   UNL     1     -41.018  52.817 -53.777  1.00  0.00     0.072 A 
HETATM   21  C   UNL     1     -39.882  52.444 -51.655  1.00  0.00     0.017 A 
HETATM   22  N   UNL     1     -41.821  53.510 -54.591  1.00  0.00    -0.231 NA
HETATM   23  C   UNL     1     -40.417  51.658 -54.251  1.00  0.00     0.032 A 
HETATM   24  C   UNL     1     -39.561  50.889 -53.455  1.00  0.00     0.002 A 
HETATM   25  C   UNL     1     -39.291  51.285 -52.153  1.00  0.00     0.001 A 
BRANCH  18  26
HETATM   26  N   UNL     1     -41.245  54.908 -50.767  1.00  0.00    -0.286 NA
HETATM   27  H   UNL     1     -40.879  54.153 -50.190  1.00  0.00     0.125 HD
HETATM   28  H   UNL     1     -40.613  55.701 -50.776  1.00  0.00     0.125 HD
ENDBRANCH  18  26
ENDBRANCH  15  16
ENDBRANCH   1  15
TORSDOF 7
ENDMDL
