MODEL 1
REMARK VINA RESULT:      -7.9      0.000      0.000
REMARK  9 active torsions:
REMARK  status: ('A' for Active; 'I' for Inactive)
REMARK    1  A    between atoms: C_2  and  N_3 
REMARK    2  A    between atoms: C_4  and  S_5 
REMARK    3  A    between atoms: S_5  and  C_6 
REMARK    4  A    between atoms: C_6  and  C_7 
REMARK       I    between atoms: C_7  and  N_8 
REMARK    5  A    between atoms: N_8  and  C_9 
REMARK    6  A    between atoms: C_9  and  C_10 
REMARK    7  A    between atoms: C_10  and  O_11 
REMARK    8  A    between atoms: O_11  and  C_12 
REMARK    9  A    between atoms: C_22  and  C_23 
ROOT
HETATM    1  C   UNL     1     -41.832  57.981 -52.296  1.00  0.00     0.185 C 
ENDROOT
BRANCH   1   2
HETATM    2  S   UNL     1     -43.031  56.856 -53.066  1.00  0.00    -0.081 SA
BRANCH   2   3
HETATM    3  C   UNL     1     -41.954  55.595 -53.560  1.00  0.00     0.192 A 
HETATM    4  N   UNL     1     -41.946  54.327 -53.040  1.00  0.00    -0.308 N 
HETATM    5  C   UNL     1     -40.896  53.680 -53.666  1.00  0.00     0.164 A 
HETATM    6  N   UNL     1     -40.339  54.524 -54.518  1.00  0.00    -0.128 NA
HETATM    7  N   UNL     1     -41.012  55.715 -54.462  1.00  0.00    -0.122 NA
BRANCH   4   8
HETATM    8  C   UNL     1     -42.770  53.821 -51.962  1.00  0.00     0.128 C 
HETATM    9  C   UNL     1     -42.261  54.224 -50.586  1.00  0.00     0.027 C 
ENDBRANCH   4   8
BRANCH   5  10
HETATM   10  C   UNL     1     -40.403  52.331 -53.394  1.00  0.00     0.012 A 
HETATM   11  C   UNL     1     -40.555  51.340 -54.374  1.00  0.00     0.015 A 
HETATM   12  C   UNL     1     -40.104  50.038 -54.148  1.00  0.00     0.001 A 
HETATM   13  C   UNL     1     -39.506  49.710 -52.934  1.00  0.00     0.000 A 
HETATM   14  C   UNL     1     -39.369  50.680 -51.943  1.00  0.00     0.001 A 
HETATM   15  C   UNL     1     -39.822  51.984 -52.169  1.00  0.00     0.015 A 
ENDBRANCH   5  10
ENDBRANCH   2   3
ENDBRANCH   1   2
BRANCH   1  16
HETATM   16  C   UNL     1     -41.380  59.026 -53.300  1.00  0.00     0.227 C 
HETATM   17  N   UNL     1     -42.373  59.479 -54.146  1.00  0.00    -0.358 N 
HETATM   18  H   UNL     1     -43.297  59.070 -54.088  1.00  0.00     0.162 HD
HETATM   19  O   UNL     1     -40.222  59.431 -53.359  1.00  0.00    -0.273 OA
BRANCH  17  20
HETATM   20  C   UNL     1     -42.077  60.333 -55.282  1.00  0.00     0.149 C 
BRANCH  20  21
HETATM   21  C   UNL     1     -42.537  59.782 -56.632  1.00  0.00     0.195 C 
BRANCH  21  22
HETATM   22  O   UNL     1     -42.502  58.354 -56.548  1.00  0.00    -0.350 OA
BRANCH  22  23
HETATM   23  C   UNL     1     -42.604  57.654 -57.718  1.00  0.00     0.069 A 
HETATM   24  C   UNL     1     -43.355  56.493 -57.918  1.00  0.00     0.043 A 
HETATM   25  C   UNL     1     -43.380  55.870 -59.177  1.00  0.00    -0.059 A 
HETATM   26  C   UNL     1     -44.177  54.618 -59.401  1.00  0.00     0.048 C 
HETATM   27  C   UNL     1     -42.635  56.416 -60.229  1.00  0.00     0.007 A 
HETATM   28  C   UNL     1     -41.880  57.570 -60.031  1.00  0.00     0.003 A 
HETATM   29  C   UNL     1     -41.866  58.183 -58.779  1.00  0.00     0.037 A 
ENDBRANCH  22  23
ENDBRANCH  21  22
ENDBRANCH  20  21
ENDBRANCH  17  20
ENDBRANCH   1  16
TORSDOF 9
ENDMDL
MODEL 2
REMARK VINA RESULT:      -7.8      1.445      1.839
REMARK  9 active torsions:
REMARK  status: ('A' for Active; 'I' for Inactive)
REMARK    1  A    between atoms: C_2  and  N_3 
REMARK    2  A    between atoms: C_4  and  S_5 
REMARK    3  A    between atoms: S_5  and  C_6 
REMARK    4  A    between atoms: C_6  and  C_7 
REMARK       I    between atoms: C_7  and  N_8 
REMARK    5  A    between atoms: N_8  and  C_9 
REMARK    6  A    between atoms: C_9  and  C_10 
REMARK    7  A    between atoms: C_10  and  O_11 
REMARK    8  A    between atoms: O_11  and  C_12 
REMARK    9  A    between atoms: C_22  and  C_23 
ROOT
HETATM    1  C   UNL     1     -41.117  58.676 -53.301  1.00  0.00     0.185 C 
ENDROOT
BRANCH   1   2
HETATM    2  S   UNL     1     -42.050  57.380 -52.437  1.00  0.00    -0.081 SA
BRANCH   2   3
HETATM    3  C   UNL     1     -41.325  55.985 -53.159  1.00  0.00     0.192 A 
HETATM    4  N   UNL     1     -41.373  54.720 -52.633  1.00  0.00    -0.308 N 
HETATM    5  C   UNL     1     -40.617  53.938 -53.488  1.00  0.00     0.164 A 
HETATM    6  N   UNL     1     -40.172  54.707 -54.467  1.00  0.00    -0.128 NA
HETATM    7  N   UNL     1     -40.629  55.983 -54.269  1.00  0.00    -0.122 NA
BRANCH   4   8
HETATM    8  C   UNL     1     -41.969  54.320 -51.375  1.00  0.00     0.128 C 
HETATM    9  C   UNL     1     -43.445  53.979 -51.500  1.00  0.00     0.027 C 
ENDBRANCH   4   8
BRANCH   5  10
HETATM   10  C   UNL     1     -40.274  52.527 -53.322  1.00  0.00     0.012 A 
HETATM   11  C   UNL     1     -40.489  51.643 -54.389  1.00  0.00     0.015 A 
HETATM   12  C   UNL     1     -40.182  50.287 -54.266  1.00  0.00     0.001 A 
HETATM   13  C   UNL     1     -39.664  49.798 -53.068  1.00  0.00     0.000 A 
HETATM   14  C   UNL     1     -39.466  50.661 -51.993  1.00  0.00     0.001 A 
HETATM   15  C   UNL     1     -39.776  52.019 -52.117  1.00  0.00     0.015 A 
ENDBRANCH   5  10
ENDBRANCH   2   3
ENDBRANCH   1   2
BRANCH   1  16
HETATM   16  C   UNL     1     -41.930  59.215 -54.463  1.00  0.00     0.227 C 
HETATM   17  N   UNL     1     -43.261  58.848 -54.455  1.00  0.00    -0.358 N 
HETATM   18  H   UNL     1     -43.598  58.224 -53.733  1.00  0.00     0.162 HD
HETATM   19  O   UNL     1     -41.440  59.916 -55.346  1.00  0.00    -0.273 OA
BRANCH  17  20
HETATM   20  C   UNL     1     -44.133  59.116 -55.584  1.00  0.00     0.149 C 
BRANCH  20  21
HETATM   21  C   UNL     1     -44.633  57.869 -56.315  1.00  0.00     0.195 C 
BRANCH  21  22
HETATM   22  O   UNL     1     -43.819  57.699 -57.479  1.00  0.00    -0.350 OA
BRANCH  22  23
HETATM   23  C   UNL     1     -44.319  56.923 -58.488  1.00  0.00     0.069 A 
HETATM   24  C   UNL     1     -45.544  57.105 -59.135  1.00  0.00     0.043 A 
HETATM   25  C   UNL     1     -45.940  56.236 -60.165  1.00  0.00    -0.059 A 
HETATM   26  C   UNL     1     -47.257  56.418 -60.862  1.00  0.00     0.048 C 
HETATM   27  C   UNL     1     -45.103  55.175 -60.530  1.00  0.00     0.007 A 
HETATM   28  C   UNL     1     -43.884  54.987 -59.882  1.00  0.00     0.003 A 
HETATM   29  C   UNL     1     -43.497  55.859 -58.864  1.00  0.00     0.037 A 
ENDBRANCH  22  23
ENDBRANCH  21  22
ENDBRANCH  20  21
ENDBRANCH  17  20
ENDBRANCH   1  16
TORSDOF 9
ENDMDL
MODEL 3
REMARK VINA RESULT:      -7.6      2.303      7.240
REMARK  9 active torsions:
REMARK  status: ('A' for Active; 'I' for Inactive)
REMARK    1  A    between atoms: C_2  and  N_3 
REMARK    2  A    between atoms: C_4  and  S_5 
REMARK    3  A    between atoms: S_5  and  C_6 
REMARK    4  A    between atoms: C_6  and  C_7 
REMARK       I    between atoms: C_7  and  N_8 
REMARK    5  A    between atoms: N_8  and  C_9 
REMARK    6  A    between atoms: C_9  and  C_10 
REMARK    7  A    between atoms: C_10  and  O_11 
REMARK    8  A    between atoms: O_11  and  C_12 
REMARK    9  A    between atoms: C_22  and  C_23 
ROOT
HETATM    1  C   UNL     1     -42.421  57.999 -51.713  1.00  0.00     0.185 C 
ENDROOT
BRANCH   1   2
HETATM    2  S   UNL     1     -40.867  58.180 -52.635  1.00  0.00    -0.081 SA
BRANCH   2   3
HETATM    3  C   UNL     1     -41.501  58.738 -54.145  1.00  0.00     0.192 A 
HETATM    4  N   UNL     1     -42.000  57.925 -55.129  1.00  0.00    -0.308 N 
HETATM    5  C   UNL     1     -42.330  58.772 -56.173  1.00  0.00     0.164 A 
HETATM    6  N   UNL     1     -42.052  60.011 -55.803  1.00  0.00    -0.128 NA
HETATM    7  N   UNL     1     -41.549  59.989 -54.530  1.00  0.00    -0.122 NA
BRANCH   4   8
HETATM    8  C   UNL     1     -42.041  56.477 -55.128  1.00  0.00     0.128 C 
HETATM    9  C   UNL     1     -43.416  55.922 -54.794  1.00  0.00     0.027 C 
ENDBRANCH   4   8
BRANCH   5  10
HETATM   10  C   UNL     1     -42.815  58.391 -57.498  1.00  0.00     0.012 A 
HETATM   11  C   UNL     1     -41.893  58.245 -58.544  1.00  0.00     0.015 A 
HETATM   12  C   UNL     1     -42.319  57.891 -59.826  1.00  0.00     0.001 A 
HETATM   13  C   UNL     1     -43.674  57.688 -60.077  1.00  0.00     0.000 A 
HETATM   14  C   UNL     1     -44.603  57.852 -59.051  1.00  0.00     0.001 A 
HETATM   15  C   UNL     1     -44.176  58.208 -57.768  1.00  0.00     0.015 A 
ENDBRANCH   5  10
ENDBRANCH   2   3
ENDBRANCH   1   2
BRANCH   1  16
HETATM   16  C   UNL     1     -42.459  56.652 -51.016  1.00  0.00     0.227 C 
HETATM   17  N   UNL     1     -41.501  56.484 -50.035  1.00  0.00    -0.358 N 
HETATM   18  H   UNL     1     -40.823  57.218 -49.875  1.00  0.00     0.162 HD
HETATM   19  O   UNL     1     -43.272  55.778 -51.306  1.00  0.00    -0.273 OA
BRANCH  17  20
HETATM   20  C   UNL     1     -41.274  55.198 -49.402  1.00  0.00     0.149 C 
BRANCH  20  21
HETATM   21  C   UNL     1     -40.018  54.466 -49.877  1.00  0.00     0.195 C 
BRANCH  21  22
HETATM   22  O   UNL     1     -40.407  53.140 -50.245  1.00  0.00    -0.350 OA
BRANCH  22  23
HETATM   23  C   UNL     1     -40.293  52.795 -51.563  1.00  0.00     0.069 A 
HETATM   24  C   UNL     1     -39.897  51.549 -52.056  1.00  0.00     0.043 A 
HETATM   25  C   UNL     1     -39.826  51.321 -53.440  1.00  0.00    -0.059 A 
HETATM   26  C   UNL     1     -39.394  49.990 -53.980  1.00  0.00     0.048 C 
HETATM   27  C   UNL     1     -40.145  52.358 -54.325  1.00  0.00     0.007 A 
HETATM   28  C   UNL     1     -40.535  53.604 -53.837  1.00  0.00     0.003 A 
HETATM   29  C   UNL     1     -40.607  53.818 -52.461  1.00  0.00     0.037 A 
ENDBRANCH  22  23
ENDBRANCH  21  22
ENDBRANCH  20  21
ENDBRANCH  17  20
ENDBRANCH   1  16
TORSDOF 9
ENDMDL
MODEL 4
REMARK VINA RESULT:      -7.6      1.483      2.083
REMARK  9 active torsions:
REMARK  status: ('A' for Active; 'I' for Inactive)
REMARK    1  A    between atoms: C_2  and  N_3 
REMARK    2  A    between atoms: C_4  and  S_5 
REMARK    3  A    between atoms: S_5  and  C_6 
REMARK    4  A    between atoms: C_6  and  C_7 
REMARK       I    between atoms: C_7  and  N_8 
REMARK    5  A    between atoms: N_8  and  C_9 
REMARK    6  A    between atoms: C_9  and  C_10 
REMARK    7  A    between atoms: C_10  and  O_11 
REMARK    8  A    between atoms: O_11  and  C_12 
REMARK    9  A    between atoms: C_22  and  C_23 
ROOT
HETATM    1  C   UNL     1     -40.682  58.059 -51.197  1.00  0.00     0.185 C 
ENDROOT
BRANCH   1   2
HETATM    2  S   UNL     1     -42.029  56.857 -50.999  1.00  0.00    -0.081 SA
BRANCH   2   3
HETATM    3  C   UNL     1     -41.095  55.405 -50.896  1.00  0.00     0.192 A 
HETATM    4  N   UNL     1     -41.117  54.396 -51.823  1.00  0.00    -0.308 N 
HETATM    5  C   UNL     1     -40.284  53.414 -51.318  1.00  0.00     0.164 A 
HETATM    6  N   UNL     1     -39.790  53.842 -50.168  1.00  0.00    -0.128 NA
HETATM    7  N   UNL     1     -40.285  55.093 -49.914  1.00  0.00    -0.122 NA
BRANCH   4   8
HETATM    8  C   UNL     1     -41.948  54.316 -53.007  1.00  0.00     0.128 C 
HETATM    9  C   UNL     1     -41.272  54.882 -54.246  1.00  0.00     0.027 C 
ENDBRANCH   4   8
BRANCH   5  10
HETATM   10  C   UNL     1     -40.039  52.088 -51.882  1.00  0.00     0.012 A 
HETATM   11  C   UNL     1     -39.867  51.000 -51.015  1.00  0.00     0.015 A 
HETATM   12  C   UNL     1     -39.624  49.719 -51.515  1.00  0.00     0.001 A 
HETATM   13  C   UNL     1     -39.539  49.515 -52.891  1.00  0.00     0.000 A 
HETATM   14  C   UNL     1     -39.686  50.592 -53.763  1.00  0.00     0.001 A 
HETATM   15  C   UNL     1     -39.928  51.874 -53.261  1.00  0.00     0.015 A 
ENDBRANCH   5  10
ENDBRANCH   2   3
ENDBRANCH   1   2
BRANCH   1  16
HETATM   16  C   UNL     1     -40.639  58.561 -52.628  1.00  0.00     0.227 C 
HETATM   17  N   UNL     1     -41.791  58.331 -53.354  1.00  0.00    -0.358 N 
HETATM   18  H   UNL     1     -42.551  57.817 -52.927  1.00  0.00     0.162 HD
HETATM   19  O   UNL     1     -39.655  59.121 -53.105  1.00  0.00    -0.273 OA
BRANCH  17  20
HETATM   20  C   UNL     1     -41.853  58.574 -54.784  1.00  0.00     0.149 C 
BRANCH  20  21
HETATM   21  C   UNL     1     -43.208  58.269 -55.425  1.00  0.00     0.195 C 
BRANCH  21  22
HETATM   22  O   UNL     1     -43.208  58.858 -56.729  1.00  0.00    -0.350 OA
BRANCH  22  23
HETATM   23  C   UNL     1     -43.026  58.022 -57.795  1.00  0.00     0.069 A 
HETATM   24  C   UNL     1     -43.714  56.830 -58.032  1.00  0.00     0.043 A 
HETATM   25  C   UNL     1     -43.435  56.062 -59.175  1.00  0.00    -0.059 A 
HETATM   26  C   UNL     1     -44.163  54.776 -59.435  1.00  0.00     0.048 C 
HETATM   27  C   UNL     1     -42.450  56.495 -60.070  1.00  0.00     0.007 A 
HETATM   28  C   UNL     1     -41.757  57.680 -59.833  1.00  0.00     0.003 A 
HETATM   29  C   UNL     1     -42.046  58.438 -58.699  1.00  0.00     0.037 A 
ENDBRANCH  22  23
ENDBRANCH  21  22
ENDBRANCH  20  21
ENDBRANCH  17  20
ENDBRANCH   1  16
TORSDOF 9
ENDMDL
MODEL 5
REMARK VINA RESULT:      -7.2      2.107      6.930
REMARK  9 active torsions:
REMARK  status: ('A' for Active; 'I' for Inactive)
REMARK    1  A    between atoms: C_2  and  N_3 
REMARK    2  A    between atoms: C_4  and  S_5 
REMARK    3  A    between atoms: S_5  and  C_6 
REMARK    4  A    between atoms: C_6  and  C_7 
REMARK       I    between atoms: C_7  and  N_8 
REMARK    5  A    between atoms: N_8  and  C_9 
REMARK    6  A    between atoms: C_9  and  C_10 
REMARK    7  A    between atoms: C_10  and  O_11 
REMARK    8  A    between atoms: O_11  and  C_12 
REMARK    9  A    between atoms: C_22  and  C_23 
ROOT
HETATM    1  C   UNL     1     -42.923  58.644 -52.052  1.00  0.00     0.185 C 
ENDROOT
BRANCH   1   2
HETATM    2  S   UNL     1     -44.089  57.391 -52.659  1.00  0.00    -0.081 SA
BRANCH   2   3
HETATM    3  C   UNL     1     -43.359  57.048 -54.190  1.00  0.00     0.192 A 
HETATM    4  N   UNL     1     -43.956  57.262 -55.404  1.00  0.00    -0.308 N 
HETATM    5  C   UNL     1     -43.056  56.791 -56.344  1.00  0.00     0.164 A 
HETATM    6  N   UNL     1     -41.987  56.345 -55.706  1.00  0.00    -0.128 NA
HETATM    7  N   UNL     1     -42.171  56.522 -54.360  1.00  0.00    -0.122 NA
BRANCH   4   8
HETATM    8  C   UNL     1     -45.300  57.746 -55.643  1.00  0.00     0.128 C 
HETATM    9  C   UNL     1     -45.350  59.237 -55.938  1.00  0.00     0.027 C 
ENDBRANCH   4   8
BRANCH   5  10
HETATM   10  C   UNL     1     -43.255  56.701 -57.789  1.00  0.00     0.012 A 
HETATM   11  C   UNL     1     -43.034  57.838 -58.579  1.00  0.00     0.015 A 
HETATM   12  C   UNL     1     -43.221  57.794 -59.962  1.00  0.00     0.001 A 
HETATM   13  C   UNL     1     -43.644  56.614 -60.569  1.00  0.00     0.000 A 
HETATM   14  C   UNL     1     -43.889  55.483 -59.793  1.00  0.00     0.001 A 
HETATM   15  C   UNL     1     -43.702  55.528 -58.408  1.00  0.00     0.015 A 
ENDBRANCH   5  10
ENDBRANCH   2   3
ENDBRANCH   1   2
BRANCH   1  16
HETATM   16  C   UNL     1     -41.905  58.002 -51.128  1.00  0.00     0.227 C 
HETATM   17  N   UNL     1     -41.914  56.622 -51.130  1.00  0.00    -0.358 N 
HETATM   18  H   UNL     1     -42.604  56.132 -51.686  1.00  0.00     0.162 HD
HETATM   19  O   UNL     1     -41.138  58.660 -50.427  1.00  0.00    -0.273 OA
BRANCH  17  20
HETATM   20  C   UNL     1     -41.142  55.852 -50.172  1.00  0.00     0.149 C 
BRANCH  20  21
HETATM   21  C   UNL     1     -41.319  54.336 -50.280  1.00  0.00     0.195 C 
BRANCH  21  22
HETATM   22  O   UNL     1     -40.081  53.791 -50.745  1.00  0.00    -0.350 OA
BRANCH  22  23
HETATM   23  C   UNL     1     -40.119  53.018 -51.872  1.00  0.00     0.069 A 
HETATM   24  C   UNL     1     -39.740  51.677 -51.962  1.00  0.00     0.043 A 
HETATM   25  C   UNL     1     -39.834  50.991 -53.185  1.00  0.00    -0.059 A 
HETATM   26  C   UNL     1     -39.422  49.553 -53.295  1.00  0.00     0.048 C 
HETATM   27  C   UNL     1     -40.299  51.668 -54.319  1.00  0.00     0.007 A 
HETATM   28  C   UNL     1     -40.672  53.008 -54.233  1.00  0.00     0.003 A 
HETATM   29  C   UNL     1     -40.580  53.678 -53.014  1.00  0.00     0.037 A 
ENDBRANCH  22  23
ENDBRANCH  21  22
ENDBRANCH  20  21
ENDBRANCH  17  20
ENDBRANCH   1  16
TORSDOF 9
ENDMDL
MODEL 6
REMARK VINA RESULT:      -7.2      4.620      7.482
REMARK  9 active torsions:
REMARK  status: ('A' for Active; 'I' for Inactive)
REMARK    1  A    between atoms: C_2  and  N_3 
REMARK    2  A    between atoms: C_4  and  S_5 
REMARK    3  A    between atoms: S_5  and  C_6 
REMARK    4  A    between atoms: C_6  and  C_7 
REMARK       I    between atoms: C_7  and  N_8 
REMARK    5  A    between atoms: N_8  and  C_9 
REMARK    6  A    between atoms: C_9  and  C_10 
REMARK    7  A    between atoms: C_10  and  O_11 
REMARK    8  A    between atoms: O_11  and  C_12 
REMARK    9  A    between atoms: C_22  and  C_23 
ROOT
HETATM    1  C   UNL     1     -43.176  57.576 -52.120  1.00  0.00     0.185 C 
ENDROOT
BRANCH   1   2
HETATM    2  S   UNL     1     -43.477  57.029 -53.825  1.00  0.00    -0.081 SA
BRANCH   2   3
HETATM    3  C   UNL     1     -42.182  55.894 -53.987  1.00  0.00     0.192 A 
HETATM    4  N   UNL     1     -42.227  54.592 -53.561  1.00  0.00    -0.308 N 
HETATM    5  C   UNL     1     -40.971  54.075 -53.825  1.00  0.00     0.164 A 
HETATM    6  N   UNL     1     -40.244  55.023 -54.391  1.00  0.00    -0.128 NA
HETATM    7  N   UNL     1     -41.007  56.155 -54.507  1.00  0.00    -0.122 NA
BRANCH   4   8
HETATM    8  C   UNL     1     -43.312  53.942 -52.856  1.00  0.00     0.128 C 
HETATM    9  C   UNL     1     -43.203  54.076 -51.345  1.00  0.00     0.027 C 
ENDBRANCH   4   8
BRANCH   5  10
HETATM   10  C   UNL     1     -40.471  52.748 -53.471  1.00  0.00     0.012 A 
HETATM   11  C   UNL     1     -40.505  51.729 -54.434  1.00  0.00     0.015 A 
HETATM   12  C   UNL     1     -40.044  50.446 -54.131  1.00  0.00     0.001 A 
HETATM   13  C   UNL     1     -39.553  50.166 -52.858  1.00  0.00     0.000 A 
HETATM   14  C   UNL     1     -39.534  51.164 -51.886  1.00  0.00     0.001 A 
HETATM   15  C   UNL     1     -39.998  52.448 -52.189  1.00  0.00     0.015 A 
ENDBRANCH   5  10
ENDBRANCH   2   3
ENDBRANCH   1   2
BRANCH   1  16
HETATM   16  C   UNL     1     -44.493  57.887 -51.433  1.00  0.00     0.227 C 
HETATM   17  N   UNL     1     -44.989  59.150 -51.683  1.00  0.00    -0.358 N 
HETATM   18  H   UNL     1     -44.447  59.793 -52.247  1.00  0.00     0.162 HD
HETATM   19  O   UNL     1     -45.067  57.080 -50.705  1.00  0.00    -0.273 OA
BRANCH  17  20
HETATM   20  C   UNL     1     -46.133  59.677 -50.961  1.00  0.00     0.149 C 
BRANCH  20  21
HETATM   21  C   UNL     1     -46.035  61.162 -50.606  1.00  0.00     0.195 C 
BRANCH  21  22
HETATM   22  O   UNL     1     -44.979  61.306 -49.652  1.00  0.00    -0.350 OA
BRANCH  22  23
HETATM   23  C   UNL     1     -45.331  61.616 -48.367  1.00  0.00     0.069 A 
HETATM   24  C   UNL     1     -44.675  61.190 -47.210  1.00  0.00     0.043 A 
HETATM   25  C   UNL     1     -45.137  61.587 -45.944  1.00  0.00    -0.059 A 
HETATM   26  C   UNL     1     -44.444  61.129 -44.694  1.00  0.00     0.048 C 
HETATM   27  C   UNL     1     -46.271  62.402 -45.850  1.00  0.00     0.007 A 
HETATM   28  C   UNL     1     -46.931  62.822 -47.002  1.00  0.00     0.003 A 
HETATM   29  C   UNL     1     -46.462  62.428 -48.254  1.00  0.00     0.037 A 
ENDBRANCH  22  23
ENDBRANCH  21  22
ENDBRANCH  20  21
ENDBRANCH  17  20
ENDBRANCH   1  16
TORSDOF 9
ENDMDL
MODEL 7
REMARK VINA RESULT:      -7.1      5.926     10.095
REMARK  9 active torsions:
REMARK  status: ('A' for Active; 'I' for Inactive)
REMARK    1  A    between atoms: C_2  and  N_3 
REMARK    2  A    between atoms: C_4  and  S_5 
REMARK    3  A    between atoms: S_5  and  C_6 
REMARK    4  A    between atoms: C_6  and  C_7 
REMARK       I    between atoms: C_7  and  N_8 
REMARK    5  A    between atoms: N_8  and  C_9 
REMARK    6  A    between atoms: C_9  and  C_10 
REMARK    7  A    between atoms: C_10  and  O_11 
REMARK    8  A    between atoms: O_11  and  C_12 
REMARK    9  A    between atoms: C_22  and  C_23 
ROOT
HETATM    1  C   UNL     1     -43.770  59.416 -51.172  1.00  0.00     0.185 C 
ENDROOT
BRANCH   1   2
HETATM    2  S   UNL     1     -45.400  60.207 -51.298  1.00  0.00    -0.081 SA
BRANCH   2   3
HETATM    3  C   UNL     1     -45.728  60.441 -49.616  1.00  0.00     0.192 A 
HETATM    4  N   UNL     1     -45.762  61.659 -48.989  1.00  0.00    -0.308 N 
HETATM    5  C   UNL     1     -45.989  61.380 -47.654  1.00  0.00     0.164 A 
HETATM    6  N   UNL     1     -46.101  60.069 -47.519  1.00  0.00    -0.128 NA
HETATM    7  N   UNL     1     -45.954  59.485 -48.749  1.00  0.00    -0.122 NA
BRANCH   4   8
HETATM    8  C   UNL     1     -45.476  62.951 -49.578  1.00  0.00     0.128 C 
HETATM    9  C   UNL     1     -44.015  63.353 -49.450  1.00  0.00     0.027 C 
ENDBRANCH   4   8
BRANCH   5  10
HETATM   10  C   UNL     1     -46.017  62.332 -46.545  1.00  0.00     0.012 A 
HETATM   11  C   UNL     1     -47.131  63.171 -46.396  1.00  0.00     0.015 A 
HETATM   12  C   UNL     1     -47.190  64.099 -45.354  1.00  0.00     0.001 A 
HETATM   13  C   UNL     1     -46.131  64.205 -44.456  1.00  0.00     0.000 A 
HETATM   14  C   UNL     1     -45.009  63.392 -44.606  1.00  0.00     0.001 A 
HETATM   15  C   UNL     1     -44.949  62.464 -45.650  1.00  0.00     0.015 A 
ENDBRANCH   5  10
ENDBRANCH   2   3
ENDBRANCH   1   2
BRANCH   1  16
HETATM   16  C   UNL     1     -43.905  57.915 -51.350  1.00  0.00     0.227 C 
HETATM   17  N   UNL     1     -42.765  57.285 -51.808  1.00  0.00    -0.358 N 
HETATM   18  H   UNL     1     -41.951  57.840 -52.038  1.00  0.00     0.162 HD
HETATM   19  O   UNL     1     -44.948  57.310 -51.113  1.00  0.00    -0.273 OA
BRANCH  17  20
HETATM   20  C   UNL     1     -42.774  55.891 -52.212  1.00  0.00     0.149 C 
BRANCH  20  21
HETATM   21  C   UNL     1     -41.566  55.081 -51.738  1.00  0.00     0.195 C 
BRANCH  21  22
HETATM   22  O   UNL     1     -40.971  54.481 -52.892  1.00  0.00    -0.350 OA
BRANCH  22  23
HETATM   23  C   UNL     1     -40.517  53.197 -52.770  1.00  0.00     0.069 A 
HETATM   24  C   UNL     1     -40.345  52.283 -53.812  1.00  0.00     0.043 A 
HETATM   25  C   UNL     1     -39.862  50.990 -53.551  1.00  0.00    -0.059 A 
HETATM   26  C   UNL     1     -39.681  49.998 -54.662  1.00  0.00     0.048 C 
HETATM   27  C   UNL     1     -39.567  50.619 -52.234  1.00  0.00     0.007 A 
HETATM   28  C   UNL     1     -39.744  51.526 -51.192  1.00  0.00     0.003 A 
HETATM   29  C   UNL     1     -40.218  52.809 -51.462  1.00  0.00     0.037 A 
ENDBRANCH  22  23
ENDBRANCH  21  22
ENDBRANCH  20  21
ENDBRANCH  17  20
ENDBRANCH   1  16
TORSDOF 9
ENDMDL
MODEL 8
REMARK VINA RESULT:      -7.1      2.176      7.172
REMARK  9 active torsions:
REMARK  status: ('A' for Active; 'I' for Inactive)
REMARK    1  A    between atoms: C_2  and  N_3 
REMARK    2  A    between atoms: C_4  and  S_5 
REMARK    3  A    between atoms: S_5  and  C_6 
REMARK    4  A    between atoms: C_6  and  C_7 
REMARK       I    between atoms: C_7  and  N_8 
REMARK    5  A    between atoms: N_8  and  C_9 
REMARK    6  A    between atoms: C_9  and  C_10 
REMARK    7  A    between atoms: C_10  and  O_11 
REMARK    8  A    between atoms: O_11  and  C_12 
REMARK    9  A    between atoms: C_22  and  C_23 
ROOT
HETATM    1  C   UNL     1     -42.538  59.023 -51.898  1.00  0.00     0.185 C 
ENDROOT
BRANCH   1   2
HETATM    2  S   UNL     1     -41.586  59.494 -53.371  1.00  0.00    -0.081 SA
BRANCH   2   3
HETATM    3  C   UNL     1     -42.208  58.329 -54.490  1.00  0.00     0.192 A 
HETATM    4  N   UNL     1     -42.530  58.595 -55.795  1.00  0.00    -0.308 N 
HETATM    5  C   UNL     1     -43.045  57.412 -56.295  1.00  0.00     0.164 A 
HETATM    6  N   UNL     1     -43.004  56.505 -55.334  1.00  0.00    -0.128 NA
HETATM    7  N   UNL     1     -42.466  57.075 -54.211  1.00  0.00    -0.122 NA
BRANCH   4   8
HETATM    8  C   UNL     1     -42.475  59.879 -56.463  1.00  0.00     0.128 C 
HETATM    9  C   UNL     1     -41.615  59.860 -57.717  1.00  0.00     0.027 C 
ENDBRANCH   4   8
BRANCH   5  10
HETATM   10  C   UNL     1     -43.625  57.193 -57.618  1.00  0.00     0.012 A 
HETATM   11  C   UNL     1     -44.907  57.691 -57.891  1.00  0.00     0.015 A 
HETATM   12  C   UNL     1     -45.498  57.494 -59.141  1.00  0.00     0.001 A 
HETATM   13  C   UNL     1     -44.817  56.787 -60.129  1.00  0.00     0.000 A 
HETATM   14  C   UNL     1     -43.551  56.267 -59.863  1.00  0.00     0.001 A 
HETATM   15  C   UNL     1     -42.961  56.464 -58.611  1.00  0.00     0.015 A 
ENDBRANCH   5  10
ENDBRANCH   2   3
ENDBRANCH   1   2
BRANCH   1  16
HETATM   16  C   UNL     1     -41.669  58.212 -50.955  1.00  0.00     0.227 C 
HETATM   17  N   UNL     1     -41.989  56.871 -50.886  1.00  0.00    -0.358 N 
HETATM   18  H   UNL     1     -42.784  56.524 -51.409  1.00  0.00     0.162 HD
HETATM   19  O   UNL     1     -40.759  58.712 -50.298  1.00  0.00    -0.273 OA
BRANCH  17  20
HETATM   20  C   UNL     1     -41.388  55.992 -49.900  1.00  0.00     0.149 C 
BRANCH  20  21
HETATM   21  C   UNL     1     -41.812  54.526 -50.008  1.00  0.00     0.195 C 
BRANCH  21  22
HETATM   22  O   UNL     1     -40.623  53.748 -50.176  1.00  0.00    -0.350 OA
BRANCH  22  23
HETATM   23  C   UNL     1     -40.379  53.236 -51.420  1.00  0.00     0.069 A 
HETATM   24  C   UNL     1     -40.628  53.878 -52.636  1.00  0.00     0.043 A 
HETATM   25  C   UNL     1     -40.323  53.242 -53.851  1.00  0.00    -0.059 A 
HETATM   26  C   UNL     1     -40.594  53.919 -55.163  1.00  0.00     0.048 C 
HETATM   27  C   UNL     1     -39.780  51.952 -53.835  1.00  0.00     0.007 A 
HETATM   28  C   UNL     1     -39.537  51.308 -52.624  1.00  0.00     0.003 A 
HETATM   29  C   UNL     1     -39.837  51.949 -51.424  1.00  0.00     0.037 A 
ENDBRANCH  22  23
ENDBRANCH  21  22
ENDBRANCH  20  21
ENDBRANCH  17  20
ENDBRANCH   1  16
TORSDOF 9
ENDMDL
MODEL 9
REMARK VINA RESULT:      -7.0      2.429      3.136
REMARK  9 active torsions:
REMARK  status: ('A' for Active; 'I' for Inactive)
REMARK    1  A    between atoms: C_2  and  N_3 
REMARK    2  A    between atoms: C_4  and  S_5 
REMARK    3  A    between atoms: S_5  and  C_6 
REMARK    4  A    between atoms: C_6  and  C_7 
REMARK       I    between atoms: C_7  and  N_8 
REMARK    5  A    between atoms: N_8  and  C_9 
REMARK    6  A    between atoms: C_9  and  C_10 
REMARK    7  A    between atoms: C_10  and  O_11 
REMARK    8  A    between atoms: O_11  and  C_12 
REMARK    9  A    between atoms: C_22  and  C_23 
ROOT
HETATM    1  C   UNL     1     -44.613  57.859 -55.623  1.00  0.00     0.185 C 
ENDROOT
BRANCH   1   2
HETATM    2  S   UNL     1     -42.858  57.667 -56.048  1.00  0.00    -0.081 SA
BRANCH   2   3
HETATM    3  C   UNL     1     -42.618  56.038 -55.515  1.00  0.00     0.192 A 
HETATM    4  N   UNL     1     -41.731  55.658 -54.542  1.00  0.00    -0.308 N 
HETATM    5  C   UNL     1     -41.818  54.278 -54.484  1.00  0.00     0.164 A 
HETATM    6  N   UNL     1     -42.723  53.884 -55.365  1.00  0.00    -0.128 NA
HETATM    7  N   UNL     1     -43.233  54.986 -55.997  1.00  0.00    -0.122 NA
BRANCH   4   8
HETATM    8  C   UNL     1     -40.800  56.508 -53.829  1.00  0.00     0.128 C 
HETATM    9  C   UNL     1     -41.404  57.135 -52.583  1.00  0.00     0.027 C 
ENDBRANCH   4   8
BRANCH   5  10
HETATM   10  C   UNL     1     -41.005  53.376 -53.671  1.00  0.00     0.012 A 
HETATM   11  C   UNL     1     -40.266  52.367 -54.306  1.00  0.00     0.015 A 
HETATM   12  C   UNL     1     -39.484  51.481 -53.563  1.00  0.00     0.001 A 
HETATM   13  C   UNL     1     -39.439  51.589 -52.174  1.00  0.00     0.000 A 
HETATM   14  C   UNL     1     -40.186  52.573 -51.530  1.00  0.00     0.001 A 
HETATM   15  C   UNL     1     -40.970  53.459 -52.275  1.00  0.00     0.015 A 
ENDBRANCH   5  10
ENDBRANCH   2   3
ENDBRANCH   1   2
BRANCH   1  16
HETATM   16  C   UNL     1     -45.359  58.504 -56.776  1.00  0.00     0.227 C 
HETATM   17  N   UNL     1     -44.687  59.543 -57.388  1.00  0.00    -0.358 N 
HETATM   18  H   UNL     1     -43.792  59.840 -57.020  1.00  0.00     0.162 HD
HETATM   19  O   UNL     1     -46.477  58.136 -57.131  1.00  0.00    -0.273 OA
BRANCH  17  20
HETATM   20  C   UNL     1     -45.328  60.389 -58.378  1.00  0.00     0.149 C 
BRANCH  20  21
HETATM   21  C   UNL     1     -44.602  60.463 -59.722  1.00  0.00     0.195 C 
BRANCH  21  22
HETATM   22  O   UNL     1     -44.969  59.303 -60.473  1.00  0.00    -0.350 OA
BRANCH  22  23
HETATM   23  C   UNL     1     -44.248  58.161 -60.258  1.00  0.00     0.069 A 
HETATM   24  C   UNL     1     -44.772  56.880 -60.070  1.00  0.00     0.043 A 
HETATM   25  C   UNL     1     -43.918  55.785 -59.864  1.00  0.00    -0.059 A 
HETATM   26  C   UNL     1     -44.471  54.406 -59.653  1.00  0.00     0.048 C 
HETATM   27  C   UNL     1     -42.533  55.989 -59.834  1.00  0.00     0.007 A 
HETATM   28  C   UNL     1     -42.007  57.266 -60.015  1.00  0.00     0.003 A 
HETATM   29  C   UNL     1     -42.864  58.346 -60.225  1.00  0.00     0.037 A 
ENDBRANCH  22  23
ENDBRANCH  21  22
ENDBRANCH  20  21
ENDBRANCH  17  20
ENDBRANCH   1  16
TORSDOF 9
ENDMDL
MODEL 10
REMARK VINA RESULT:      -7.0      2.947      6.780
REMARK  9 active torsions:
REMARK  status: ('A' for Active; 'I' for Inactive)
REMARK    1  A    between atoms: C_2  and  N_3 
REMARK    2  A    between atoms: C_4  and  S_5 
REMARK    3  A    between atoms: S_5  and  C_6 
REMARK    4  A    between atoms: C_6  and  C_7 
REMARK       I    between atoms: C_7  and  N_8 
REMARK    5  A    between atoms: N_8  and  C_9 
REMARK    6  A    between atoms: C_9  and  C_10 
REMARK    7  A    between atoms: C_10  and  O_11 
REMARK    8  A    between atoms: O_11  and  C_12 
REMARK    9  A    between atoms: C_22  and  C_23 
ROOT
HETATM    1  C   UNL     1     -45.355  58.505 -57.141  1.00  0.00     0.185 C 
ENDROOT
BRANCH   1   2
HETATM    2  S   UNL     1     -44.711  60.189 -56.922  1.00  0.00    -0.081 SA
BRANCH   2   3
HETATM    3  C   UNL     1     -43.375  59.843 -55.878  1.00  0.00     0.192 A 
HETATM    4  N   UNL     1     -43.489  59.403 -54.585  1.00  0.00    -0.308 N 
HETATM    5  C   UNL     1     -42.192  59.322 -54.109  1.00  0.00     0.164 A 
HETATM    6  N   UNL     1     -41.371  59.678 -55.083  1.00  0.00    -0.128 NA
HETATM    7  N   UNL     1     -42.111  59.988 -56.193  1.00  0.00    -0.122 NA
BRANCH   4   8
HETATM    8  C   UNL     1     -44.711  59.204 -53.835  1.00  0.00     0.128 C 
HETATM    9  C   UNL     1     -44.950  57.749 -53.464  1.00  0.00     0.027 C 
ENDBRANCH   4   8
BRANCH   5  10
HETATM   10  C   UNL     1     -41.770  58.993 -52.749  1.00  0.00     0.012 A 
HETATM   11  C   UNL     1     -41.740  60.007 -51.781  1.00  0.00     0.015 A 
HETATM   12  C   UNL     1     -41.335  59.733 -50.473  1.00  0.00     0.001 A 
HETATM   13  C   UNL     1     -40.946  58.443 -50.121  1.00  0.00     0.000 A 
HETATM   14  C   UNL     1     -40.950  57.431 -51.079  1.00  0.00     0.001 A 
HETATM   15  C   UNL     1     -41.354  57.706 -52.389  1.00  0.00     0.015 A 
ENDBRANCH   5  10
ENDBRANCH   2   3
ENDBRANCH   1   2
BRANCH   1  16
HETATM   16  C   UNL     1     -44.227  57.561 -57.513  1.00  0.00     0.227 C 
HETATM   17  N   UNL     1     -43.962  56.583 -56.574  1.00  0.00    -0.358 N 
HETATM   18  H   UNL     1     -44.478  56.580 -55.703  1.00  0.00     0.162 HD
HETATM   19  O   UNL     1     -43.595  57.662 -58.562  1.00  0.00    -0.273 OA
BRANCH  17  20
HETATM   20  C   UNL     1     -42.801  55.719 -56.680  1.00  0.00     0.149 C 
BRANCH  20  21
HETATM   21  C   UNL     1     -42.893  54.425 -55.869  1.00  0.00     0.195 C 
BRANCH  21  22
HETATM   22  O   UNL     1     -41.669  54.287 -55.141  1.00  0.00    -0.350 OA
BRANCH  22  23
HETATM   23  C   UNL     1     -41.757  54.166 -53.782  1.00  0.00     0.069 A 
HETATM   24  C   UNL     1     -40.720  53.802 -52.920  1.00  0.00     0.043 A 
HETATM   25  C   UNL     1     -40.942  53.720 -51.535  1.00  0.00    -0.059 A 
HETATM   26  C   UNL     1     -39.836  53.322 -50.601  1.00  0.00     0.048 C 
HETATM   27  C   UNL     1     -42.216  53.992 -51.025  1.00  0.00     0.007 A 
HETATM   28  C   UNL     1     -43.254  54.349 -51.883  1.00  0.00     0.003 A 
HETATM   29  C   UNL     1     -43.023  54.434 -53.255  1.00  0.00     0.037 A 
ENDBRANCH  22  23
ENDBRANCH  21  22
ENDBRANCH  20  21
ENDBRANCH  17  20
ENDBRANCH   1  16
TORSDOF 9
ENDMDL
