MODEL 1
REMARK VINA RESULT:      -9.0      0.000      0.000
REMARK  7 active torsions:
REMARK  status: ('A' for Active; 'I' for Inactive)
REMARK    1  A    between atoms: O_2  and  C_3 
REMARK    2  A    between atoms: C_6  and  C_7 
REMARK    3  A    between atoms: C_7  and  N_8 
REMARK    4  A    between atoms: C_7  and  C_25 
REMARK    5  A    between atoms: N_8  and  C_11 
REMARK    6  A    between atoms: C_11  and  C_12 
REMARK       I    between atoms: C_12  and  N_13 
REMARK    7  A    between atoms: N_13  and  C_14 
ROOT
HETATM    1  N   UNL     1     -40.656  53.779 -54.965  1.00  0.00    -0.055 N 
HETATM    2  H   UNL     1     -39.859  53.352 -55.463  1.00  0.00     0.278 HD
HETATM    3  H   UNL     1     -41.451  53.192 -55.244  1.00  0.00     0.278 HD
ENDROOT
BRANCH   1   4
HETATM    4  C   UNL     1     -40.475  53.660 -53.485  1.00  0.00     0.252 C 
BRANCH   4   5
HETATM    5  C   UNL     1     -41.525  54.370 -52.631  1.00  0.00    -0.023 A 
HETATM    6  C   UNL     1     -41.240  55.644 -52.097  1.00  0.00     0.012 A 
HETATM    7  C   UNL     1     -42.185  56.356 -51.346  1.00  0.00     0.037 A 
HETATM    8  C   UNL     1     -43.451  55.823 -51.131  1.00  0.00     0.068 A 
HETATM    9  C   UNL     1     -43.759  54.577 -51.675  1.00  0.00     0.037 A 
HETATM   10  C   UNL     1     -42.818  53.861 -52.425  1.00  0.00     0.012 A 
BRANCH   8  11
HETATM   11  O   UNL     1     -44.465  56.406 -50.428  1.00  0.00    -0.356 OA
HETATM   12  C   UNL     1     -45.036  57.591 -50.971  1.00  0.00     0.210 C 
ENDBRANCH   8  11
ENDBRANCH   4   5
BRANCH   4  13
HETATM   13  C   UNL     1     -40.187  52.204 -53.128  1.00  0.00    -0.023 A 
HETATM   14  C   UNL     1     -39.842  51.872 -51.805  1.00  0.00     0.009 A 
HETATM   15  C   UNL     1     -39.517  50.558 -51.463  1.00  0.00     0.001 A 
HETATM   16  C   UNL     1     -39.525  49.562 -52.434  1.00  0.00     0.000 A 
HETATM   17  C   UNL     1     -39.860  49.872 -53.750  1.00  0.00     0.001 A 
HETATM   18  C   UNL     1     -40.186  51.185 -54.098  1.00  0.00     0.009 A 
ENDBRANCH   4  13
ENDBRANCH   1   4
BRANCH   1  19
HETATM   19  C   UNL     1     -40.876  55.155 -55.549  1.00  0.00     0.336 C 
BRANCH  19  20
HETATM   20  C   UNL     1     -42.247  55.196 -56.223  1.00  0.00     0.248 C 
HETATM   21  N   UNL     1     -42.393  56.192 -57.164  1.00  0.00    -0.326 N 
HETATM   22  H   UNL     1     -41.606  56.805 -57.350  1.00  0.00     0.169 HD
HETATM   23  O   UNL     1     -43.079  54.360 -55.871  1.00  0.00    -0.271 OA
BRANCH  21  24
HETATM   24  C   UNL     1     -43.551  56.477 -57.928  1.00  0.00     0.037 A 
HETATM   25  C   UNL     1     -43.931  55.749 -59.062  1.00  0.00     0.061 A 
HETATM   26  C   UNL     1     -45.088  56.140 -59.700  1.00  0.00     0.065 A 
HETATM   27  C   UNL     1     -45.864  57.209 -59.258  1.00  0.00     0.063 A 
HETATM   28  N   UNL     1     -45.699  55.610 -60.831  1.00  0.00    -0.306 N 
HETATM   29  N   UNL     1     -46.950  57.336 -60.114  1.00  0.00    -0.307 N 
HETATM   30  C   UNL     1     -45.522  57.945 -58.152  1.00  0.00     0.034 A 
HETATM   31  C   UNL     1     -46.863  56.344 -61.103  1.00  0.00     0.325 A 
HETATM   32  H   UNL     1     -47.696  58.011 -60.069  1.00  0.00     0.170 HD
HETATM   33  O   UNL     1     -47.643  56.158 -62.017  1.00  0.00    -0.247 OA
HETATM   34  C   UNL     1     -44.349  57.568 -57.485  1.00  0.00     0.032 A 
HETATM   35  H   UNL     1     -45.393  54.832 -61.393  1.00  0.00     0.170 HD
ENDBRANCH  21  24
ENDBRANCH  19  20
ENDBRANCH   1  19
TORSDOF 7
ENDMDL
MODEL 2
REMARK VINA RESULT:      -8.4      3.516      5.792
REMARK  7 active torsions:
REMARK  status: ('A' for Active; 'I' for Inactive)
REMARK    1  A    between atoms: O_2  and  C_3 
REMARK    2  A    between atoms: C_6  and  C_7 
REMARK    3  A    between atoms: C_7  and  N_8 
REMARK    4  A    between atoms: C_7  and  C_25 
REMARK    5  A    between atoms: N_8  and  C_11 
REMARK    6  A    between atoms: C_11  and  C_12 
REMARK       I    between atoms: C_12  and  N_13 
REMARK    7  A    between atoms: N_13  and  C_14 
ROOT
HETATM    1  N   UNL     1     -40.252  54.296 -51.161  1.00  0.00    -0.055 N 
HETATM    2  H   UNL     1     -39.517  53.741 -50.695  1.00  0.00     0.278 HD
HETATM    3  H   UNL     1     -39.719  54.972 -51.720  1.00  0.00     0.278 HD
ENDROOT
BRANCH   1   4
HETATM    4  C   UNL     1     -41.048  53.436 -52.091  1.00  0.00     0.252 C 
BRANCH   4   5
HETATM    5  C   UNL     1     -41.464  54.093 -53.406  1.00  0.00    -0.023 A 
HETATM    6  C   UNL     1     -42.756  53.857 -53.924  1.00  0.00     0.012 A 
HETATM    7  C   UNL     1     -43.201  54.471 -55.102  1.00  0.00     0.037 A 
HETATM    8  C   UNL     1     -42.376  55.361 -55.781  1.00  0.00     0.068 A 
HETATM    9  C   UNL     1     -41.107  55.628 -55.269  1.00  0.00     0.037 A 
HETATM   10  C   UNL     1     -40.657  55.015 -54.094  1.00  0.00     0.012 A 
BRANCH   8  11
HETATM   11  O   UNL     1     -42.681  56.031 -56.930  1.00  0.00    -0.356 OA
HETATM   12  C   UNL     1     -42.463  57.438 -56.940  1.00  0.00     0.210 C 
ENDBRANCH   8  11
ENDBRANCH   4   5
BRANCH   4  13
HETATM   13  C   UNL     1     -40.386  52.066 -52.202  1.00  0.00    -0.023 A 
HETATM   14  C   UNL     1     -40.190  51.493 -53.472  1.00  0.00     0.009 A 
HETATM   15  C   UNL     1     -39.639  50.217 -53.601  1.00  0.00     0.001 A 
HETATM   16  C   UNL     1     -39.284  49.493 -52.466  1.00  0.00     0.000 A 
HETATM   17  C   UNL     1     -39.474  50.041 -51.201  1.00  0.00     0.001 A 
HETATM   18  C   UNL     1     -40.024  51.318 -51.067  1.00  0.00     0.009 A 
ENDBRANCH   4  13
ENDBRANCH   1   4
BRANCH   1  19
HETATM   19  C   UNL     1     -40.991  55.066 -50.093  1.00  0.00     0.336 C 
BRANCH  19  20
HETATM   20  C   UNL     1     -41.563  56.345 -50.706  1.00  0.00     0.248 C 
HETATM   21  N   UNL     1     -42.897  56.272 -51.043  1.00  0.00    -0.326 N 
HETATM   22  H   UNL     1     -43.398  55.408 -50.861  1.00  0.00     0.169 HD
HETATM   23  O   UNL     1     -40.799  57.300 -50.843  1.00  0.00    -0.271 OA
BRANCH  21  24
HETATM   24  C   UNL     1     -43.679  57.289 -51.640  1.00  0.00     0.037 A 
HETATM   25  C   UNL     1     -44.612  58.063 -50.938  1.00  0.00     0.061 A 
HETATM   26  C   UNL     1     -45.297  59.022 -51.653  1.00  0.00     0.065 A 
HETATM   27  C   UNL     1     -45.090  59.233 -53.013  1.00  0.00     0.063 A 
HETATM   28  N   UNL     1     -46.266  59.922 -51.224  1.00  0.00    -0.306 N 
HETATM   29  N   UNL     1     -45.930  60.261 -53.422  1.00  0.00    -0.307 N 
HETATM   30  C   UNL     1     -44.187  58.494 -53.733  1.00  0.00     0.034 A 
HETATM   31  C   UNL     1     -46.671  60.704 -52.316  1.00  0.00     0.325 A 
HETATM   32  H   UNL     1     -46.022  60.653 -54.345  1.00  0.00     0.170 HD
HETATM   33  O   UNL     1     -47.504  61.592 -52.306  1.00  0.00    -0.247 OA
HETATM   34  C   UNL     1     -43.477  57.511 -53.030  1.00  0.00     0.032 A 
HETATM   35  H   UNL     1     -46.645  60.030 -50.297  1.00  0.00     0.170 HD
ENDBRANCH  21  24
ENDBRANCH  19  20
ENDBRANCH   1  19
TORSDOF 7
ENDMDL
MODEL 3
REMARK VINA RESULT:      -8.4      3.573      6.245
REMARK  7 active torsions:
REMARK  status: ('A' for Active; 'I' for Inactive)
REMARK    1  A    between atoms: O_2  and  C_3 
REMARK    2  A    between atoms: C_6  and  C_7 
REMARK    3  A    between atoms: C_7  and  N_8 
REMARK    4  A    between atoms: C_7  and  C_25 
REMARK    5  A    between atoms: N_8  and  C_11 
REMARK    6  A    between atoms: C_11  and  C_12 
REMARK       I    between atoms: C_12  and  N_13 
REMARK    7  A    between atoms: N_13  and  C_14 
ROOT
HETATM    1  N   UNL     1     -39.644  53.887 -51.116  1.00  0.00    -0.055 N 
HETATM    2  H   UNL     1     -38.848  53.241 -50.994  1.00  0.00     0.278 HD
HETATM    3  H   UNL     1     -39.236  54.666 -51.646  1.00  0.00     0.278 HD
ENDROOT
BRANCH   1   4
HETATM    4  C   UNL     1     -40.712  53.253 -51.949  1.00  0.00     0.252 C 
BRANCH   4   5
HETATM    5  C   UNL     1     -41.376  54.166 -52.978  1.00  0.00    -0.023 A 
HETATM    6  C   UNL     1     -42.783  54.183 -53.088  1.00  0.00     0.012 A 
HETATM    7  C   UNL     1     -43.443  55.035 -53.984  1.00  0.00     0.037 A 
HETATM    8  C   UNL     1     -42.713  55.913 -54.777  1.00  0.00     0.068 A 
HETATM    9  C   UNL     1     -41.324  55.931 -54.662  1.00  0.00     0.037 A 
HETATM   10  C   UNL     1     -40.661  55.080 -53.770  1.00  0.00     0.012 A 
BRANCH   8  11
HETATM   11  O   UNL     1     -43.222  56.798 -55.683  1.00  0.00    -0.356 OA
HETATM   12  C   UNL     1     -43.150  56.435 -57.058  1.00  0.00     0.210 C 
ENDBRANCH   8  11
ENDBRANCH   4   5
BRANCH   4  13
HETATM   13  C   UNL     1     -40.216  51.905 -52.464  1.00  0.00    -0.023 A 
HETATM   14  C   UNL     1     -40.247  51.638 -53.845  1.00  0.00     0.009 A 
HETATM   15  C   UNL     1     -39.853  50.394 -54.338  1.00  0.00     0.001 A 
HETATM   16  C   UNL     1     -39.433  49.397 -53.463  1.00  0.00     0.000 A 
HETATM   17  C   UNL     1     -39.399  49.641 -52.093  1.00  0.00     0.001 A 
HETATM   18  C   UNL     1     -39.791  50.885 -51.593  1.00  0.00     0.009 A 
ENDBRANCH   4  13
ENDBRANCH   1   4
BRANCH   1  19
HETATM   19  C   UNL     1     -40.020  54.411 -49.750  1.00  0.00     0.336 C 
BRANCH  19  20
HETATM   20  C   UNL     1     -41.090  55.491 -49.908  1.00  0.00     0.248 C 
HETATM   21  N   UNL     1     -40.651  56.649 -50.511  1.00  0.00    -0.326 N 
HETATM   22  H   UNL     1     -39.682  56.705 -50.809  1.00  0.00     0.169 HD
HETATM   23  O   UNL     1     -42.220  55.237 -49.489  1.00  0.00    -0.271 OA
BRANCH  21  24
HETATM   24  C   UNL     1     -41.412  57.815 -50.769  1.00  0.00     0.037 A 
HETATM   25  C   UNL     1     -42.589  57.820 -51.528  1.00  0.00     0.061 A 
HETATM   26  C   UNL     1     -43.226  59.032 -51.689  1.00  0.00     0.065 A 
HETATM   27  C   UNL     1     -42.742  60.213 -51.133  1.00  0.00     0.063 A 
HETATM   28  N   UNL     1     -44.395  59.333 -52.380  1.00  0.00    -0.306 N 
HETATM   29  N   UNL     1     -43.611  61.240 -51.481  1.00  0.00    -0.307 N 
HETATM   30  C   UNL     1     -41.593  60.246 -50.386  1.00  0.00     0.034 A 
HETATM   31  C   UNL     1     -44.649  60.708 -52.260  1.00  0.00     0.325 A 
HETATM   32  H   UNL     1     -43.544  62.214 -51.236  1.00  0.00     0.170 HD
HETATM   33  O   UNL     1     -45.587  61.318 -52.738  1.00  0.00    -0.247 OA
HETATM   34  C   UNL     1     -40.925  59.027 -50.207  1.00  0.00     0.032 A 
HETATM   35  H   UNL     1     -44.989  58.705 -52.896  1.00  0.00     0.170 HD
ENDBRANCH  21  24
ENDBRANCH  19  20
ENDBRANCH   1  19
TORSDOF 7
ENDMDL
MODEL 4
REMARK VINA RESULT:      -8.2      2.375      2.668
REMARK  7 active torsions:
REMARK  status: ('A' for Active; 'I' for Inactive)
REMARK    1  A    between atoms: O_2  and  C_3 
REMARK    2  A    between atoms: C_6  and  C_7 
REMARK    3  A    between atoms: C_7  and  N_8 
REMARK    4  A    between atoms: C_7  and  C_25 
REMARK    5  A    between atoms: N_8  and  C_11 
REMARK    6  A    between atoms: C_11  and  C_12 
REMARK       I    between atoms: C_12  and  N_13 
REMARK    7  A    between atoms: N_13  and  C_14 
ROOT
HETATM    1  N   UNL     1     -40.775  54.660 -55.259  1.00  0.00    -0.055 N 
HETATM    2  H   UNL     1     -40.354  55.551 -55.566  1.00  0.00     0.278 HD
HETATM    3  H   UNL     1     -40.224  53.952 -55.759  1.00  0.00     0.278 HD
ENDROOT
BRANCH   1   4
HETATM    4  C   UNL     1     -40.576  54.464 -53.789  1.00  0.00     0.252 C 
BRANCH   4   5
HETATM    5  C   UNL     1     -41.649  55.075 -52.889  1.00  0.00    -0.023 A 
HETATM    6  C   UNL     1     -41.621  56.459 -52.615  1.00  0.00     0.012 A 
HETATM    7  C   UNL     1     -42.607  57.076 -51.833  1.00  0.00     0.037 A 
HETATM    8  C   UNL     1     -43.663  56.328 -51.325  1.00  0.00     0.068 A 
HETATM    9  C   UNL     1     -43.723  54.965 -51.610  1.00  0.00     0.037 A 
HETATM   10  C   UNL     1     -42.739  54.344 -52.388  1.00  0.00     0.012 A 
BRANCH   8  11
HETATM   11  O   UNL     1     -44.690  56.797 -50.558  1.00  0.00    -0.356 OA
HETATM   12  C   UNL     1     -45.259  58.049 -50.928  1.00  0.00     0.210 C 
ENDBRANCH   8  11
ENDBRANCH   4   5
BRANCH   4  13
HETATM   13  C   UNL     1     -40.220  53.005 -53.519  1.00  0.00    -0.023 A 
HETATM   14  C   UNL     1     -40.377  52.053 -54.543  1.00  0.00     0.009 A 
HETATM   15  C   UNL     1     -40.114  50.704 -54.307  1.00  0.00     0.001 A 
HETATM   16  C   UNL     1     -39.698  50.283 -53.047  1.00  0.00     0.000 A 
HETATM   17  C   UNL     1     -39.541  51.210 -52.020  1.00  0.00     0.001 A 
HETATM   18  C   UNL     1     -39.802  52.562 -52.250  1.00  0.00     0.009 A 
ENDBRANCH   4  13
ENDBRANCH   1   4
BRANCH   1  19
HETATM   19  C   UNL     1     -42.184  54.609 -55.801  1.00  0.00     0.336 C 
BRANCH  19  20
HETATM   20  C   UNL     1     -42.488  55.921 -56.524  1.00  0.00     0.248 C 
HETATM   21  N   UNL     1     -42.777  55.785 -57.864  1.00  0.00    -0.326 N 
HETATM   22  H   UNL     1     -42.780  54.853 -58.268  1.00  0.00     0.169 HD
HETATM   23  O   UNL     1     -42.443  56.958 -55.861  1.00  0.00    -0.271 OA
BRANCH  21  24
HETATM   24  C   UNL     1     -43.077  56.822 -58.779  1.00  0.00     0.037 A 
HETATM   25  C   UNL     1     -42.105  57.631 -59.380  1.00  0.00     0.061 A 
HETATM   26  C   UNL     1     -42.547  58.598 -60.256  1.00  0.00     0.065 A 
HETATM   27  C   UNL     1     -43.896  58.785 -60.548  1.00  0.00     0.063 A 
HETATM   28  N   UNL     1     -41.820  59.530 -60.989  1.00  0.00    -0.306 N 
HETATM   29  N   UNL     1     -43.999  59.829 -61.459  1.00  0.00    -0.307 N 
HETATM   30  C   UNL     1     -44.875  58.014 -59.978  1.00  0.00     0.034 A 
HETATM   31  C   UNL     1     -42.711  60.306 -61.745  1.00  0.00     0.325 A 
HETATM   32  H   UNL     1     -44.836  60.210 -61.869  1.00  0.00     0.170 HD
HETATM   33  O   UNL     1     -42.422  61.215 -62.501  1.00  0.00    -0.247 OA
HETATM   34  C   UNL     1     -44.452  57.023 -59.082  1.00  0.00     0.032 A 
HETATM   35  H   UNL     1     -40.822  59.663 -61.004  1.00  0.00     0.170 HD
ENDBRANCH  21  24
ENDBRANCH  19  20
ENDBRANCH   1  19
TORSDOF 7
ENDMDL
MODEL 5
REMARK VINA RESULT:      -8.2      1.701      2.133
REMARK  7 active torsions:
REMARK  status: ('A' for Active; 'I' for Inactive)
REMARK    1  A    between atoms: O_2  and  C_3 
REMARK    2  A    between atoms: C_6  and  C_7 
REMARK    3  A    between atoms: C_7  and  N_8 
REMARK    4  A    between atoms: C_7  and  C_25 
REMARK    5  A    between atoms: N_8  and  C_11 
REMARK    6  A    between atoms: C_11  and  C_12 
REMARK       I    between atoms: C_12  and  N_13 
REMARK    7  A    between atoms: N_13  and  C_14 
ROOT
HETATM    1  N   UNL     1     -40.953  54.204 -55.252  1.00  0.00    -0.055 N 
HETATM    2  H   UNL     1     -40.421  54.991 -55.656  1.00  0.00     0.278 HD
HETATM    3  H   UNL     1     -40.526  53.379 -55.691  1.00  0.00     0.278 HD
ENDROOT
BRANCH   1   4
HETATM    4  C   UNL     1     -40.730  54.122 -53.775  1.00  0.00     0.252 C 
BRANCH   4   5
HETATM    5  C   UNL     1     -41.788  54.804 -52.908  1.00  0.00    -0.023 A 
HETATM    6  C   UNL     1     -42.744  54.018 -52.231  1.00  0.00     0.012 A 
HETATM    7  C   UNL     1     -43.707  54.592 -51.390  1.00  0.00     0.037 A 
HETATM    8  C   UNL     1     -43.722  55.966 -51.181  1.00  0.00     0.068 A 
HETATM    9  C   UNL     1     -42.766  56.755 -51.819  1.00  0.00     0.037 A 
HETATM   10  C   UNL     1     -41.805  56.188 -52.663  1.00  0.00     0.012 A 
BRANCH   8  11
HETATM   11  O   UNL     1     -44.593  56.654 -50.387  1.00  0.00    -0.356 OA
HETATM   12  C   UNL     1     -45.143  57.857 -50.914  1.00  0.00     0.210 C 
ENDBRANCH   8  11
ENDBRANCH   4   5
BRANCH   4  13
HETATM   13  C   UNL     1     -40.371  52.688 -53.398  1.00  0.00    -0.023 A 
HETATM   14  C   UNL     1     -39.911  52.410 -52.097  1.00  0.00     0.009 A 
HETATM   15  C   UNL     1     -39.521  51.118 -51.742  1.00  0.00     0.001 A 
HETATM   16  C   UNL     1     -39.576  50.090 -52.678  1.00  0.00     0.000 A 
HETATM   17  C   UNL     1     -40.025  50.347 -53.971  1.00  0.00     0.001 A 
HETATM   18  C   UNL     1     -40.417  51.637 -54.332  1.00  0.00     0.009 A 
ENDBRANCH   4  13
ENDBRANCH   1   4
BRANCH   1  19
HETATM   19  C   UNL     1     -42.373  54.307 -55.755  1.00  0.00     0.336 C 
BRANCH  19  20
HETATM   20  C   UNL     1     -42.534  55.615 -56.530  1.00  0.00     0.248 C 
HETATM   21  N   UNL     1     -43.275  55.508 -57.687  1.00  0.00    -0.326 N 
HETATM   22  H   UNL     1     -43.661  54.603 -57.936  1.00  0.00     0.169 HD
HETATM   23  O   UNL     1     -41.996  56.620 -56.065  1.00  0.00    -0.271 OA
BRANCH  21  24
HETATM   24  C   UNL     1     -43.569  56.544 -58.606  1.00  0.00     0.037 A 
HETATM   25  C   UNL     1     -44.792  57.226 -58.641  1.00  0.00     0.061 A 
HETATM   26  C   UNL     1     -44.931  58.217 -59.589  1.00  0.00     0.065 A 
HETATM   27  C   UNL     1     -43.918  58.544 -60.485  1.00  0.00     0.063 A 
HETATM   28  N   UNL     1     -46.016  59.046 -59.851  1.00  0.00    -0.306 N 
HETATM   29  N   UNL     1     -44.377  59.574 -61.297  1.00  0.00    -0.307 N 
HETATM   30  C   UNL     1     -42.709  57.898 -60.482  1.00  0.00     0.034 A 
HETATM   31  C   UNL     1     -45.686  59.900 -60.914  1.00  0.00     0.325 A 
HETATM   32  H   UNL     1     -43.886  60.037 -62.044  1.00  0.00     0.170 HD
HETATM   33  O   UNL     1     -46.398  60.755 -61.406  1.00  0.00    -0.247 OA
HETATM   34  C   UNL     1     -42.541  56.885 -59.527  1.00  0.00     0.032 A 
HETATM   35  H   UNL     1     -46.908  59.065 -59.383  1.00  0.00     0.170 HD
ENDBRANCH  21  24
ENDBRANCH  19  20
ENDBRANCH   1  19
TORSDOF 7
ENDMDL
MODEL 6
REMARK VINA RESULT:      -8.1      3.478      9.203
REMARK  7 active torsions:
REMARK  status: ('A' for Active; 'I' for Inactive)
REMARK    1  A    between atoms: O_2  and  C_3 
REMARK    2  A    between atoms: C_6  and  C_7 
REMARK    3  A    between atoms: C_7  and  N_8 
REMARK    4  A    between atoms: C_7  and  C_25 
REMARK    5  A    between atoms: N_8  and  C_11 
REMARK    6  A    between atoms: C_11  and  C_12 
REMARK       I    between atoms: C_12  and  N_13 
REMARK    7  A    between atoms: N_13  and  C_14 
ROOT
HETATM    1  N   UNL     1     -42.217  57.404 -57.189  1.00  0.00    -0.055 N 
HETATM    2  H   UNL     1     -42.177  56.391 -57.381  1.00  0.00     0.278 HD
HETATM    3  H   UNL     1     -41.272  57.727 -57.426  1.00  0.00     0.278 HD
ENDROOT
BRANCH   1   4
HETATM    4  C   UNL     1     -43.191  58.075 -58.106  1.00  0.00     0.252 C 
BRANCH   4   5
HETATM    5  C   UNL     1     -42.619  59.197 -58.970  1.00  0.00    -0.023 A 
HETATM    6  C   UNL     1     -41.945  60.274 -58.356  1.00  0.00     0.012 A 
HETATM    7  C   UNL     1     -41.364  61.305 -59.107  1.00  0.00     0.037 A 
HETATM    8  C   UNL     1     -41.419  61.273 -60.496  1.00  0.00     0.068 A 
HETATM    9  C   UNL     1     -42.057  60.202 -61.121  1.00  0.00     0.037 A 
HETATM   10  C   UNL     1     -42.640  59.171 -60.375  1.00  0.00     0.012 A 
BRANCH   8  11
HETATM   11  O   UNL     1     -40.894  62.201 -61.347  1.00  0.00    -0.356 OA
HETATM   12  C   UNL     1     -41.484  62.307 -62.638  1.00  0.00     0.210 C 
ENDBRANCH   8  11
ENDBRANCH   4   5
BRANCH   4  13
HETATM   13  C   UNL     1     -44.011  57.013 -58.833  1.00  0.00    -0.023 A 
HETATM   14  C   UNL     1     -43.415  55.781 -59.157  1.00  0.00     0.009 A 
HETATM   15  C   UNL     1     -44.123  54.814 -59.872  1.00  0.00     0.001 A 
HETATM   16  C   UNL     1     -45.429  55.066 -60.281  1.00  0.00     0.000 A 
HETATM   17  C   UNL     1     -46.034  56.281 -59.974  1.00  0.00     0.001 A 
HETATM   18  C   UNL     1     -45.331  57.252 -59.257  1.00  0.00     0.009 A 
ENDBRANCH   4  13
ENDBRANCH   1   4
BRANCH   1  19
HETATM   19  C   UNL     1     -42.401  57.580 -55.700  1.00  0.00     0.336 C 
BRANCH  19  20
HETATM   20  C   UNL     1     -42.360  56.207 -55.028  1.00  0.00     0.248 C 
HETATM   21  N   UNL     1     -41.104  55.795 -54.642  1.00  0.00    -0.326 N 
HETATM   22  H   UNL     1     -40.315  56.411 -54.814  1.00  0.00     0.169 HD
HETATM   23  O   UNL     1     -43.427  55.607 -54.899  1.00  0.00    -0.271 OA
BRANCH  21  24
HETATM   24  C   UNL     1     -40.766  54.570 -54.017  1.00  0.00     0.037 A 
HETATM   25  C   UNL     1     -40.520  53.383 -54.718  1.00  0.00     0.061 A 
HETATM   26  C   UNL     1     -40.195  52.270 -53.974  1.00  0.00     0.065 A 
HETATM   27  C   UNL     1     -40.110  52.296 -52.585  1.00  0.00     0.063 A 
HETATM   28  N   UNL     1     -39.903  50.977 -54.395  1.00  0.00    -0.306 N 
HETATM   29  N   UNL     1     -39.765  51.022 -52.151  1.00  0.00    -0.307 N 
HETATM   30  C   UNL     1     -40.345  53.438 -51.864  1.00  0.00     0.034 A 
HETATM   31  C   UNL     1     -39.632  50.186 -53.269  1.00  0.00     0.325 A 
HETATM   32  H   UNL     1     -39.625  50.710 -51.204  1.00  0.00     0.170 HD
HETATM   33  O   UNL     1     -39.339  49.005 -53.264  1.00  0.00    -0.247 OA
HETATM   34  C   UNL     1     -40.678  54.586 -52.598  1.00  0.00     0.032 A 
HETATM   35  H   UNL     1     -39.880  50.623 -55.338  1.00  0.00     0.170 HD
ENDBRANCH  21  24
ENDBRANCH  19  20
ENDBRANCH   1  19
TORSDOF 7
ENDMDL
MODEL 7
REMARK VINA RESULT:      -8.1      2.809      9.639
REMARK  7 active torsions:
REMARK  status: ('A' for Active; 'I' for Inactive)
REMARK    1  A    between atoms: O_2  and  C_3 
REMARK    2  A    between atoms: C_6  and  C_7 
REMARK    3  A    between atoms: C_7  and  N_8 
REMARK    4  A    between atoms: C_7  and  C_25 
REMARK    5  A    between atoms: N_8  and  C_11 
REMARK    6  A    between atoms: C_11  and  C_12 
REMARK       I    between atoms: C_12  and  N_13 
REMARK    7  A    between atoms: N_13  and  C_14 
ROOT
HETATM    1  N   UNL     1     -42.470  57.107 -57.409  1.00  0.00    -0.055 N 
HETATM    2  H   UNL     1     -41.494  57.348 -57.177  1.00  0.00     0.278 HD
HETATM    3  H   UNL     1     -43.017  57.779 -56.856  1.00  0.00     0.278 HD
ENDROOT
BRANCH   1   4
HETATM    4  C   UNL     1     -42.742  57.355 -58.859  1.00  0.00     0.252 C 
BRANCH   4   5
HETATM    5  C   UNL     1     -44.149  56.997 -59.338  1.00  0.00    -0.023 A 
HETATM    6  C   UNL     1     -45.256  57.720 -58.845  1.00  0.00     0.012 A 
HETATM    7  C   UNL     1     -46.560  57.461 -59.287  1.00  0.00     0.037 A 
HETATM    8  C   UNL     1     -46.790  56.489 -60.254  1.00  0.00     0.068 A 
HETATM    9  C   UNL     1     -45.705  55.785 -60.772  1.00  0.00     0.037 A 
HETATM   10  C   UNL     1     -44.400  56.038 -60.333  1.00  0.00     0.012 A 
BRANCH   8  11
HETATM   11  O   UNL     1     -48.001  56.139 -60.777  1.00  0.00    -0.356 OA
HETATM   12  C   UNL     1     -48.316  56.631 -62.075  1.00  0.00     0.210 C 
ENDBRANCH   8  11
ENDBRANCH   4   5
BRANCH   4  13
HETATM   13  C   UNL     1     -42.233  58.743 -59.237  1.00  0.00    -0.023 A 
HETATM   14  C   UNL     1     -41.850  59.639 -58.223  1.00  0.00     0.009 A 
HETATM   15  C   UNL     1     -41.435  60.934 -58.537  1.00  0.00     0.001 A 
HETATM   16  C   UNL     1     -41.405  61.355 -59.863  1.00  0.00     0.000 A 
HETATM   17  C   UNL     1     -41.784  60.484 -60.880  1.00  0.00     0.001 A 
HETATM   18  C   UNL     1     -42.199  59.186 -60.572  1.00  0.00     0.009 A 
ENDBRANCH   4  13
ENDBRANCH   1   4
BRANCH   1  19
HETATM   19  C   UNL     1     -42.745  55.729 -56.856  1.00  0.00     0.336 C 
BRANCH  19  20
HETATM   20  C   UNL     1     -42.082  55.600 -55.485  1.00  0.00     0.248 C 
HETATM   21  N   UNL     1     -42.207  54.359 -54.901  1.00  0.00    -0.326 N 
HETATM   22  H   UNL     1     -42.706  53.632 -55.406  1.00  0.00     0.169 HD
HETATM   23  O   UNL     1     -41.512  56.594 -55.034  1.00  0.00    -0.271 OA
BRANCH  21  24
HETATM   24  C   UNL     1     -41.711  53.960 -53.636  1.00  0.00     0.037 A 
HETATM   25  C   UNL     1     -42.142  54.514 -52.425  1.00  0.00     0.061 A 
HETATM   26  C   UNL     1     -41.573  54.020 -51.271  1.00  0.00     0.065 A 
HETATM   27  C   UNL     1     -40.609  53.015 -51.281  1.00  0.00     0.063 A 
HETATM   28  N   UNL     1     -41.804  54.375 -49.946  1.00  0.00    -0.306 N 
HETATM   29  N   UNL     1     -40.248  52.751 -49.966  1.00  0.00    -0.307 N 
HETATM   30  C   UNL     1     -40.162  52.450 -52.448  1.00  0.00     0.034 A 
HETATM   31  C   UNL     1     -40.986  53.592 -49.119  1.00  0.00     0.325 A 
HETATM   32  H   UNL     1     -39.577  52.079 -49.633  1.00  0.00     0.170 HD
HETATM   33  O   UNL     1     -40.928  53.634 -47.904  1.00  0.00    -0.247 OA
HETATM   34  C   UNL     1     -40.725  52.935 -53.636  1.00  0.00     0.032 A 
HETATM   35  H   UNL     1     -42.441  55.071 -49.594  1.00  0.00     0.170 HD
ENDBRANCH  21  24
ENDBRANCH  19  20
ENDBRANCH   1  19
TORSDOF 7
ENDMDL
MODEL 8
REMARK VINA RESULT:      -8.1      3.793      5.954
REMARK  7 active torsions:
REMARK  status: ('A' for Active; 'I' for Inactive)
REMARK    1  A    between atoms: O_2  and  C_3 
REMARK    2  A    between atoms: C_6  and  C_7 
REMARK    3  A    between atoms: C_7  and  N_8 
REMARK    4  A    between atoms: C_7  and  C_25 
REMARK    5  A    between atoms: N_8  and  C_11 
REMARK    6  A    between atoms: C_11  and  C_12 
REMARK       I    between atoms: C_12  and  N_13 
REMARK    7  A    between atoms: N_13  and  C_14 
ROOT
HETATM    1  N   UNL     1     -41.631  55.101 -55.761  1.00  0.00    -0.055 N 
HETATM    2  H   UNL     1     -40.991  55.892 -55.937  1.00  0.00     0.278 HD
HETATM    3  H   UNL     1     -41.084  54.284 -56.056  1.00  0.00     0.278 HD
ENDROOT
BRANCH   1   4
HETATM    4  C   UNL     1     -41.921  54.976 -54.299  1.00  0.00     0.252 C 
BRANCH   4   5
HETATM    5  C   UNL     1     -41.181  53.854 -53.572  1.00  0.00    -0.023 A 
HETATM    6  C   UNL     1     -40.714  52.741 -54.304  1.00  0.00     0.012 A 
HETATM    7  C   UNL     1     -39.991  51.708 -53.692  1.00  0.00     0.037 A 
HETATM    8  C   UNL     1     -39.691  51.774 -52.336  1.00  0.00     0.068 A 
HETATM    9  C   UNL     1     -40.120  52.880 -51.604  1.00  0.00     0.037 A 
HETATM   10  C   UNL     1     -40.844  53.913 -52.209  1.00  0.00     0.012 A 
BRANCH   8  11
HETATM   11  O   UNL     1     -38.994  50.848 -51.616  1.00  0.00    -0.356 OA
HETATM   12  C   UNL     1     -39.748  49.852 -50.933  1.00  0.00     0.210 C 
ENDBRANCH   8  11
ENDBRANCH   4   5
BRANCH   4  13
HETATM   13  C   UNL     1     -41.857  56.356 -53.652  1.00  0.00    -0.023 A 
HETATM   14  C   UNL     1     -42.950  56.817 -52.896  1.00  0.00     0.009 A 
HETATM   15  C   UNL     1     -42.943  58.098 -52.341  1.00  0.00     0.001 A 
HETATM   16  C   UNL     1     -41.851  58.938 -52.539  1.00  0.00     0.000 A 
HETATM   17  C   UNL     1     -40.762  58.501 -53.288  1.00  0.00     0.001 A 
HETATM   18  C   UNL     1     -40.763  57.220 -53.845  1.00  0.00     0.009 A 
ENDBRANCH   4  13
ENDBRANCH   1   4
BRANCH   1  19
HETATM   19  C   UNL     1     -42.797  55.238 -56.712  1.00  0.00     0.336 C 
BRANCH  19  20
HETATM   20  C   UNL     1     -42.974  56.712 -57.076  1.00  0.00     0.248 C 
HETATM   21  N   UNL     1     -42.024  57.206 -57.943  1.00  0.00    -0.326 N 
HETATM   22  H   UNL     1     -41.300  56.579 -58.280  1.00  0.00     0.169 HD
HETATM   23  O   UNL     1     -43.922  57.312 -56.570  1.00  0.00    -0.271 OA
BRANCH  21  24
HETATM   24  C   UNL     1     -41.929  58.530 -58.435  1.00  0.00     0.037 A 
HETATM   25  C   UNL     1     -41.649  59.639 -57.628  1.00  0.00     0.061 A 
HETATM   26  C   UNL     1     -41.581  60.867 -58.249  1.00  0.00     0.065 A 
HETATM   27  C   UNL     1     -41.779  61.026 -59.618  1.00  0.00     0.063 A 
HETATM   28  N   UNL     1     -41.323  62.122 -57.707  1.00  0.00    -0.306 N 
HETATM   29  N   UNL     1     -41.643  62.375 -59.919  1.00  0.00    -0.307 N 
HETATM   30  C   UNL     1     -42.057  59.964 -60.440  1.00  0.00     0.034 A 
HETATM   31  C   UNL     1     -41.357  63.074 -58.736  1.00  0.00     0.325 A 
HETATM   32  H   UNL     1     -41.727  62.819 -60.819  1.00  0.00     0.170 HD
HETATM   33  O   UNL     1     -41.175  64.272 -58.624  1.00  0.00    -0.247 OA
HETATM   34  C   UNL     1     -42.132  58.703 -59.832  1.00  0.00     0.032 A 
HETATM   35  H   UNL     1     -41.139  62.355 -56.745  1.00  0.00     0.170 HD
ENDBRANCH  21  24
ENDBRANCH  19  20
ENDBRANCH   1  19
TORSDOF 7
ENDMDL
MODEL 9
REMARK VINA RESULT:      -8.0      3.828      6.222
REMARK  7 active torsions:
REMARK  status: ('A' for Active; 'I' for Inactive)
REMARK    1  A    between atoms: O_2  and  C_3 
REMARK    2  A    between atoms: C_6  and  C_7 
REMARK    3  A    between atoms: C_7  and  N_8 
REMARK    4  A    between atoms: C_7  and  C_25 
REMARK    5  A    between atoms: N_8  and  C_11 
REMARK    6  A    between atoms: C_11  and  C_12 
REMARK       I    between atoms: C_12  and  N_13 
REMARK    7  A    between atoms: N_13  and  C_14 
ROOT
HETATM    1  N   UNL     1     -43.095  54.412 -53.586  1.00  0.00    -0.055 N 
HETATM    2  H   UNL     1     -43.217  53.387 -53.598  1.00  0.00     0.278 HD
HETATM    3  H   UNL     1     -43.507  54.688 -52.687  1.00  0.00     0.278 HD
ENDROOT
BRANCH   1   4
HETATM    4  C   UNL     1     -41.642  54.767 -53.570  1.00  0.00     0.252 C 
BRANCH   4   5
HETATM    5  C   UNL     1     -41.283  56.046 -52.815  1.00  0.00    -0.023 A 
HETATM    6  C   UNL     1     -40.839  57.177 -53.534  1.00  0.00     0.012 A 
HETATM    7  C   UNL     1     -40.541  58.387 -52.893  1.00  0.00     0.037 A 
HETATM    8  C   UNL     1     -40.703  58.507 -51.517  1.00  0.00     0.068 A 
HETATM    9  C   UNL     1     -41.167  57.409 -50.795  1.00  0.00     0.037 A 
HETATM   10  C   UNL     1     -41.465  56.198 -51.430  1.00  0.00     0.012 A 
BRANCH   8  11
HETATM   11  O   UNL     1     -40.457  59.621 -50.768  1.00  0.00    -0.356 OA
HETATM   12  C   UNL     1     -41.585  60.362 -50.315  1.00  0.00     0.210 C 
ENDBRANCH   8  11
ENDBRANCH   4   5
BRANCH   4  13
HETATM   13  C   UNL     1     -40.823  53.527 -53.225  1.00  0.00    -0.023 A 
HETATM   14  C   UNL     1     -40.482  52.618 -54.243  1.00  0.00     0.009 A 
HETATM   15  C   UNL     1     -39.784  51.447 -53.946  1.00  0.00     0.001 A 
HETATM   16  C   UNL     1     -39.423  51.162 -52.632  1.00  0.00     0.000 A 
HETATM   17  C   UNL     1     -39.756  52.048 -51.611  1.00  0.00     0.001 A 
HETATM   18  C   UNL     1     -40.454  53.222 -51.902  1.00  0.00     0.009 A 
ENDBRANCH   4  13
ENDBRANCH   1   4
BRANCH   1  19
HETATM   19  C   UNL     1     -43.960  54.988 -54.682  1.00  0.00     0.336 C 
BRANCH  19  20
HETATM   20  C   UNL     1     -44.261  56.452 -54.361  1.00  0.00     0.248 C 
HETATM   21  N   UNL     1     -44.506  56.708 -53.030  1.00  0.00    -0.326 N 
HETATM   22  H   UNL     1     -44.463  55.938 -52.370  1.00  0.00     0.169 HD
HETATM   23  O   UNL     1     -44.262  57.250 -55.298  1.00  0.00    -0.271 OA
BRANCH  21  24
HETATM   24  C   UNL     1     -44.828  57.959 -52.450  1.00  0.00     0.037 A 
HETATM   25  C   UNL     1     -44.922  58.174 -51.070  1.00  0.00     0.061 A 
HETATM   26  C   UNL     1     -45.239  59.449 -50.652  1.00  0.00     0.065 A 
HETATM   27  C   UNL     1     -45.461  60.495 -51.543  1.00  0.00     0.063 A 
HETATM   28  N   UNL     1     -45.396  59.945 -49.363  1.00  0.00    -0.306 N 
HETATM   29  N   UNL     1     -45.754  61.634 -50.804  1.00  0.00    -0.307 N 
HETATM   30  C   UNL     1     -45.380  60.323 -52.901  1.00  0.00     0.034 A 
HETATM   31  C   UNL     1     -45.717  61.308 -49.440  1.00  0.00     0.325 A 
HETATM   32  H   UNL     1     -45.964  62.557 -51.149  1.00  0.00     0.170 HD
HETATM   33  O   UNL     1     -45.924  62.060 -48.506  1.00  0.00    -0.247 OA
HETATM   34  C   UNL     1     -45.060  59.034 -53.352  1.00  0.00     0.032 A 
HETATM   35  H   UNL     1     -45.305  59.447 -48.492  1.00  0.00     0.170 HD
ENDBRANCH  21  24
ENDBRANCH  19  20
ENDBRANCH   1  19
TORSDOF 7
ENDMDL
MODEL 10
REMARK VINA RESULT:      -7.9      4.412      7.392
REMARK  7 active torsions:
REMARK  status: ('A' for Active; 'I' for Inactive)
REMARK    1  A    between atoms: O_2  and  C_3 
REMARK    2  A    between atoms: C_6  and  C_7 
REMARK    3  A    between atoms: C_7  and  N_8 
REMARK    4  A    between atoms: C_7  and  C_25 
REMARK    5  A    between atoms: N_8  and  C_11 
REMARK    6  A    between atoms: C_11  and  C_12 
REMARK       I    between atoms: C_12  and  N_13 
REMARK    7  A    between atoms: N_13  and  C_14 
ROOT
HETATM    1  N   UNL     1     -41.874  55.792 -51.028  1.00  0.00    -0.055 N 
HETATM    2  H   UNL     1     -42.836  56.153 -51.132  1.00  0.00     0.278 HD
HETATM    3  H   UNL     1     -42.012  54.877 -50.583  1.00  0.00     0.278 HD
ENDROOT
BRANCH   1   4
HETATM    4  C   UNL     1     -41.247  55.578 -52.369  1.00  0.00     0.252 C 
BRANCH   4   5
HETATM    5  C   UNL     1     -40.741  54.163 -52.644  1.00  0.00    -0.023 A 
HETATM    6  C   UNL     1     -40.177  53.410 -51.592  1.00  0.00     0.012 A 
HETATM    7  C   UNL     1     -39.740  52.092 -51.782  1.00  0.00     0.037 A 
HETATM    8  C   UNL     1     -39.880  51.482 -53.023  1.00  0.00     0.068 A 
HETATM    9  C   UNL     1     -40.462  52.201 -54.066  1.00  0.00     0.037 A 
HETATM   10  C   UNL     1     -40.898  53.518 -53.882  1.00  0.00     0.012 A 
BRANCH   8  11
HETATM   11  O   UNL     1     -39.506  50.209 -53.346  1.00  0.00    -0.356 OA
HETATM   12  C   UNL     1     -39.753  49.777 -54.679  1.00  0.00     0.210 C 
ENDBRANCH   8  11
ENDBRANCH   4   5
BRANCH   4  13
HETATM   13  C   UNL     1     -42.132  56.199 -53.445  1.00  0.00    -0.023 A 
HETATM   14  C   UNL     1     -43.525  56.008 -53.390  1.00  0.00     0.009 A 
HETATM   15  C   UNL     1     -44.353  56.516 -54.391  1.00  0.00     0.001 A 
HETATM   16  C   UNL     1     -43.805  57.213 -55.464  1.00  0.00     0.000 A 
HETATM   17  C   UNL     1     -42.429  57.408 -55.538  1.00  0.00     0.001 A 
HETATM   18  C   UNL     1     -41.595  56.903 -54.539  1.00  0.00     0.009 A 
ENDBRANCH   4  13
ENDBRANCH   1   4
BRANCH   1  19
HETATM   19  C   UNL     1     -41.158  56.680 -50.038  1.00  0.00     0.336 C 
BRANCH  19  20
HETATM   20  C   UNL     1     -41.133  58.110 -50.577  1.00  0.00     0.248 C 
HETATM   21  N   UNL     1     -42.374  58.641 -50.851  1.00  0.00    -0.326 N 
HETATM   22  H   UNL     1     -43.196  58.073 -50.674  1.00  0.00     0.169 HD
HETATM   23  O   UNL     1     -40.033  58.644 -50.718  1.00  0.00    -0.271 OA
BRANCH  21  24
HETATM   24  C   UNL     1     -42.651  59.928 -51.373  1.00  0.00     0.037 A 
HETATM   25  C   UNL     1     -42.573  60.246 -52.734  1.00  0.00     0.061 A 
HETATM   26  C   UNL     1     -42.878  61.541 -53.094  1.00  0.00     0.065 A 
HETATM   27  C   UNL     1     -43.250  62.509 -52.166  1.00  0.00     0.063 A 
HETATM   28  N   UNL     1     -42.886  62.132 -54.353  1.00  0.00    -0.306 N 
HETATM   29  N   UNL     1     -43.488  63.694 -52.851  1.00  0.00    -0.307 N 
HETATM   30  C   UNL     1     -43.337  62.235 -50.825  1.00  0.00     0.034 A 
HETATM   31  C   UNL     1     -43.265  63.476 -54.219  1.00  0.00     0.325 A 
HETATM   32  H   UNL     1     -43.773  64.582 -52.470  1.00  0.00     0.170 HD
HETATM   33  O   UNL     1     -43.378  64.292 -55.115  1.00  0.00    -0.247 OA
HETATM   34  C   UNL     1     -43.031  60.925 -50.432  1.00  0.00     0.032 A 
HETATM   35  H   UNL     1     -42.662  61.707 -55.238  1.00  0.00     0.170 HD
ENDBRANCH  21  24
ENDBRANCH  19  20
ENDBRANCH   1  19
TORSDOF 7
ENDMDL
