MODEL 1
REMARK VINA RESULT:      -8.3      0.000      0.000
REMARK  5 active torsions:
REMARK  status: ('A' for Active; 'I' for Inactive)
REMARK    1  A    between atoms: C_7  and  C_8 
REMARK       I    between atoms: C_8  and  N_9 
REMARK    2  A    between atoms: N_9  and  C_10 
REMARK    3  A    between atoms: C_10  and  C_11 
REMARK    4  A    between atoms: C_11  and  O_12 
REMARK    5  A    between atoms: C_11  and  C_13 
ROOT
HETATM    1  C   UNL     1     -40.969  54.841 -53.476  1.00  0.00     0.254 C 
HETATM    2  N   UNL     1     -42.205  55.370 -53.180  1.00  0.00    -0.354 N 
HETATM    3  O   UNL     1     -40.263  55.292 -54.374  1.00  0.00    -0.268 OA
HETATM    4  H   UNL     1     -42.585  55.164 -52.265  1.00  0.00     0.162 HD
ENDROOT
BRANCH   2   5
HETATM    5  C   UNL     1     -42.648  56.619 -53.782  1.00  0.00     0.159 C 
BRANCH   5   6
HETATM    6  C   UNL     1     -43.943  56.452 -54.600  1.00  0.00     0.175 C 
BRANCH   6   7
HETATM    7  O   UNL     1     -44.533  55.184 -54.277  1.00  0.00    -0.389 OA
HETATM    8  H   UNL     1     -44.878  55.225 -53.369  1.00  0.00     0.210 HD
ENDBRANCH   6   7
BRANCH   6   9
HETATM    9  C   UNL     1     -43.719  56.668 -56.078  1.00  0.00     0.049 A 
HETATM   10  C   UNL     1     -44.156  57.857 -56.671  1.00  0.00     0.128 A 
HETATM   11  F   UNL     1     -44.801  58.768 -55.928  1.00  0.00    -0.205 F 
HETATM   12  C   UNL     1     -43.944  58.129 -58.022  1.00  0.00     0.043 A 
HETATM   13  C   UNL     1     -43.269  57.205 -58.815  1.00  0.00     0.006 A 
HETATM   14  C   UNL     1     -42.815  56.016 -58.247  1.00  0.00     0.043 A 
HETATM   15  C   UNL     1     -43.041  55.761 -56.893  1.00  0.00     0.128 A 
HETATM   16  F   UNL     1     -42.611  54.598 -56.386  1.00  0.00    -0.205 F 
ENDBRANCH   6   9
ENDBRANCH   5   6
ENDBRANCH   2   5
BRANCH   1  17
HETATM   17  C   UNL     1     -40.532  53.747 -52.604  1.00  0.00     0.066 A 
HETATM   18  C   UNL     1     -40.318  53.775 -51.226  1.00  0.00     0.022 A 
HETATM   19  C   UNL     1     -40.502  54.843 -50.206  1.00  0.00     0.069 C 
HETATM   20  N   UNL     1     -39.900  52.523 -50.843  1.00  0.00    -0.358 N 
HETATM   21  H   UNL     1     -39.669  52.251 -49.897  1.00  0.00     0.166 HD
HETATM   22  C   UNL     1     -39.872  51.666 -51.913  1.00  0.00     0.043 A 
HETATM   23  C   UNL     1     -40.272  52.396 -53.030  1.00  0.00     0.008 A 
HETATM   24  C   UNL     1     -39.530  50.308 -51.972  1.00  0.00     0.030 A 
HETATM   25  C   UNL     1     -40.330  51.729 -54.273  1.00  0.00     0.015 A 
HETATM   26  C   UNL     1     -39.993  50.373 -54.353  1.00  0.00     0.001 A 
HETATM   27  C   UNL     1     -39.599  49.674 -53.216  1.00  0.00     0.002 A 
ENDBRANCH   1  17
TORSDOF 5
ENDMDL
MODEL 2
REMARK VINA RESULT:      -8.2      1.913      3.041
REMARK  5 active torsions:
REMARK  status: ('A' for Active; 'I' for Inactive)
REMARK    1  A    between atoms: C_7  and  C_8 
REMARK       I    between atoms: C_8  and  N_9 
REMARK    2  A    between atoms: N_9  and  C_10 
REMARK    3  A    between atoms: C_10  and  C_11 
REMARK    4  A    between atoms: C_11  and  O_12 
REMARK    5  A    between atoms: C_11  and  C_13 
ROOT
HETATM    1  C   UNL     1     -41.003  54.445 -54.014  1.00  0.00     0.254 C 
HETATM    2  N   UNL     1     -42.332  54.366 -54.366  1.00  0.00    -0.354 N 
HETATM    3  O   UNL     1     -40.245  55.276 -54.506  1.00  0.00    -0.268 OA
HETATM    4  H   UNL     1     -42.949  53.886 -53.723  1.00  0.00     0.162 HD
ENDROOT
BRANCH   2   5
HETATM    5  C   UNL     1     -42.951  55.394 -55.187  1.00  0.00     0.159 C 
BRANCH   5   6
HETATM    6  C   UNL     1     -43.781  56.392 -54.357  1.00  0.00     0.175 C 
BRANCH   6   7
HETATM    7  O   UNL     1     -44.812  56.942 -55.191  1.00  0.00    -0.389 OA
HETATM    8  H   UNL     1     -45.333  56.210 -55.562  1.00  0.00     0.210 HD
ENDBRANCH   6   7
BRANCH   6   9
HETATM    9  C   UNL     1     -42.918  57.431 -53.680  1.00  0.00     0.049 A 
HETATM   10  C   UNL     1     -42.876  57.483 -52.284  1.00  0.00     0.128 A 
HETATM   11  F   UNL     1     -43.632  56.638 -51.567  1.00  0.00    -0.205 F 
HETATM   12  C   UNL     1     -42.070  58.395 -51.603  1.00  0.00     0.043 A 
HETATM   13  C   UNL     1     -41.268  59.279 -52.321  1.00  0.00     0.006 A 
HETATM   14  C   UNL     1     -41.285  59.242 -53.714  1.00  0.00     0.043 A 
HETATM   15  C   UNL     1     -42.102  58.324 -54.376  1.00  0.00     0.128 A 
HETATM   16  F   UNL     1     -42.110  58.332 -55.716  1.00  0.00    -0.205 F 
ENDBRANCH   6   9
ENDBRANCH   5   6
ENDBRANCH   2   5
BRANCH   1  17
HETATM   17  C   UNL     1     -40.577  53.512 -52.967  1.00  0.00     0.066 A 
HETATM   18  C   UNL     1     -40.441  53.752 -51.600  1.00  0.00     0.022 A 
HETATM   19  C   UNL     1     -40.719  54.950 -50.762  1.00  0.00     0.069 C 
HETATM   20  N   UNL     1     -40.000  52.590 -51.013  1.00  0.00    -0.358 N 
HETATM   21  H   UNL     1     -39.813  52.471 -50.027  1.00  0.00     0.166 HD
HETATM   22  C   UNL     1     -39.882  51.586 -51.940  1.00  0.00     0.043 A 
HETATM   23  C   UNL     1     -40.245  52.125 -53.172  1.00  0.00     0.008 A 
HETATM   24  C   UNL     1     -39.489  50.251 -51.778  1.00  0.00     0.030 A 
HETATM   25  C   UNL     1     -40.210  51.280 -54.303  1.00  0.00     0.015 A 
HETATM   26  C   UNL     1     -39.821  49.943 -54.162  1.00  0.00     0.001 A 
HETATM   27  C   UNL     1     -39.466  49.438 -52.914  1.00  0.00     0.002 A 
ENDBRANCH   1  17
TORSDOF 5
ENDMDL
MODEL 3
REMARK VINA RESULT:      -8.0      1.840      2.924
REMARK  5 active torsions:
REMARK  status: ('A' for Active; 'I' for Inactive)
REMARK    1  A    between atoms: C_7  and  C_8 
REMARK       I    between atoms: C_8  and  N_9 
REMARK    2  A    between atoms: N_9  and  C_10 
REMARK    3  A    between atoms: C_10  and  C_11 
REMARK    4  A    between atoms: C_11  and  O_12 
REMARK    5  A    between atoms: C_11  and  C_13 
ROOT
HETATM    1  C   UNL     1     -41.766  55.401 -51.551  1.00  0.00     0.254 C 
HETATM    2  N   UNL     1     -41.004  56.546 -51.481  1.00  0.00    -0.354 N 
HETATM    3  O   UNL     1     -42.937  55.417 -51.922  1.00  0.00    -0.268 OA
HETATM    4  H   UNL     1     -39.999  56.428 -51.470  1.00  0.00     0.162 HD
ENDROOT
BRANCH   2   5
HETATM    5  C   UNL     1     -41.486  57.802 -52.037  1.00  0.00     0.159 C 
BRANCH   5   6
HETATM    6  C   UNL     1     -40.935  58.072 -53.450  1.00  0.00     0.175 C 
BRANCH   6   7
HETATM    7  O   UNL     1     -40.760  59.487 -53.614  1.00  0.00    -0.389 OA
HETATM    8  H   UNL     1     -39.953  59.641 -54.135  1.00  0.00     0.210 HD
ENDBRANCH   6   7
BRANCH   6   9
HETATM    9  C   UNL     1     -41.776  57.427 -54.526  1.00  0.00     0.049 A 
HETATM   10  C   UNL     1     -41.351  56.225 -55.100  1.00  0.00     0.128 A 
HETATM   11  F   UNL     1     -40.186  55.684 -54.715  1.00  0.00    -0.205 F 
HETATM   12  C   UNL     1     -42.104  55.563 -56.070  1.00  0.00     0.043 A 
HETATM   13  C   UNL     1     -43.322  56.097 -56.482  1.00  0.00     0.006 A 
HETATM   14  C   UNL     1     -43.773  57.290 -55.920  1.00  0.00     0.043 A 
HETATM   15  C   UNL     1     -43.002  57.937 -54.953  1.00  0.00     0.128 A 
HETATM   16  F   UNL     1     -43.457  59.094 -54.450  1.00  0.00    -0.205 F 
ENDBRANCH   6   9
ENDBRANCH   5   6
ENDBRANCH   2   5
BRANCH   1  17
HETATM   17  C   UNL     1     -41.062  54.160 -51.215  1.00  0.00     0.066 A 
HETATM   18  C   UNL     1     -40.647  53.718 -49.959  1.00  0.00     0.022 A 
HETATM   19  C   UNL     1     -40.809  54.286 -48.593  1.00  0.00     0.069 C 
HETATM   20  N   UNL     1     -40.015  52.510 -50.130  1.00  0.00    -0.358 N 
HETATM   21  H   UNL     1     -39.609  51.955 -49.388  1.00  0.00     0.166 HD
HETATM   22  C   UNL     1     -40.039  52.125 -51.446  1.00  0.00     0.043 A 
HETATM   23  C   UNL     1     -40.697  53.130 -52.152  1.00  0.00     0.008 A 
HETATM   24  C   UNL     1     -39.537  50.968 -52.057  1.00  0.00     0.030 A 
HETATM   25  C   UNL     1     -40.856  52.968 -53.545  1.00  0.00     0.015 A 
HETATM   26  C   UNL     1     -40.363  51.819 -54.174  1.00  0.00     0.001 A 
HETATM   27  C   UNL     1     -39.711  50.834 -53.437  1.00  0.00     0.002 A 
ENDBRANCH   1  17
TORSDOF 5
ENDMDL
MODEL 4
REMARK VINA RESULT:      -7.8      1.981      3.995
REMARK  5 active torsions:
REMARK  status: ('A' for Active; 'I' for Inactive)
REMARK    1  A    between atoms: C_7  and  C_8 
REMARK       I    between atoms: C_8  and  N_9 
REMARK    2  A    between atoms: N_9  and  C_10 
REMARK    3  A    between atoms: C_10  and  C_11 
REMARK    4  A    between atoms: C_11  and  O_12 
REMARK    5  A    between atoms: C_11  and  C_13 
ROOT
HETATM    1  C   UNL     1     -41.033  54.453 -54.037  1.00  0.00     0.254 C 
HETATM    2  N   UNL     1     -42.376  54.499 -54.339  1.00  0.00    -0.354 N 
HETATM    3  O   UNL     1     -40.193  55.053 -54.702  1.00  0.00    -0.268 OA
HETATM    4  H   UNL     1     -43.021  54.250 -53.600  1.00  0.00     0.162 HD
ENDROOT
BRANCH   2   5
HETATM    5  C   UNL     1     -42.887  55.424 -55.339  1.00  0.00     0.159 C 
BRANCH   5   6
HETATM    6  C   UNL     1     -43.825  56.486 -54.734  1.00  0.00     0.175 C 
BRANCH   6   7
HETATM    7  O   UNL     1     -44.684  56.986 -55.770  1.00  0.00    -0.389 OA
HETATM    8  H   UNL     1     -45.578  56.631 -55.628  1.00  0.00     0.210 HD
ENDBRANCH   6   7
BRANCH   6   9
HETATM    9  C   UNL     1     -43.068  57.562 -53.991  1.00  0.00     0.049 A 
HETATM   10  C   UNL     1     -43.223  57.676 -52.606  1.00  0.00     0.128 A 
HETATM   11  F   UNL     1     -44.070  56.857 -51.965  1.00  0.00    -0.205 F 
HETATM   12  C   UNL     1     -42.523  58.625 -51.860  1.00  0.00     0.043 A 
HETATM   13  C   UNL     1     -41.631  59.482 -52.498  1.00  0.00     0.006 A 
HETATM   14  C   UNL     1     -41.451  59.384 -53.876  1.00  0.00     0.043 A 
HETATM   15  C   UNL     1     -42.165  58.431 -54.604  1.00  0.00     0.128 A 
HETATM   16  F   UNL     1     -41.983  58.379 -55.931  1.00  0.00    -0.205 F 
ENDBRANCH   6   9
ENDBRANCH   5   6
ENDBRANCH   2   5
BRANCH   1  17
HETATM   17  C   UNL     1     -40.689  53.692 -52.832  1.00  0.00     0.066 A 
HETATM   18  C   UNL     1     -40.166  52.402 -52.747  1.00  0.00     0.022 A 
HETATM   19  C   UNL     1     -39.744  51.422 -53.785  1.00  0.00     0.069 C 
HETATM   20  N   UNL     1     -40.020  52.098 -51.415  1.00  0.00    -0.358 N 
HETATM   21  H   UNL     1     -39.661  51.224 -51.054  1.00  0.00     0.166 HD
HETATM   22  C   UNL     1     -40.389  53.157 -50.626  1.00  0.00     0.043 A 
HETATM   23  C   UNL     1     -40.804  54.176 -51.481  1.00  0.00     0.008 A 
HETATM   24  C   UNL     1     -40.381  53.288 -49.231  1.00  0.00     0.030 A 
HETATM   25  C   UNL     1     -41.235  55.391 -50.905  1.00  0.00     0.015 A 
HETATM   26  C   UNL     1     -41.234  55.542 -49.514  1.00  0.00     0.001 A 
HETATM   27  C   UNL     1     -40.812  54.503 -48.690  1.00  0.00     0.002 A 
ENDBRANCH   1  17
TORSDOF 5
ENDMDL
MODEL 5
REMARK VINA RESULT:      -7.7      1.751      2.262
REMARK  5 active torsions:
REMARK  status: ('A' for Active; 'I' for Inactive)
REMARK    1  A    between atoms: C_7  and  C_8 
REMARK       I    between atoms: C_8  and  N_9 
REMARK    2  A    between atoms: N_9  and  C_10 
REMARK    3  A    between atoms: C_10  and  C_11 
REMARK    4  A    between atoms: C_11  and  O_12 
REMARK    5  A    between atoms: C_11  and  C_13 
ROOT
HETATM    1  C   UNL     1     -42.538  54.709 -54.342  1.00  0.00     0.254 C 
HETATM    2  N   UNL     1     -41.938  55.211 -55.475  1.00  0.00    -0.354 N 
HETATM    3  O   UNL     1     -43.757  54.688 -54.203  1.00  0.00    -0.268 OA
HETATM    4  H   UNL     1     -40.984  54.924 -55.654  1.00  0.00     0.162 HD
ENDROOT
BRANCH   2   5
HETATM    5  C   UNL     1     -42.725  55.555 -56.649  1.00  0.00     0.159 C 
BRANCH   5   6
HETATM    6  C   UNL     1     -43.219  57.014 -56.621  1.00  0.00     0.175 C 
BRANCH   6   7
HETATM    7  O   UNL     1     -44.537  57.044 -56.053  1.00  0.00    -0.389 OA
HETATM    8  H   UNL     1     -45.171  57.277 -56.753  1.00  0.00     0.210 HD
ENDBRANCH   6   7
BRANCH   6   9
HETATM    9  C   UNL     1     -43.118  57.679 -57.974  1.00  0.00     0.049 A 
HETATM   10  C   UNL     1     -42.298  58.801 -58.126  1.00  0.00     0.128 A 
HETATM   11  F   UNL     1     -41.645  59.293 -57.062  1.00  0.00    -0.205 F 
HETATM   12  C   UNL     1     -42.135  59.435 -59.358  1.00  0.00     0.043 A 
HETATM   13  C   UNL     1     -42.792  58.941 -60.481  1.00  0.00     0.006 A 
HETATM   14  C   UNL     1     -43.609  57.818 -60.359  1.00  0.00     0.043 A 
HETATM   15  C   UNL     1     -43.762  57.202 -59.116  1.00  0.00     0.128 A 
HETATM   16  F   UNL     1     -44.573  56.138 -59.031  1.00  0.00    -0.205 F 
ENDBRANCH   6   9
ENDBRANCH   5   6
ENDBRANCH   2   5
BRANCH   1  17
HETATM   17  C   UNL     1     -41.621  54.145 -53.347  1.00  0.00     0.066 A 
HETATM   18  C   UNL     1     -41.242  54.686 -52.119  1.00  0.00     0.022 A 
HETATM   19  C   UNL     1     -41.651  55.924 -51.401  1.00  0.00     0.069 C 
HETATM   20  N   UNL     1     -40.354  53.815 -51.535  1.00  0.00    -0.358 N 
HETATM   21  H   UNL     1     -39.912  53.951 -50.635  1.00  0.00     0.166 HD
HETATM   22  C   UNL     1     -40.170  52.703 -52.316  1.00  0.00     0.043 A 
HETATM   23  C   UNL     1     -40.956  52.871 -53.454  1.00  0.00     0.008 A 
HETATM   24  C   UNL     1     -39.377  51.569 -52.098  1.00  0.00     0.030 A 
HETATM   25  C   UNL     1     -40.944  51.848 -54.427  1.00  0.00     0.015 A 
HETATM   26  C   UNL     1     -40.160  50.707 -54.227  1.00  0.00     0.001 A 
HETATM   27  C   UNL     1     -39.386  50.572 -53.077  1.00  0.00     0.002 A 
ENDBRANCH   1  17
TORSDOF 5
ENDMDL
MODEL 6
REMARK VINA RESULT:      -7.5      2.728      8.095
REMARK  5 active torsions:
REMARK  status: ('A' for Active; 'I' for Inactive)
REMARK    1  A    between atoms: C_7  and  C_8 
REMARK       I    between atoms: C_8  and  N_9 
REMARK    2  A    between atoms: N_9  and  C_10 
REMARK    3  A    between atoms: C_10  and  C_11 
REMARK    4  A    between atoms: C_11  and  O_12 
REMARK    5  A    between atoms: C_11  and  C_13 
ROOT
HETATM    1  C   UNL     1     -42.866  56.603 -56.789  1.00  0.00     0.254 C 
HETATM    2  N   UNL     1     -41.794  55.822 -56.420  1.00  0.00    -0.354 N 
HETATM    3  O   UNL     1     -43.755  56.908 -55.998  1.00  0.00    -0.268 OA
HETATM    4  H   UNL     1     -40.972  55.865 -57.008  1.00  0.00     0.162 HD
ENDROOT
BRANCH   2   5
HETATM    5  C   UNL     1     -41.556  55.488 -55.024  1.00  0.00     0.159 C 
BRANCH   5   6
HETATM    6  C   UNL     1     -42.155  54.124 -54.634  1.00  0.00     0.175 C 
BRANCH   6   7
HETATM    7  O   UNL     1     -43.570  54.278 -54.444  1.00  0.00    -0.389 OA
HETATM    8  H   UNL     1     -43.908  54.889 -55.121  1.00  0.00     0.210 HD
ENDBRANCH   6   7
BRANCH   6   9
HETATM    9  C   UNL     1     -41.442  53.500 -53.457  1.00  0.00     0.049 A 
HETATM   10  C   UNL     1     -40.489  52.502 -53.684  1.00  0.00     0.128 A 
HETATM   11  F   UNL     1     -40.253  52.086 -54.936  1.00  0.00    -0.205 F 
HETATM   12  C   UNL     1     -39.772  51.916 -52.641  1.00  0.00     0.043 A 
HETATM   13  C   UNL     1     -39.990  52.335 -51.332  1.00  0.00     0.006 A 
HETATM   14  C   UNL     1     -40.927  53.335 -51.079  1.00  0.00     0.043 A 
HETATM   15  C   UNL     1     -41.638  53.905 -52.136  1.00  0.00     0.128 A 
HETATM   16  F   UNL     1     -42.548  54.848 -51.854  1.00  0.00    -0.205 F 
ENDBRANCH   6   9
ENDBRANCH   5   6
ENDBRANCH   2   5
BRANCH   1  17
HETATM   17  C   UNL     1     -42.836  57.095 -58.169  1.00  0.00     0.066 A 
HETATM   18  C   UNL     1     -43.234  56.432 -59.330  1.00  0.00     0.022 A 
HETATM   19  C   UNL     1     -43.846  55.095 -59.559  1.00  0.00     0.069 C 
HETATM   20  N   UNL     1     -43.010  57.276 -60.391  1.00  0.00    -0.358 N 
HETATM   21  H   UNL     1     -43.205  57.058 -61.359  1.00  0.00     0.166 HD
HETATM   22  C   UNL     1     -42.519  58.483 -59.963  1.00  0.00     0.043 A 
HETATM   23  C   UNL     1     -42.407  58.409 -58.576  1.00  0.00     0.008 A 
HETATM   24  C   UNL     1     -42.174  59.627 -60.695  1.00  0.00     0.030 A 
HETATM   25  C   UNL     1     -41.922  59.541 -57.887  1.00  0.00     0.015 A 
HETATM   26  C   UNL     1     -41.573  60.694 -58.600  1.00  0.00     0.001 A 
HETATM   27  C   UNL     1     -41.698  60.733 -59.986  1.00  0.00     0.002 A 
ENDBRANCH   1  17
TORSDOF 5
ENDMDL
MODEL 7
REMARK VINA RESULT:      -7.5      2.369      3.380
REMARK  5 active torsions:
REMARK  status: ('A' for Active; 'I' for Inactive)
REMARK    1  A    between atoms: C_7  and  C_8 
REMARK       I    between atoms: C_8  and  N_9 
REMARK    2  A    between atoms: N_9  and  C_10 
REMARK    3  A    between atoms: C_10  and  C_11 
REMARK    4  A    between atoms: C_11  and  O_12 
REMARK    5  A    between atoms: C_11  and  C_13 
ROOT
HETATM    1  C   UNL     1     -40.959  54.565 -53.775  1.00  0.00     0.254 C 
HETATM    2  N   UNL     1     -42.240  55.043 -53.604  1.00  0.00    -0.354 N 
HETATM    3  O   UNL     1     -40.215  54.992 -54.653  1.00  0.00    -0.268 OA
HETATM    4  H   UNL     1     -42.673  54.879 -52.704  1.00  0.00     0.162 HD
ENDROOT
BRANCH   2   5
HETATM    5  C   UNL     1     -42.702  56.219 -54.324  1.00  0.00     0.159 C 
BRANCH   5   6
HETATM    6  C   UNL     1     -42.311  57.533 -53.621  1.00  0.00     0.175 C 
BRANCH   6   7
HETATM    7  O   UNL     1     -41.151  57.294 -52.809  1.00  0.00    -0.389 OA
HETATM    8  H   UNL     1     -40.403  57.787 -53.186  1.00  0.00     0.210 HD
ENDBRANCH   6   7
BRANCH   6   9
HETATM    9  C   UNL     1     -43.469  58.148 -52.871  1.00  0.00     0.049 A 
HETATM   10  C   UNL     1     -44.110  59.271 -53.404  1.00  0.00     0.128 A 
HETATM   11  F   UNL     1     -43.663  59.808 -54.549  1.00  0.00    -0.205 F 
HETATM   12  C   UNL     1     -45.208  59.861 -52.777  1.00  0.00     0.043 A 
HETATM   13  C   UNL     1     -45.699  59.320 -51.592  1.00  0.00     0.006 A 
HETATM   14  C   UNL     1     -45.084  58.196 -51.045  1.00  0.00     0.043 A 
HETATM   15  C   UNL     1     -43.984  57.624 -51.686  1.00  0.00     0.128 A 
HETATM   16  F   UNL     1     -43.404  56.556 -51.119  1.00  0.00    -0.205 F 
ENDBRANCH   6   9
ENDBRANCH   5   6
ENDBRANCH   2   5
BRANCH   1  17
HETATM   17  C   UNL     1     -40.530  53.561 -52.797  1.00  0.00     0.066 A 
HETATM   18  C   UNL     1     -40.356  53.715 -51.422  1.00  0.00     0.022 A 
HETATM   19  C   UNL     1     -40.584  54.866 -50.507  1.00  0.00     0.069 C 
HETATM   20  N   UNL     1     -39.929  52.510 -50.917  1.00  0.00    -0.358 N 
HETATM   21  H   UNL     1     -39.721  52.328 -49.945  1.00  0.00     0.166 HD
HETATM   22  C   UNL     1     -39.858  51.562 -51.905  1.00  0.00     0.043 A 
HETATM   23  C   UNL     1     -40.238  52.182 -53.093  1.00  0.00     0.008 A 
HETATM   24  C   UNL     1     -39.494  50.211 -51.833  1.00  0.00     0.030 A 
HETATM   25  C   UNL     1     -40.251  51.407 -54.273  1.00  0.00     0.015 A 
HETATM   26  C   UNL     1     -39.892  50.055 -54.222  1.00  0.00     0.001 A 
HETATM   27  C   UNL     1     -39.518  49.467 -53.016  1.00  0.00     0.002 A 
ENDBRANCH   1  17
TORSDOF 5
ENDMDL
MODEL 8
REMARK VINA RESULT:      -7.5      1.998      2.571
REMARK  5 active torsions:
REMARK  status: ('A' for Active; 'I' for Inactive)
REMARK    1  A    between atoms: C_7  and  C_8 
REMARK       I    between atoms: C_8  and  N_9 
REMARK    2  A    between atoms: N_9  and  C_10 
REMARK    3  A    between atoms: C_10  and  C_11 
REMARK    4  A    between atoms: C_11  and  O_12 
REMARK    5  A    between atoms: C_11  and  C_13 
ROOT
HETATM    1  C   UNL     1     -41.285  54.710 -53.523  1.00  0.00     0.254 C 
HETATM    2  N   UNL     1     -42.655  54.665 -53.658  1.00  0.00    -0.354 N 
HETATM    3  O   UNL     1     -40.604  55.582 -54.055  1.00  0.00    -0.268 OA
HETATM    4  H   UNL     1     -43.166  54.129 -52.968  1.00  0.00     0.162 HD
ENDROOT
BRANCH   2   5
HETATM    5  C   UNL     1     -43.383  55.767 -54.268  1.00  0.00     0.159 C 
BRANCH   5   6
HETATM    6  C   UNL     1     -43.554  56.963 -53.312  1.00  0.00     0.175 C 
BRANCH   6   7
HETATM    7  O   UNL     1     -44.776  56.796 -52.578  1.00  0.00    -0.389 OA
HETATM    8  H   UNL     1     -45.039  55.861 -52.624  1.00  0.00     0.210 HD
ENDBRANCH   6   7
BRANCH   6   9
HETATM    9  C   UNL     1     -43.443  58.289 -54.028  1.00  0.00     0.049 A 
HETATM   10  C   UNL     1     -42.262  59.029 -53.919  1.00  0.00     0.128 A 
HETATM   11  F   UNL     1     -41.262  58.572 -53.151  1.00  0.00    -0.205 F 
HETATM   12  C   UNL     1     -42.087  60.242 -54.587  1.00  0.00     0.043 A 
HETATM   13  C   UNL     1     -43.104  60.736 -55.398  1.00  0.00     0.006 A 
HETATM   14  C   UNL     1     -44.288  60.013 -55.531  1.00  0.00     0.043 A 
HETATM   15  C   UNL     1     -44.444  58.805 -54.851  1.00  0.00     0.128 A 
HETATM   16  F   UNL     1     -45.605  58.147 -54.984  1.00  0.00    -0.205 F 
ENDBRANCH   6   9
ENDBRANCH   5   6
ENDBRANCH   2   5
BRANCH   1  17
HETATM   17  C   UNL     1     -40.709  53.682 -52.650  1.00  0.00     0.066 A 
HETATM   18  C   UNL     1     -40.404  53.776 -51.292  1.00  0.00     0.022 A 
HETATM   19  C   UNL     1     -40.597  54.864 -50.296  1.00  0.00     0.069 C 
HETATM   20  N   UNL     1     -39.868  52.572 -50.901  1.00  0.00    -0.358 N 
HETATM   21  H   UNL     1     -39.553  52.353 -49.966  1.00  0.00     0.166 HD
HETATM   22  C   UNL     1     -39.849  51.681 -51.943  1.00  0.00     0.043 A 
HETATM   23  C   UNL     1     -40.378  52.339 -53.051  1.00  0.00     0.008 A 
HETATM   24  C   UNL     1     -39.412  50.350 -51.984  1.00  0.00     0.030 A 
HETATM   25  C   UNL     1     -40.472  51.625 -54.266  1.00  0.00     0.015 A 
HETATM   26  C   UNL     1     -40.041  50.295 -54.327  1.00  0.00     0.001 A 
HETATM   27  C   UNL     1     -39.518  49.668 -53.199  1.00  0.00     0.002 A 
ENDBRANCH   1  17
TORSDOF 5
ENDMDL
MODEL 9
REMARK VINA RESULT:      -7.4      1.567      2.408
REMARK  5 active torsions:
REMARK  status: ('A' for Active; 'I' for Inactive)
REMARK    1  A    between atoms: C_7  and  C_8 
REMARK       I    between atoms: C_8  and  N_9 
REMARK    2  A    between atoms: N_9  and  C_10 
REMARK    3  A    between atoms: C_10  and  C_11 
REMARK    4  A    between atoms: C_11  and  O_12 
REMARK    5  A    between atoms: C_11  and  C_13 
ROOT
HETATM    1  C   UNL     1     -42.389  55.581 -53.313  1.00  0.00     0.254 C 
HETATM    2  N   UNL     1     -41.766  56.285 -54.319  1.00  0.00    -0.354 N 
HETATM    3  O   UNL     1     -43.604  55.618 -53.145  1.00  0.00    -0.268 OA
HETATM    4  H   UNL     1     -40.840  55.979 -54.588  1.00  0.00     0.162 HD
ENDROOT
BRANCH   2   5
HETATM    5  C   UNL     1     -42.540  56.947 -55.358  1.00  0.00     0.159 C 
BRANCH   5   6
HETATM    6  C   UNL     1     -42.735  56.061 -56.603  1.00  0.00     0.175 C 
BRANCH   6   7
HETATM    7  O   UNL     1     -41.706  55.060 -56.622  1.00  0.00    -0.389 OA
HETATM    8  H   UNL     1     -41.437  54.876 -55.706  1.00  0.00     0.210 HD
ENDBRANCH   6   7
BRANCH   6   9
HETATM    9  C   UNL     1     -42.827  56.872 -57.875  1.00  0.00     0.049 A 
HETATM   10  C   UNL     1     -43.428  56.308 -59.004  1.00  0.00     0.128 A 
HETATM   11  F   UNL     1     -43.879  55.046 -58.954  1.00  0.00    -0.205 F 
HETATM   12  C   UNL     1     -43.576  57.021 -60.194  1.00  0.00     0.043 A 
HETATM   13  C   UNL     1     -43.126  58.336 -60.272  1.00  0.00     0.006 A 
HETATM   14  C   UNL     1     -42.531  58.924 -59.158  1.00  0.00     0.043 A 
HETATM   15  C   UNL     1     -42.389  58.192 -57.978  1.00  0.00     0.128 A 
HETATM   16  F   UNL     1     -41.791  58.782 -56.933  1.00  0.00    -0.205 F 
ENDBRANCH   6   9
ENDBRANCH   5   6
ENDBRANCH   2   5
BRANCH   1  17
HETATM   17  C   UNL     1     -41.506  54.737 -52.502  1.00  0.00     0.066 A 
HETATM   18  C   UNL     1     -41.073  54.950 -51.193  1.00  0.00     0.022 A 
HETATM   19  C   UNL     1     -41.378  56.012 -50.198  1.00  0.00     0.069 C 
HETATM   20  N   UNL     1     -40.246  53.905 -50.852  1.00  0.00    -0.358 N 
HETATM   21  H   UNL     1     -39.785  53.797 -49.959  1.00  0.00     0.166 HD
HETATM   22  C   UNL     1     -40.157  52.996 -51.875  1.00  0.00     0.043 A 
HETATM   23  C   UNL     1     -40.941  53.479 -52.919  1.00  0.00     0.008 A 
HETATM   24  C   UNL     1     -39.450  51.788 -51.948  1.00  0.00     0.030 A 
HETATM   25  C   UNL     1     -41.019  52.712 -54.102  1.00  0.00     0.015 A 
HETATM   26  C   UNL     1     -40.321  51.503 -54.195  1.00  0.00     0.001 A 
HETATM   27  C   UNL     1     -39.547  51.049 -53.130  1.00  0.00     0.002 A 
ENDBRANCH   1  17
TORSDOF 5
ENDMDL
MODEL 10
REMARK VINA RESULT:      -7.3      2.375      7.218
REMARK  5 active torsions:
REMARK  status: ('A' for Active; 'I' for Inactive)
REMARK    1  A    between atoms: C_7  and  C_8 
REMARK       I    between atoms: C_8  and  N_9 
REMARK    2  A    between atoms: N_9  and  C_10 
REMARK    3  A    between atoms: C_10  and  C_11 
REMARK    4  A    between atoms: C_11  and  O_12 
REMARK    5  A    between atoms: C_11  and  C_13 
ROOT
HETATM    1  C   UNL     1     -43.349  56.295 -55.004  1.00  0.00     0.254 C 
HETATM    2  N   UNL     1     -42.474  55.279 -54.690  1.00  0.00    -0.354 N 
HETATM    3  O   UNL     1     -44.427  56.429 -54.432  1.00  0.00    -0.268 OA
HETATM    4  H   UNL     1     -41.508  55.404 -54.966  1.00  0.00     0.162 HD
ENDROOT
BRANCH   2   5
HETATM    5  C   UNL     1     -42.694  54.435 -53.525  1.00  0.00     0.159 C 
BRANCH   5   6
HETATM    6  C   UNL     1     -41.619  54.635 -52.440  1.00  0.00     0.175 C 
BRANCH   6   7
HETATM    7  O   UNL     1     -40.789  55.746 -52.812  1.00  0.00    -0.389 OA
HETATM    8  H   UNL     1     -41.072  56.527 -52.307  1.00  0.00     0.210 HD
ENDBRANCH   6   7
BRANCH   6   9
HETATM    9  C   UNL     1     -40.853  53.365 -52.152  1.00  0.00     0.049 A 
HETATM   10  C   UNL     1     -40.824  52.864 -50.847  1.00  0.00     0.128 A 
HETATM   11  F   UNL     1     -41.442  53.538 -49.865  1.00  0.00    -0.205 F 
HETATM   12  C   UNL     1     -40.166  51.677 -50.526  1.00  0.00     0.043 A 
HETATM   13  C   UNL     1     -39.523  50.952 -51.526  1.00  0.00     0.006 A 
HETATM   14  C   UNL     1     -39.544  51.425 -52.837  1.00  0.00     0.043 A 
HETATM   15  C   UNL     1     -40.205  52.618 -53.135  1.00  0.00     0.128 A 
HETATM   16  F   UNL     1     -40.185  53.054 -54.403  1.00  0.00    -0.205 F 
ENDBRANCH   6   9
ENDBRANCH   5   6
ENDBRANCH   2   5
BRANCH   1  17
HETATM   17  C   UNL     1     -42.873  57.238 -56.020  1.00  0.00     0.066 A 
HETATM   18  C   UNL     1     -42.392  58.534 -55.836  1.00  0.00     0.022 A 
HETATM   19  C   UNL     1     -42.152  59.349 -54.615  1.00  0.00     0.069 C 
HETATM   20  N   UNL     1     -42.079  59.042 -57.074  1.00  0.00    -0.358 N 
HETATM   21  H   UNL     1     -41.707  59.967 -57.246  1.00  0.00     0.166 HD
HETATM   22  C   UNL     1     -42.297  58.111 -58.057  1.00  0.00     0.043 A 
HETATM   23  C   UNL     1     -42.785  56.966 -57.432  1.00  0.00     0.008 A 
HETATM   24  C   UNL     1     -42.095  58.197 -59.441  1.00  0.00     0.030 A 
HETATM   25  C   UNL     1     -43.089  55.847 -58.238  1.00  0.00     0.015 A 
HETATM   26  C   UNL     1     -42.893  55.912 -59.622  1.00  0.00     0.001 A 
HETATM   27  C   UNL     1     -42.402  57.073 -60.213  1.00  0.00     0.002 A 
ENDBRANCH   1  17
TORSDOF 5
ENDMDL
