MODEL 1
REMARK VINA RESULT:      -8.0      0.000      0.000
REMARK  5 active torsions:
REMARK  status: ('A' for Active; 'I' for Inactive)
REMARK    1  A    between atoms: C_3  and  N_4 
REMARK       I    between atoms: N_4  and  C_5 
REMARK       I    between atoms: C_5  and  N_6 
REMARK    2  A    between atoms: N_6  and  C_7 
REMARK    3  A    between atoms: C_7  and  C_8 
REMARK    4  A    between atoms: C_16  and  N_17 
REMARK       I    between atoms: N_17  and  C_18 
REMARK    5  A    between atoms: C_18  and  C_19 
ROOT
HETATM    1  C   UNL     1     -42.426  59.802 -52.729  1.00  0.00     0.050 C 
HETATM    2  C   UNL     1     -42.289  58.508 -51.971  1.00  0.00    -0.035 A 
HETATM    3  C   UNL     1     -43.397  57.838 -51.420  1.00  0.00     0.044 A 
HETATM    4  C   UNL     1     -43.219  56.620 -50.729  1.00  0.00     0.059 A 
HETATM    5  C   UNL     1     -41.944  56.086 -50.545  1.00  0.00     0.037 A 
HETATM    6  C   UNL     1     -40.845  56.793 -51.055  1.00  0.00     0.030 A 
HETATM    7  C   UNL     1     -41.013  57.982 -51.764  1.00  0.00     0.011 A 
ENDROOT
BRANCH   3   8
HETATM    8  N   UNL     1     -44.679  58.375 -51.640  1.00  0.00    -0.308 N 
HETATM    9  C   UNL     1     -45.431  59.220 -50.882  1.00  0.00     0.321 C 
HETATM   10  N   UNL     1     -44.807  59.859 -49.860  1.00  0.00    -0.336 N 
HETATM   11  O   UNL     1     -46.591  59.464 -51.210  1.00  0.00    -0.247 OA
HETATM   12  H   UNL     1     -43.795  59.869 -49.858  1.00  0.00     0.164 HD
HETATM   13  H   UNL     1     -45.094  58.239 -52.552  1.00  0.00     0.170 HD
BRANCH  10  14
HETATM   14  C   UNL     1     -45.431  60.999 -49.235  1.00  0.00     0.202 C 
BRANCH  14  15
HETATM   15  C   UNL     1     -45.550  60.743 -47.770  1.00  0.00     0.121 A 
HETATM   16  N   UNL     1     -46.345  59.876 -47.168  1.00  0.00    -0.244 NA
HETATM   17  C   UNL     1     -46.096  60.012 -45.828  1.00  0.00     0.135 A 
HETATM   18  C   UNL     1     -45.128  60.961 -45.608  1.00  0.00     0.109 A 
HETATM   19  N   UNL     1     -44.782  61.414 -46.850  1.00  0.00    -0.352 N 
HETATM   20  H   UNL     1     -44.084  62.115 -47.060  1.00  0.00     0.166 HD
ENDBRANCH  14  15
ENDBRANCH  10  14
ENDBRANCH   3   8
BRANCH   5  21
HETATM   21  N   UNL     1     -41.629  54.848 -49.956  1.00  0.00    -0.323 N 
HETATM   22  C   UNL     1     -41.034  53.686 -50.368  1.00  0.00     0.256 C 
HETATM   23  O   UNL     1     -40.657  52.889 -49.503  1.00  0.00    -0.267 OA
HETATM   24  H   UNL     1     -41.745  54.809 -48.949  1.00  0.00     0.169 HD
BRANCH  22  25
HETATM   25  C   UNL     1     -40.842  53.297 -51.772  1.00  0.00     0.032 A 
HETATM   26  C   UNL     1     -41.732  53.708 -52.768  1.00  0.00     0.017 A 
HETATM   27  C   UNL     1     -41.599  53.196 -54.060  1.00  0.00     0.001 A 
HETATM   28  C   UNL     1     -40.598  52.271 -54.356  1.00  0.00     0.000 A 
HETATM   29  C   UNL     1     -39.727  51.842 -53.356  1.00  0.00     0.001 A 
HETATM   30  C   UNL     1     -39.855  52.346 -52.063  1.00  0.00     0.017 A 
ENDBRANCH  22  25
ENDBRANCH   5  21
TORSDOF 5
ENDMDL
MODEL 2
REMARK VINA RESULT:      -7.9      5.558      7.827
REMARK  5 active torsions:
REMARK  status: ('A' for Active; 'I' for Inactive)
REMARK    1  A    between atoms: C_3  and  N_4 
REMARK       I    between atoms: N_4  and  C_5 
REMARK       I    between atoms: C_5  and  N_6 
REMARK    2  A    between atoms: N_6  and  C_7 
REMARK    3  A    between atoms: C_7  and  C_8 
REMARK    4  A    between atoms: C_16  and  N_17 
REMARK       I    between atoms: N_17  and  C_18 
REMARK    5  A    between atoms: C_18  and  C_19 
ROOT
HETATM    1  C   UNL     1     -42.107  58.939 -57.170  1.00  0.00     0.050 C 
HETATM    2  C   UNL     1     -42.577  57.904 -56.182  1.00  0.00    -0.035 A 
HETATM    3  C   UNL     1     -42.798  56.563 -56.545  1.00  0.00     0.044 A 
HETATM    4  C   UNL     1     -43.226  55.627 -55.578  1.00  0.00     0.059 A 
HETATM    5  C   UNL     1     -43.476  56.024 -54.265  1.00  0.00     0.037 A 
HETATM    6  C   UNL     1     -43.302  57.376 -53.932  1.00  0.00     0.030 A 
HETATM    7  C   UNL     1     -42.852  58.302 -54.873  1.00  0.00     0.011 A 
ENDROOT
BRANCH   3   8
HETATM    8  N   UNL     1     -42.511  56.172 -57.866  1.00  0.00    -0.308 N 
HETATM    9  C   UNL     1     -43.340  55.853 -58.898  1.00  0.00     0.321 C 
HETATM   10  N   UNL     1     -44.654  56.166 -58.759  1.00  0.00    -0.336 N 
HETATM   11  O   UNL     1     -42.869  55.413 -59.945  1.00  0.00    -0.247 OA
HETATM   12  H   UNL     1     -44.908  56.820 -58.029  1.00  0.00     0.164 HD
HETATM   13  H   UNL     1     -41.553  56.249 -58.180  1.00  0.00     0.170 HD
BRANCH  10  14
HETATM   14  C   UNL     1     -45.519  56.171 -59.912  1.00  0.00     0.202 C 
BRANCH  14  15
HETATM   15  C   UNL     1     -46.309  57.436 -59.919  1.00  0.00     0.121 A 
HETATM   16  N   UNL     1     -46.740  58.119 -58.873  1.00  0.00    -0.244 NA
HETATM   17  C   UNL     1     -47.415  59.195 -59.385  1.00  0.00     0.135 A 
HETATM   18  C   UNL     1     -47.385  59.180 -60.758  1.00  0.00     0.109 A 
HETATM   19  N   UNL     1     -46.673  58.061 -61.088  1.00  0.00    -0.352 N 
HETATM   20  H   UNL     1     -46.447  57.747 -62.022  1.00  0.00     0.166 HD
ENDBRANCH  14  15
ENDBRANCH  10  14
ENDBRANCH   3   8
BRANCH   5  21
HETATM   21  N   UNL     1     -43.823  55.190 -53.187  1.00  0.00    -0.323 N 
HETATM   22  C   UNL     1     -43.181  54.250 -52.425  1.00  0.00     0.256 C 
HETATM   23  O   UNL     1     -43.708  53.907 -51.362  1.00  0.00    -0.267 OA
HETATM   24  H   UNL     1     -44.723  55.387 -52.762  1.00  0.00     0.169 HD
BRANCH  22  25
HETATM   25  C   UNL     1     -41.922  53.589 -52.797  1.00  0.00     0.032 A 
HETATM   26  C   UNL     1     -41.734  53.049 -54.071  1.00  0.00     0.017 A 
HETATM   27  C   UNL     1     -40.585  52.301 -54.337  1.00  0.00     0.001 A 
HETATM   28  C   UNL     1     -39.638  52.080 -53.338  1.00  0.00     0.000 A 
HETATM   29  C   UNL     1     -39.838  52.597 -52.059  1.00  0.00     0.001 A 
HETATM   30  C   UNL     1     -40.984  53.343 -51.785  1.00  0.00     0.017 A 
ENDBRANCH  22  25
ENDBRANCH   5  21
TORSDOF 5
ENDMDL
MODEL 3
REMARK VINA RESULT:      -7.9      3.366      6.007
REMARK  5 active torsions:
REMARK  status: ('A' for Active; 'I' for Inactive)
REMARK    1  A    between atoms: C_3  and  N_4 
REMARK       I    between atoms: N_4  and  C_5 
REMARK       I    between atoms: C_5  and  N_6 
REMARK    2  A    between atoms: N_6  and  C_7 
REMARK    3  A    between atoms: C_7  and  C_8 
REMARK    4  A    between atoms: C_16  and  N_17 
REMARK       I    between atoms: N_17  and  C_18 
REMARK    5  A    between atoms: C_18  and  C_19 
ROOT
HETATM    1  C   UNL     1     -44.846  58.781 -52.150  1.00  0.00     0.050 C 
HETATM    2  C   UNL     1     -43.974  57.671 -51.626  1.00  0.00    -0.035 A 
HETATM    3  C   UNL     1     -42.577  57.672 -51.788  1.00  0.00     0.044 A 
HETATM    4  C   UNL     1     -41.800  56.614 -51.267  1.00  0.00     0.059 A 
HETATM    5  C   UNL     1     -42.407  55.535 -50.624  1.00  0.00     0.037 A 
HETATM    6  C   UNL     1     -43.807  55.524 -50.517  1.00  0.00     0.030 A 
HETATM    7  C   UNL     1     -44.580  56.578 -51.003  1.00  0.00     0.011 A 
ENDROOT
BRANCH   3   8
HETATM    8  N   UNL     1     -41.977  58.781 -52.412  1.00  0.00    -0.308 N 
HETATM    9  C   UNL     1     -41.670  59.006 -53.719  1.00  0.00     0.321 C 
HETATM   10  N   UNL     1     -42.211  58.167 -54.638  1.00  0.00    -0.336 N 
HETATM   11  O   UNL     1     -41.026  60.008 -54.030  1.00  0.00    -0.247 OA
HETATM   12  H   UNL     1     -42.986  57.586 -54.347  1.00  0.00     0.164 HD
HETATM   13  H   UNL     1     -41.853  59.619 -51.860  1.00  0.00     0.170 HD
BRANCH  10  14
HETATM   14  C   UNL     1     -42.210  58.530 -56.034  1.00  0.00     0.202 C 
BRANCH  14  15
HETATM   15  C   UNL     1     -42.541  57.325 -56.847  1.00  0.00     0.121 A 
HETATM   16  N   UNL     1     -42.990  56.161 -56.412  1.00  0.00    -0.244 NA
HETATM   17  C   UNL     1     -43.139  55.380 -57.528  1.00  0.00     0.135 A 
HETATM   18  C   UNL     1     -42.791  56.076 -58.659  1.00  0.00     0.109 A 
HETATM   19  N   UNL     1     -42.420  57.315 -58.216  1.00  0.00    -0.352 N 
HETATM   20  H   UNL     1     -42.115  58.090 -58.789  1.00  0.00     0.166 HD
ENDBRANCH  14  15
ENDBRANCH  10  14
ENDBRANCH   3   8
BRANCH   5  21
HETATM   21  N   UNL     1     -41.758  54.463 -49.986  1.00  0.00    -0.323 N 
HETATM   22  C   UNL     1     -40.898  53.468 -50.367  1.00  0.00     0.256 C 
HETATM   23  O   UNL     1     -40.293  52.855 -49.482  1.00  0.00    -0.267 OA
HETATM   24  H   UNL     1     -41.821  54.462 -48.974  1.00  0.00     0.169 HD
BRANCH  22  25
HETATM   25  C   UNL     1     -40.667  53.049 -51.757  1.00  0.00     0.032 A 
HETATM   26  C   UNL     1     -41.516  53.456 -52.789  1.00  0.00     0.017 A 
HETATM   27  C   UNL     1     -41.350  52.917 -54.067  1.00  0.00     0.001 A 
HETATM   28  C   UNL     1     -40.356  51.969 -54.312  1.00  0.00     0.000 A 
HETATM   29  C   UNL     1     -39.526  51.544 -53.276  1.00  0.00     0.001 A 
HETATM   30  C   UNL     1     -39.687  52.076 -51.997  1.00  0.00     0.017 A 
ENDBRANCH  22  25
ENDBRANCH   5  21
TORSDOF 5
ENDMDL
MODEL 4
REMARK VINA RESULT:      -7.8      5.389      8.558
REMARK  5 active torsions:
REMARK  status: ('A' for Active; 'I' for Inactive)
REMARK    1  A    between atoms: C_3  and  N_4 
REMARK       I    between atoms: N_4  and  C_5 
REMARK       I    between atoms: C_5  and  N_6 
REMARK    2  A    between atoms: N_6  and  C_7 
REMARK    3  A    between atoms: C_7  and  C_8 
REMARK    4  A    between atoms: C_16  and  N_17 
REMARK       I    between atoms: N_17  and  C_18 
REMARK    5  A    between atoms: C_18  and  C_19 
ROOT
HETATM    1  C   UNL     1     -44.351  58.197 -53.073  1.00  0.00     0.050 C 
HETATM    2  C   UNL     1     -43.820  57.618 -54.357  1.00  0.00    -0.035 A 
HETATM    3  C   UNL     1     -43.585  56.241 -54.522  1.00  0.00     0.044 A 
HETATM    4  C   UNL     1     -43.099  55.744 -55.750  1.00  0.00     0.059 A 
HETATM    5  C   UNL     1     -42.804  56.612 -56.802  1.00  0.00     0.037 A 
HETATM    6  C   UNL     1     -42.994  57.988 -56.604  1.00  0.00     0.030 A 
HETATM    7  C   UNL     1     -43.501  58.486 -55.404  1.00  0.00     0.011 A 
ENDROOT
BRANCH   3   8
HETATM    8  N   UNL     1     -43.917  55.376 -53.462  1.00  0.00    -0.308 N 
HETATM    9  C   UNL     1     -43.124  54.636 -52.638  1.00  0.00     0.321 C 
HETATM   10  N   UNL     1     -41.795  54.914 -52.640  1.00  0.00    -0.336 N 
HETATM   11  O   UNL     1     -43.637  53.843 -51.851  1.00  0.00    -0.247 OA
HETATM   12  H   UNL     1     -41.498  55.789 -53.052  1.00  0.00     0.164 HD
HETATM   13  H   UNL     1     -44.877  55.369 -53.145  1.00  0.00     0.170 HD
BRANCH  10  14
HETATM   14  C   UNL     1     -40.956  54.421 -51.576  1.00  0.00     0.202 C 
BRANCH  14  15
HETATM   15  C   UNL     1     -40.356  53.122 -51.996  1.00  0.00     0.121 A 
HETATM   16  N   UNL     1     -39.928  52.146 -51.215  1.00  0.00    -0.244 NA
HETATM   17  C   UNL     1     -39.464  51.172 -52.058  1.00  0.00     0.135 A 
HETATM   18  C   UNL     1     -39.623  51.548 -53.369  1.00  0.00     0.109 A 
HETATM   19  N   UNL     1     -40.198  52.787 -53.319  1.00  0.00    -0.352 N 
HETATM   20  H   UNL     1     -40.466  53.357 -54.110  1.00  0.00     0.166 HD
ENDBRANCH  14  15
ENDBRANCH  10  14
ENDBRANCH   3   8
BRANCH   5  21
HETATM   21  N   UNL     1     -42.397  56.252 -58.099  1.00  0.00    -0.323 N 
HETATM   22  C   UNL     1     -42.915  56.372 -59.361  1.00  0.00     0.256 C 
HETATM   23  O   UNL     1     -42.155  56.197 -60.318  1.00  0.00    -0.267 OA
HETATM   24  H   UNL     1     -41.438  55.930 -58.175  1.00  0.00     0.169 HD
BRANCH  22  25
HETATM   25  C   UNL     1     -44.324  56.660 -59.663  1.00  0.00     0.032 A 
HETATM   26  C   UNL     1     -45.230  55.636 -59.947  1.00  0.00     0.017 A 
HETATM   27  C   UNL     1     -46.520  55.960 -60.373  1.00  0.00     0.001 A 
HETATM   28  C   UNL     1     -46.901  57.293 -60.529  1.00  0.00     0.000 A 
HETATM   29  C   UNL     1     -45.988  58.314 -60.269  1.00  0.00     0.001 A 
HETATM   30  C   UNL     1     -44.697  57.998 -59.846  1.00  0.00     0.017 A 
ENDBRANCH  22  25
ENDBRANCH   5  21
TORSDOF 5
ENDMDL
MODEL 5
REMARK VINA RESULT:      -7.8      3.435      5.815
REMARK  5 active torsions:
REMARK  status: ('A' for Active; 'I' for Inactive)
REMARK    1  A    between atoms: C_3  and  N_4 
REMARK       I    between atoms: N_4  and  C_5 
REMARK       I    between atoms: C_5  and  N_6 
REMARK    2  A    between atoms: N_6  and  C_7 
REMARK    3  A    between atoms: C_7  and  C_8 
REMARK    4  A    between atoms: C_16  and  N_17 
REMARK       I    between atoms: N_17  and  C_18 
REMARK    5  A    between atoms: C_18  and  C_19 
ROOT
HETATM    1  C   UNL     1     -42.806  59.322 -52.238  1.00  0.00     0.050 C 
HETATM    2  C   UNL     1     -42.553  57.954 -51.661  1.00  0.00    -0.035 A 
HETATM    3  C   UNL     1     -43.380  56.852 -51.948  1.00  0.00     0.044 A 
HETATM    4  C   UNL     1     -43.094  55.586 -51.394  1.00  0.00     0.059 A 
HETATM    5  C   UNL     1     -42.017  55.416 -50.525  1.00  0.00     0.037 A 
HETATM    6  C   UNL     1     -41.233  56.536 -50.208  1.00  0.00     0.030 A 
HETATM    7  C   UNL     1     -41.491  57.786 -50.772  1.00  0.00     0.011 A 
ENDROOT
BRANCH   3   8
HETATM    8  N   UNL     1     -44.445  57.033 -52.850  1.00  0.00    -0.308 N 
HETATM    9  C   UNL     1     -44.463  57.046 -54.212  1.00  0.00     0.321 C 
HETATM   10  N   UNL     1     -43.357  56.589 -54.852  1.00  0.00    -0.336 N 
HETATM   11  O   UNL     1     -45.497  57.350 -54.804  1.00  0.00    -0.247 OA
HETATM   12  H   UNL     1     -42.690  56.050 -54.315  1.00  0.00     0.164 HD
HETATM   13  H   UNL     1     -45.384  57.032 -52.474  1.00  0.00     0.170 HD
BRANCH  10  14
HETATM   14  C   UNL     1     -43.421  56.260 -56.255  1.00  0.00     0.202 C 
BRANCH  14  15
HETATM   15  C   UNL     1     -42.788  57.359 -57.039  1.00  0.00     0.121 A 
HETATM   16  N   UNL     1     -42.622  58.617 -56.670  1.00  0.00    -0.244 NA
HETATM   17  C   UNL     1     -42.000  59.234 -57.723  1.00  0.00     0.135 A 
HETATM   18  C   UNL     1     -41.769  58.343 -58.741  1.00  0.00     0.109 A 
HETATM   19  N   UNL     1     -42.267  57.151 -58.294  1.00  0.00    -0.352 N 
HETATM   20  H   UNL     1     -42.253  56.271 -58.790  1.00  0.00     0.166 HD
ENDBRANCH  14  15
ENDBRANCH  10  14
ENDBRANCH   3   8
BRANCH   5  21
HETATM   21  N   UNL     1     -41.567  54.205 -49.970  1.00  0.00    -0.323 N 
HETATM   22  C   UNL     1     -40.762  53.175 -50.378  1.00  0.00     0.256 C 
HETATM   23  O   UNL     1     -40.346  52.390 -49.521  1.00  0.00    -0.267 OA
HETATM   24  H   UNL     1     -41.768  54.082 -48.983  1.00  0.00     0.169 HD
BRANCH  22  25
HETATM   25  C   UNL     1     -40.383  52.913 -51.774  1.00  0.00     0.032 A 
HETATM   26  C   UNL     1     -40.768  53.774 -52.805  1.00  0.00     0.017 A 
HETATM   27  C   UNL     1     -40.516  53.412 -54.130  1.00  0.00     0.001 A 
HETATM   28  C   UNL     1     -39.900  52.197 -54.428  1.00  0.00     0.000 A 
HETATM   29  C   UNL     1     -39.540  51.327 -53.400  1.00  0.00     0.001 A 
HETATM   30  C   UNL     1     -39.790  51.680 -52.075  1.00  0.00     0.017 A 
ENDBRANCH  22  25
ENDBRANCH   5  21
TORSDOF 5
ENDMDL
MODEL 6
REMARK VINA RESULT:      -7.8      2.390      3.444
REMARK  5 active torsions:
REMARK  status: ('A' for Active; 'I' for Inactive)
REMARK    1  A    between atoms: C_3  and  N_4 
REMARK       I    between atoms: N_4  and  C_5 
REMARK       I    between atoms: C_5  and  N_6 
REMARK    2  A    between atoms: N_6  and  C_7 
REMARK    3  A    between atoms: C_7  and  C_8 
REMARK    4  A    between atoms: C_16  and  N_17 
REMARK       I    between atoms: N_17  and  C_18 
REMARK    5  A    between atoms: C_18  and  C_19 
ROOT
HETATM    1  C   UNL     1     -43.727  56.782 -55.072  1.00  0.00     0.050 C 
HETATM    2  C   UNL     1     -43.039  56.003 -53.982  1.00  0.00    -0.035 A 
HETATM    3  C   UNL     1     -41.842  56.441 -53.386  1.00  0.00     0.044 A 
HETATM    4  C   UNL     1     -41.241  55.682 -52.357  1.00  0.00     0.059 A 
HETATM    5  C   UNL     1     -41.800  54.472 -51.947  1.00  0.00     0.037 A 
HETATM    6  C   UNL     1     -42.966  54.025 -52.587  1.00  0.00     0.030 A 
HETATM    7  C   UNL     1     -43.582  54.781 -53.584  1.00  0.00     0.011 A 
ENDROOT
BRANCH   3   8
HETATM    8  N   UNL     1     -41.307  57.678 -53.790  1.00  0.00    -0.308 N 
HETATM    9  C   UNL     1     -41.501  58.933 -53.298  1.00  0.00     0.321 C 
HETATM   10  N   UNL     1     -42.108  59.039 -52.088  1.00  0.00    -0.336 N 
HETATM   11  O   UNL     1     -41.025  59.900 -53.891  1.00  0.00    -0.247 OA
HETATM   12  H   UNL     1     -42.165  58.207 -51.515  1.00  0.00     0.164 HD
HETATM   13  H   UNL     1     -40.560  57.666 -54.471  1.00  0.00     0.170 HD
BRANCH  10  14
HETATM   14  C   UNL     1     -42.047  60.281 -51.359  1.00  0.00     0.202 C 
BRANCH  14  15
HETATM   15  C   UNL     1     -43.335  60.479 -50.633  1.00  0.00     0.121 A 
HETATM   16  N   UNL     1     -43.688  61.514 -49.891  1.00  0.00    -0.244 NA
HETATM   17  C   UNL     1     -44.949  61.234 -49.438  1.00  0.00     0.135 A 
HETATM   18  C   UNL     1     -45.380  60.022 -49.919  1.00  0.00     0.109 A 
HETATM   19  N   UNL     1     -44.349  59.553 -50.684  1.00  0.00    -0.352 N 
HETATM   20  H   UNL     1     -44.332  58.685 -51.201  1.00  0.00     0.166 HD
ENDBRANCH  14  15
ENDBRANCH  10  14
ENDBRANCH   3   8
BRANCH   5  21
HETATM   21  N   UNL     1     -41.361  53.661 -50.885  1.00  0.00    -0.323 N 
HETATM   22  C   UNL     1     -40.526  52.584 -50.750  1.00  0.00     0.256 C 
HETATM   23  O   UNL     1     -40.139  52.289 -49.616  1.00  0.00    -0.267 OA
HETATM   24  H   UNL     1     -41.605  53.995 -49.959  1.00  0.00     0.169 HD
BRANCH  22  25
HETATM   25  C   UNL     1     -40.081  51.727 -51.859  1.00  0.00     0.032 A 
HETATM   26  C   UNL     1     -40.107  52.178 -53.181  1.00  0.00     0.017 A 
HETATM   27  C   UNL     1     -39.818  51.286 -54.216  1.00  0.00     0.001 A 
HETATM   28  C   UNL     1     -39.522  49.951 -53.938  1.00  0.00     0.000 A 
HETATM   29  C   UNL     1     -39.522  49.496 -52.620  1.00  0.00     0.001 A 
HETATM   30  C   UNL     1     -39.811  50.380 -51.582  1.00  0.00     0.017 A 
ENDBRANCH  22  25
ENDBRANCH   5  21
TORSDOF 5
ENDMDL
MODEL 7
REMARK VINA RESULT:      -7.7      2.563      4.290
REMARK  5 active torsions:
REMARK  status: ('A' for Active; 'I' for Inactive)
REMARK    1  A    between atoms: C_3  and  N_4 
REMARK       I    between atoms: N_4  and  C_5 
REMARK       I    between atoms: C_5  and  N_6 
REMARK    2  A    between atoms: N_6  and  C_7 
REMARK    3  A    between atoms: C_7  and  C_8 
REMARK    4  A    between atoms: C_16  and  N_17 
REMARK       I    between atoms: N_17  and  C_18 
REMARK    5  A    between atoms: C_18  and  C_19 
ROOT
HETATM    1  C   UNL     1     -43.764  57.088 -56.083  1.00  0.00     0.050 C 
HETATM    2  C   UNL     1     -42.806  56.100 -55.471  1.00  0.00    -0.035 A 
HETATM    3  C   UNL     1     -41.633  56.503 -54.807  1.00  0.00     0.044 A 
HETATM    4  C   UNL     1     -40.773  55.539 -54.237  1.00  0.00     0.059 A 
HETATM    5  C   UNL     1     -41.050  54.177 -54.357  1.00  0.00     0.037 A 
HETATM    6  C   UNL     1     -42.198  53.791 -55.067  1.00  0.00     0.030 A 
HETATM    7  C   UNL     1     -43.068  54.736 -55.610  1.00  0.00     0.011 A 
ENDROOT
BRANCH   3   8
HETATM    8  N   UNL     1     -41.383  57.881 -54.668  1.00  0.00    -0.308 N 
HETATM    9  C   UNL     1     -41.733  58.751 -53.681  1.00  0.00     0.321 C 
HETATM   10  N   UNL     1     -42.190  58.222 -52.518  1.00  0.00    -0.336 N 
HETATM   11  O   UNL     1     -41.516  59.953 -53.825  1.00  0.00    -0.247 OA
HETATM   12  H   UNL     1     -42.025  57.237 -52.352  1.00  0.00     0.164 HD
HETATM   13  H   UNL     1     -40.738  58.308 -55.318  1.00  0.00     0.170 HD
BRANCH  10  14
HETATM   14  C   UNL     1     -42.260  59.039 -51.333  1.00  0.00     0.202 C 
BRANCH  14  15
HETATM   15  C   UNL     1     -43.692  59.268 -50.986  1.00  0.00     0.121 A 
HETATM   16  N   UNL     1     -44.739  58.573 -51.396  1.00  0.00    -0.244 NA
HETATM   17  C   UNL     1     -45.828  59.165 -50.815  1.00  0.00     0.135 A 
HETATM   18  C   UNL     1     -45.445  60.225 -50.030  1.00  0.00     0.109 A 
HETATM   19  N   UNL     1     -44.084  60.277 -50.140  1.00  0.00    -0.352 N 
HETATM   20  H   UNL     1     -43.470  60.936 -49.679  1.00  0.00     0.166 HD
ENDBRANCH  14  15
ENDBRANCH  10  14
ENDBRANCH   3   8
BRANCH   5  21
HETATM   21  N   UNL     1     -40.334  53.119 -53.771  1.00  0.00    -0.323 N 
HETATM   22  C   UNL     1     -40.212  52.590 -52.514  1.00  0.00     0.256 C 
HETATM   23  O   UNL     1     -39.708  51.469 -52.403  1.00  0.00    -0.267 OA
HETATM   24  H   UNL     1     -39.876  52.494 -54.427  1.00  0.00     0.169 HD
BRANCH  22  25
HETATM   25  C   UNL     1     -40.607  53.279 -51.277  1.00  0.00     0.032 A 
HETATM   26  C   UNL     1     -41.900  53.779 -51.104  1.00  0.00     0.017 A 
HETATM   27  C   UNL     1     -42.191  54.554 -49.980  1.00  0.00     0.001 A 
HETATM   28  C   UNL     1     -41.200  54.842 -49.042  1.00  0.00     0.000 A 
HETATM   29  C   UNL     1     -39.904  54.364 -49.228  1.00  0.00     0.001 A 
HETATM   30  C   UNL     1     -39.604  53.591 -50.349  1.00  0.00     0.017 A 
ENDBRANCH  22  25
ENDBRANCH   5  21
TORSDOF 5
ENDMDL
MODEL 8
REMARK VINA RESULT:      -7.6      3.662      6.088
REMARK  5 active torsions:
REMARK  status: ('A' for Active; 'I' for Inactive)
REMARK    1  A    between atoms: C_3  and  N_4 
REMARK       I    between atoms: N_4  and  C_5 
REMARK       I    between atoms: C_5  and  N_6 
REMARK    2  A    between atoms: N_6  and  C_7 
REMARK    3  A    between atoms: C_7  and  C_8 
REMARK    4  A    between atoms: C_16  and  N_17 
REMARK       I    between atoms: N_17  and  C_18 
REMARK    5  A    between atoms: C_18  and  C_19 
ROOT
HETATM    1  C   UNL     1     -40.745  53.869 -51.758  1.00  0.00     0.050 C 
HETATM    2  C   UNL     1     -41.462  54.121 -53.059  1.00  0.00    -0.035 A 
HETATM    3  C   UNL     1     -42.855  54.305 -53.126  1.00  0.00     0.044 A 
HETATM    4  C   UNL     1     -43.480  54.552 -54.368  1.00  0.00     0.059 A 
HETATM    5  C   UNL     1     -42.736  54.576 -55.547  1.00  0.00     0.037 A 
HETATM    6  C   UNL     1     -41.355  54.339 -55.468  1.00  0.00     0.030 A 
HETATM    7  C   UNL     1     -40.724  54.122 -54.243  1.00  0.00     0.011 A 
ENDROOT
BRANCH   3   8
HETATM    8  N   UNL     1     -43.588  54.308 -51.924  1.00  0.00    -0.308 N 
HETATM    9  C   UNL     1     -44.056  55.342 -51.172  1.00  0.00     0.321 C 
HETATM   10  N   UNL     1     -44.047  56.576 -51.738  1.00  0.00    -0.336 N 
HETATM   11  O   UNL     1     -44.570  55.116 -50.078  1.00  0.00    -0.247 OA
HETATM   12  H   UNL     1     -43.929  56.634 -52.741  1.00  0.00     0.164 HD
HETATM   13  H   UNL     1     -43.955  53.425 -51.597  1.00  0.00     0.170 HD
BRANCH  10  14
HETATM   14  C   UNL     1     -44.820  57.643 -51.151  1.00  0.00     0.202 C 
BRANCH  14  15
HETATM   15  C   UNL     1     -44.014  58.898 -51.183  1.00  0.00     0.121 A 
HETATM   16  N   UNL     1     -44.390  60.082 -51.634  1.00  0.00    -0.244 NA
HETATM   17  C   UNL     1     -43.311  60.906 -51.456  1.00  0.00     0.135 A 
HETATM   18  C   UNL     1     -42.268  60.225 -50.878  1.00  0.00     0.109 A 
HETATM   19  N   UNL     1     -42.728  58.950 -50.701  1.00  0.00    -0.352 N 
HETATM   20  H   UNL     1     -42.220  58.181 -50.286  1.00  0.00     0.166 HD
ENDBRANCH  14  15
ENDBRANCH  10  14
ENDBRANCH   3   8
BRANCH   5  21
HETATM   21  N   UNL     1     -43.208  54.892 -56.833  1.00  0.00    -0.323 N 
HETATM   22  C   UNL     1     -43.095  55.955 -57.689  1.00  0.00     0.256 C 
HETATM   23  O   UNL     1     -43.408  55.783 -58.871  1.00  0.00    -0.267 OA
HETATM   24  H   UNL     1     -43.644  54.124 -57.332  1.00  0.00     0.169 HD
BRANCH  22  25
HETATM   25  C   UNL     1     -42.660  57.303 -57.296  1.00  0.00     0.032 A 
HETATM   26  C   UNL     1     -42.973  57.830 -56.041  1.00  0.00     0.017 A 
HETATM   27  C   UNL     1     -42.671  59.165 -55.762  1.00  0.00     0.001 A 
HETATM   28  C   UNL     1     -42.074  59.972 -56.731  1.00  0.00     0.000 A 
HETATM   29  C   UNL     1     -41.786  59.453 -57.991  1.00  0.00     0.001 A 
HETATM   30  C   UNL     1     -42.087  58.122 -58.278  1.00  0.00     0.017 A 
ENDBRANCH  22  25
ENDBRANCH   5  21
TORSDOF 5
ENDMDL
MODEL 9
REMARK VINA RESULT:      -7.5      1.834      2.216
REMARK  5 active torsions:
REMARK  status: ('A' for Active; 'I' for Inactive)
REMARK    1  A    between atoms: C_3  and  N_4 
REMARK       I    between atoms: N_4  and  C_5 
REMARK       I    between atoms: C_5  and  N_6 
REMARK    2  A    between atoms: N_6  and  C_7 
REMARK    3  A    between atoms: C_7  and  C_8 
REMARK    4  A    between atoms: C_16  and  N_17 
REMARK       I    between atoms: N_17  and  C_18 
REMARK    5  A    between atoms: C_18  and  C_19 
ROOT
HETATM    1  C   UNL     1     -39.692  59.820 -50.482  1.00  0.00     0.050 C 
HETATM    2  C   UNL     1     -40.747  58.758 -50.647  1.00  0.00    -0.035 A 
HETATM    3  C   UNL     1     -42.001  59.027 -51.226  1.00  0.00     0.044 A 
HETATM    4  C   UNL     1     -42.952  57.994 -51.371  1.00  0.00     0.059 A 
HETATM    5  C   UNL     1     -42.683  56.707 -50.906  1.00  0.00     0.037 A 
HETATM    6  C   UNL     1     -41.448  56.468 -50.283  1.00  0.00     0.030 A 
HETATM    7  C   UNL     1     -40.490  57.475 -50.161  1.00  0.00     0.011 A 
ENDROOT
BRANCH   3   8
HETATM    8  N   UNL     1     -42.245  60.323 -51.718  1.00  0.00    -0.308 N 
HETATM    9  C   UNL     1     -43.102  61.289 -51.287  1.00  0.00     0.321 C 
HETATM   10  N   UNL     1     -43.664  61.121 -50.063  1.00  0.00    -0.336 N 
HETATM   11  O   UNL     1     -43.246  62.315 -51.950  1.00  0.00    -0.247 OA
HETATM   12  H   UNL     1     -43.248  60.437 -49.444  1.00  0.00     0.164 HD
HETATM   13  H   UNL     1     -41.618  60.682 -52.425  1.00  0.00     0.170 HD
BRANCH  10  14
HETATM   14  C   UNL     1     -44.303  62.233 -49.405  1.00  0.00     0.202 C 
BRANCH  14  15
HETATM   15  C   UNL     1     -44.892  61.761 -48.119  1.00  0.00     0.121 A 
HETATM   16  N   UNL     1     -45.009  62.440 -46.991  1.00  0.00    -0.244 NA
HETATM   17  C   UNL     1     -45.606  61.585 -46.103  1.00  0.00     0.135 A 
HETATM   18  C   UNL     1     -45.871  60.375 -46.696  1.00  0.00     0.109 A 
HETATM   19  N   UNL     1     -45.420  60.500 -47.980  1.00  0.00    -0.352 N 
HETATM   20  H   UNL     1     -45.469  59.796 -48.704  1.00  0.00     0.166 HD
ENDBRANCH  14  15
ENDBRANCH  10  14
ENDBRANCH   3   8
BRANCH   5  21
HETATM   21  N   UNL     1     -43.497  55.571 -51.058  1.00  0.00    -0.323 N 
HETATM   22  C   UNL     1     -43.338  54.307 -51.561  1.00  0.00     0.256 C 
HETATM   23  O   UNL     1     -44.190  53.459 -51.278  1.00  0.00    -0.267 OA
HETATM   24  H   UNL     1     -44.393  55.617 -50.585  1.00  0.00     0.169 HD
BRANCH  22  25
HETATM   25  C   UNL     1     -42.241  53.892 -52.447  1.00  0.00     0.032 A 
HETATM   26  C   UNL     1     -42.339  54.019 -53.834  1.00  0.00     0.017 A 
HETATM   27  C   UNL     1     -41.340  53.478 -54.646  1.00  0.00     0.001 A 
HETATM   28  C   UNL     1     -40.259  52.801 -54.081  1.00  0.00     0.000 A 
HETATM   29  C   UNL     1     -40.175  52.651 -52.698  1.00  0.00     0.001 A 
HETATM   30  C   UNL     1     -41.169  53.188 -51.881  1.00  0.00     0.017 A 
ENDBRANCH  22  25
ENDBRANCH   5  21
TORSDOF 5
ENDMDL
MODEL 10
REMARK VINA RESULT:      -7.4      5.299      8.071
REMARK  5 active torsions:
REMARK  status: ('A' for Active; 'I' for Inactive)
REMARK    1  A    between atoms: C_3  and  N_4 
REMARK       I    between atoms: N_4  and  C_5 
REMARK       I    between atoms: C_5  and  N_6 
REMARK    2  A    between atoms: N_6  and  C_7 
REMARK    3  A    between atoms: C_7  and  C_8 
REMARK    4  A    between atoms: C_16  and  N_17 
REMARK       I    between atoms: N_17  and  C_18 
REMARK    5  A    between atoms: C_18  and  C_19 
ROOT
HETATM    1  C   UNL     1     -45.584  58.529 -56.823  1.00  0.00     0.050 C 
HETATM    2  C   UNL     1     -44.650  58.109 -55.718  1.00  0.00    -0.035 A 
HETATM    3  C   UNL     1     -43.264  58.346 -55.774  1.00  0.00     0.044 A 
HETATM    4  C   UNL     1     -42.431  57.946 -54.707  1.00  0.00     0.059 A 
HETATM    5  C   UNL     1     -42.960  57.275 -53.604  1.00  0.00     0.037 A 
HETATM    6  C   UNL     1     -44.336  57.001 -53.588  1.00  0.00     0.030 A 
HETATM    7  C   UNL     1     -45.171  57.417 -54.624  1.00  0.00     0.011 A 
ENDROOT
BRANCH   3   8
HETATM    8  N   UNL     1     -42.751  59.050 -56.879  1.00  0.00    -0.308 N 
HETATM    9  C   UNL     1     -42.291  58.605 -58.081  1.00  0.00     0.321 C 
HETATM   10  N   UNL     1     -42.560  57.316 -58.410  1.00  0.00    -0.336 N 
HETATM   11  O   UNL     1     -41.765  59.395 -58.863  1.00  0.00    -0.247 OA
HETATM   12  H   UNL     1     -43.275  56.833 -57.880  1.00  0.00     0.164 HD
HETATM   13  H   UNL     1     -42.835  60.058 -56.873  1.00  0.00     0.170 HD
BRANCH  10  14
HETATM   14  C   UNL     1     -42.408  56.874 -59.775  1.00  0.00     0.202 C 
BRANCH  14  15
HETATM   15  C   UNL     1     -43.727  56.392 -60.277  1.00  0.00     0.121 A 
HETATM   16  N   UNL     1     -44.016  55.195 -60.757  1.00  0.00    -0.244 NA
HETATM   17  C   UNL     1     -45.344  55.238 -61.087  1.00  0.00     0.135 A 
HETATM   18  C   UNL     1     -45.879  56.468 -60.794  1.00  0.00     0.109 A 
HETATM   19  N   UNL     1     -44.844  57.193 -60.272  1.00  0.00    -0.352 N 
HETATM   20  H   UNL     1     -44.888  58.146 -59.936  1.00  0.00     0.166 HD
ENDBRANCH  14  15
ENDBRANCH  10  14
ENDBRANCH   3   8
BRANCH   5  21
HETATM   21  N   UNL     1     -42.268  56.896 -52.440  1.00  0.00    -0.323 N 
HETATM   22  C   UNL     1     -41.329  55.952 -52.117  1.00  0.00     0.256 C 
HETATM   23  O   UNL     1     -40.722  56.081 -51.050  1.00  0.00    -0.267 OA
HETATM   24  H   UNL     1     -42.371  57.528 -51.653  1.00  0.00     0.169 HD
BRANCH  22  25
HETATM   25  C   UNL     1     -41.016  54.772 -52.934  1.00  0.00     0.032 A 
HETATM   26  C   UNL     1     -40.966  53.493 -52.374  1.00  0.00     0.017 A 
HETATM   27  C   UNL     1     -40.520  52.421 -53.149  1.00  0.00     0.001 A 
HETATM   28  C   UNL     1     -40.112  52.623 -54.468  1.00  0.00     0.000 A 
HETATM   29  C   UNL     1     -40.137  53.903 -55.018  1.00  0.00     0.001 A 
HETATM   30  C   UNL     1     -40.579  54.979 -54.249  1.00  0.00     0.017 A 
ENDBRANCH  22  25
ENDBRANCH   5  21
TORSDOF 5
ENDMDL
