MODEL 1
REMARK VINA RESULT:      -9.1      0.000      0.000
REMARK  7 active torsions:
REMARK  status: ('A' for Active; 'I' for Inactive)
REMARK    1  A    between atoms: O_2  and  C_3 
REMARK    2  A    between atoms: C_5  and  C_15 
REMARK    3  A    between atoms: C_8  and  C_9 
REMARK       I    between atoms: C_15  and  N_17 
REMARK    4  A    between atoms: N_17  and  C_18 
REMARK    5  A    between atoms: C_18  and  C_19 
REMARK    6  A    between atoms: C_23  and  C_25 
REMARK       I    between atoms: C_25  and  N_27 
REMARK    7  A    between atoms: N_27  and  C_28 
ROOT
HETATM    1  C   UNL     1     -42.287  59.264 -51.715  1.00  0.00    -0.040 A 
HETATM    2  C   UNL     1     -42.791  60.549 -51.464  1.00  0.00     0.009 A 
HETATM    3  C   UNL     1     -43.793  61.085 -52.272  1.00  0.00     0.002 A 
HETATM    4  C   UNL     1     -44.296  60.345 -53.341  1.00  0.00     0.017 A 
HETATM    5  C   UNL     1     -43.795  59.067 -53.622  1.00  0.00     0.033 A 
HETATM    6  C   UNL     1     -42.792  58.530 -52.802  1.00  0.00     0.026 A 
ENDROOT
BRANCH   1   7
HETATM    7  C   UNL     1     -41.207  58.681 -50.839  1.00  0.00     0.161 C 
BRANCH   7   8
HETATM    8  N   UNL     1     -40.876  57.333 -51.237  1.00  0.00    -0.353 N 
HETATM    9  C   UNL     1     -40.981  56.275 -50.361  1.00  0.00     0.252 C 
HETATM   10  O   UNL     1     -41.348  56.394 -49.196  1.00  0.00    -0.268 OA
HETATM   11  H   UNL     1     -40.813  57.148 -52.228  1.00  0.00     0.163 HD
BRANCH   9  12
HETATM   12  C   UNL     1     -40.652  54.928 -50.915  1.00  0.00     0.034 A 
HETATM   13  C   UNL     1     -40.928  54.675 -52.266  1.00  0.00     0.054 A 
HETATM   14  C   UNL     1     -40.644  53.425 -52.835  1.00  0.00     0.080 A 
HETATM   15  C   UNL     1     -40.083  52.406 -52.033  1.00  0.00     0.010 A 
HETATM   16  C   UNL     1     -39.831  52.667 -50.675  1.00  0.00     0.016 A 
HETATM   17  C   UNL     1     -40.116  53.915 -50.116  1.00  0.00     0.018 A 
BRANCH  14  18
HETATM   18  O   UNL     1     -40.871  53.121 -54.154  1.00  0.00    -0.355 OA
HETATM   19  C   UNL     1     -40.242  53.922 -55.145  1.00  0.00     0.210 C 
ENDBRANCH  14  18
BRANCH  15  20
HETATM   20  C   UNL     1     -39.780  51.082 -52.563  1.00  0.00     0.013 A 
HETATM   21  C   UNL     1     -39.652  50.619 -53.894  1.00  0.00     0.152 A 
HETATM   22  N   UNL     1     -39.373  49.314 -53.964  1.00  0.00    -0.187 NA
HETATM   23  N   UNL     1     -39.302  48.940 -52.678  1.00  0.00    -0.289 N 
HETATM   24  H   UNL     1     -39.082  47.972 -52.471  1.00  0.00     0.188 HD
HETATM   25  C   UNL     1     -39.546  49.957 -51.800  1.00  0.00     0.123 A 
ENDBRANCH  15  20
ENDBRANCH   9  12
ENDBRANCH   7   8
ENDBRANCH   1   7
BRANCH   5  26
HETATM   26  C   UNL     1     -44.397  58.312 -54.764  1.00  0.00     0.257 C 
HETATM   27  O   UNL     1     -45.228  57.450 -54.500  1.00  0.00    -0.267 OA
HETATM   28  N   UNL     1     -43.965  58.685 -56.017  1.00  0.00    -0.301 N 
HETATM   29  H   UNL     1     -43.353  59.472 -56.156  1.00  0.00     0.171 HD
BRANCH  28  30
HETATM   30  C   UNL     1     -44.381  58.039 -57.150  1.00  0.00     0.174 A 
HETATM   31  N   UNL     1     -45.515  58.134 -57.798  1.00  0.00    -0.228 NA
HETATM   32  C   UNL     1     -45.488  57.275 -58.872  1.00  0.00     0.054 A 
HETATM   33  C   UNL     1     -46.618  57.161 -59.834  1.00  0.00     0.090 C 
HETATM   34  C   UNL     1     -44.329  56.543 -59.020  1.00  0.00     0.039 A 
HETATM   35  C   UNL     1     -46.427  55.911 -60.726  1.00  0.00     0.276 C 
HETATM   36  N   UNL     1     -45.039  55.740 -61.216  1.00  0.00     0.088 N 
HETATM   37  C   UNL     1     -44.099  55.535 -60.092  1.00  0.00     0.317 C 
HETATM   38  H   UNL     1     -44.763  56.596 -61.700  1.00  0.00     0.316 HD
HETATM   39  S   UNL     1     -43.231  56.931 -57.779  1.00  0.00    -0.053 SA
ENDBRANCH  28  30
ENDBRANCH   5  26
TORSDOF 7
ENDMDL
MODEL 2
REMARK VINA RESULT:      -8.6      3.349      9.076
REMARK  7 active torsions:
REMARK  status: ('A' for Active; 'I' for Inactive)
REMARK    1  A    between atoms: O_2  and  C_3 
REMARK    2  A    between atoms: C_5  and  C_15 
REMARK    3  A    between atoms: C_8  and  C_9 
REMARK       I    between atoms: C_15  and  N_17 
REMARK    4  A    between atoms: N_17  and  C_18 
REMARK    5  A    between atoms: C_18  and  C_19 
REMARK    6  A    between atoms: C_23  and  C_25 
REMARK       I    between atoms: C_25  and  N_27 
REMARK    7  A    between atoms: N_27  and  C_28 
ROOT
HETATM    1  C   UNL     1     -42.470  58.389 -56.724  1.00  0.00    -0.040 A 
HETATM    2  C   UNL     1     -43.044  58.245 -57.996  1.00  0.00     0.009 A 
HETATM    3  C   UNL     1     -43.347  56.979 -58.495  1.00  0.00     0.002 A 
HETATM    4  C   UNL     1     -43.074  55.846 -57.731  1.00  0.00     0.017 A 
HETATM    5  C   UNL     1     -42.486  55.964 -56.464  1.00  0.00     0.033 A 
HETATM    6  C   UNL     1     -42.190  57.240 -55.964  1.00  0.00     0.026 A 
ENDROOT
BRANCH   1   7
HETATM    7  C   UNL     1     -42.148  59.758 -56.181  1.00  0.00     0.161 C 
BRANCH   7   8
HETATM    8  N   UNL     1     -42.833  60.005 -54.934  1.00  0.00    -0.353 N 
HETATM    9  C   UNL     1     -42.166  59.997 -53.728  1.00  0.00     0.252 C 
HETATM   10  O   UNL     1     -40.965  59.773 -53.621  1.00  0.00    -0.268 OA
HETATM   11  H   UNL     1     -43.747  60.431 -54.988  1.00  0.00     0.163 HD
BRANCH   9  12
HETATM   12  C   UNL     1     -42.985  60.313 -52.522  1.00  0.00     0.034 A 
HETATM   13  C   UNL     1     -44.383  60.255 -52.628  1.00  0.00     0.054 A 
HETATM   14  C   UNL     1     -45.199  60.549 -51.526  1.00  0.00     0.080 A 
HETATM   15  C   UNL     1     -44.606  60.918 -50.298  1.00  0.00     0.010 A 
HETATM   16  C   UNL     1     -43.204  60.992 -50.211  1.00  0.00     0.016 A 
HETATM   17  C   UNL     1     -42.399  60.697 -51.313  1.00  0.00     0.018 A 
BRANCH  14  18
HETATM   18  O   UNL     1     -46.571  60.492 -51.559  1.00  0.00    -0.355 OA
HETATM   19  C   UNL     1     -47.262  61.430 -52.373  1.00  0.00     0.210 C 
ENDBRANCH  14  18
BRANCH  15  20
HETATM   20  C   UNL     1     -45.402  61.250 -49.122  1.00  0.00     0.013 A 
HETATM   21  C   UNL     1     -45.725  60.491 -47.973  1.00  0.00     0.152 A 
HETATM   22  N   UNL     1     -46.500  61.158 -47.112  1.00  0.00    -0.187 NA
HETATM   23  N   UNL     1     -46.659  62.355 -47.698  1.00  0.00    -0.289 N 
HETATM   24  H   UNL     1     -47.210  63.056 -47.215  1.00  0.00     0.188 HD
HETATM   25  C   UNL     1     -46.029  62.459 -48.905  1.00  0.00     0.123 A 
ENDBRANCH  15  20
ENDBRANCH   9  12
ENDBRANCH   7   8
ENDBRANCH   1   7
BRANCH   5  26
HETATM   26  C   UNL     1     -42.247  54.712 -55.681  1.00  0.00     0.257 C 
HETATM   27  O   UNL     1     -43.199  53.959 -55.510  1.00  0.00    -0.267 OA
HETATM   28  N   UNL     1     -40.955  54.521 -55.245  1.00  0.00    -0.301 N 
HETATM   29  H   UNL     1     -40.206  55.139 -55.512  1.00  0.00     0.171 HD
BRANCH  28  30
HETATM   30  C   UNL     1     -40.604  53.454 -54.463  1.00  0.00     0.174 A 
HETATM   31  N   UNL     1     -40.273  52.236 -54.811  1.00  0.00    -0.228 NA
HETATM   32  C   UNL     1     -40.019  51.501 -53.677  1.00  0.00     0.054 A 
HETATM   33  C   UNL     1     -39.588  50.077 -53.725  1.00  0.00     0.090 C 
HETATM   34  C   UNL     1     -40.160  52.180 -52.484  1.00  0.00     0.039 A 
HETATM   35  C   UNL     1     -39.689  49.448 -52.315  1.00  0.00     0.276 C 
HETATM   36  N   UNL     1     -39.172  50.325 -51.237  1.00  0.00     0.088 N 
HETATM   37  C   UNL     1     -39.964  51.571 -51.139  1.00  0.00     0.317 C 
HETATM   38  H   UNL     1     -38.212  50.583 -51.468  1.00  0.00     0.316 HD
HETATM   39  S   UNL     1     -40.629  53.789 -52.780  1.00  0.00    -0.053 SA
ENDBRANCH  28  30
ENDBRANCH   5  26
TORSDOF 7
ENDMDL
MODEL 3
REMARK VINA RESULT:      -8.5      2.960      8.772
REMARK  7 active torsions:
REMARK  status: ('A' for Active; 'I' for Inactive)
REMARK    1  A    between atoms: O_2  and  C_3 
REMARK    2  A    between atoms: C_5  and  C_15 
REMARK    3  A    between atoms: C_8  and  C_9 
REMARK       I    between atoms: C_15  and  N_17 
REMARK    4  A    between atoms: N_17  and  C_18 
REMARK    5  A    between atoms: C_18  and  C_19 
REMARK    6  A    between atoms: C_23  and  C_25 
REMARK       I    between atoms: C_25  and  N_27 
REMARK    7  A    between atoms: N_27  and  C_28 
ROOT
HETATM    1  C   UNL     1     -40.610  53.448 -53.242  1.00  0.00    -0.040 A 
HETATM    2  C   UNL     1     -40.108  52.514 -52.323  1.00  0.00     0.009 A 
HETATM    3  C   UNL     1     -40.090  52.804 -50.960  1.00  0.00     0.002 A 
HETATM    4  C   UNL     1     -40.567  54.031 -50.502  1.00  0.00     0.017 A 
HETATM    5  C   UNL     1     -41.058  54.986 -51.403  1.00  0.00     0.033 A 
HETATM    6  C   UNL     1     -41.080  54.687 -52.773  1.00  0.00     0.026 A 
ENDROOT
BRANCH   1   7
HETATM    7  C   UNL     1     -40.636  53.133 -54.716  1.00  0.00     0.161 C 
BRANCH   7   8
HETATM    8  N   UNL     1     -40.969  54.301 -55.499  1.00  0.00    -0.353 N 
HETATM    9  C   UNL     1     -42.274  54.602 -55.826  1.00  0.00     0.252 C 
HETATM   10  O   UNL     1     -43.232  53.912 -55.495  1.00  0.00    -0.268 OA
HETATM   11  H   UNL     1     -40.263  55.017 -55.580  1.00  0.00     0.163 HD
BRANCH   9  12
HETATM   12  C   UNL     1     -42.482  55.861 -56.599  1.00  0.00     0.034 A 
HETATM   13  C   UNL     1     -42.090  57.076 -56.018  1.00  0.00     0.054 A 
HETATM   14  C   UNL     1     -42.269  58.289 -56.699  1.00  0.00     0.080 A 
HETATM   15  C   UNL     1     -42.862  58.287 -57.981  1.00  0.00     0.010 A 
HETATM   16  C   UNL     1     -43.269  57.065 -58.544  1.00  0.00     0.016 A 
HETATM   17  C   UNL     1     -43.086  55.861 -57.859  1.00  0.00     0.018 A 
BRANCH  14  18
HETATM   18  O   UNL     1     -41.889  59.508 -56.193  1.00  0.00    -0.355 OA
HETATM   19  C   UNL     1     -42.080  59.747 -54.805  1.00  0.00     0.210 C 
ENDBRANCH  14  18
BRANCH  15  20
HETATM   20  C   UNL     1     -43.088  59.516 -58.731  1.00  0.00     0.013 A 
HETATM   21  C   UNL     1     -44.162  60.438 -58.706  1.00  0.00     0.152 A 
HETATM   22  N   UNL     1     -43.998  61.448 -59.566  1.00  0.00    -0.187 NA
HETATM   23  N   UNL     1     -42.809  61.188 -60.130  1.00  0.00    -0.289 N 
HETATM   24  H   UNL     1     -42.453  61.839 -60.822  1.00  0.00     0.188 HD
HETATM   25  C   UNL     1     -42.227  60.040 -59.672  1.00  0.00     0.123 A 
ENDBRANCH  15  20
ENDBRANCH   9  12
ENDBRANCH   7   8
ENDBRANCH   1   7
BRANCH   5  26
HETATM   26  C   UNL     1     -41.584  56.271 -50.847  1.00  0.00     0.257 C 
HETATM   27  O   UNL     1     -41.396  56.493 -49.656  1.00  0.00    -0.267 OA
HETATM   28  N   UNL     1     -42.217  57.095 -51.750  1.00  0.00    -0.301 N 
HETATM   29  H   UNL     1     -42.243  56.885 -52.734  1.00  0.00     0.171 HD
BRANCH  28  30
HETATM   30  C   UNL     1     -42.804  58.272 -51.371  1.00  0.00     0.174 A 
HETATM   31  N   UNL     1     -42.252  59.406 -51.019  1.00  0.00    -0.228 NA
HETATM   32  C   UNL     1     -43.243  60.305 -50.701  1.00  0.00     0.054 A 
HETATM   33  C   UNL     1     -42.952  61.705 -50.286  1.00  0.00     0.090 C 
HETATM   34  C   UNL     1     -44.534  59.835 -50.821  1.00  0.00     0.039 A 
HETATM   35  C   UNL     1     -44.227  62.357 -49.701  1.00  0.00     0.276 C 
HETATM   36  N   UNL     1     -45.451  62.075 -50.488  1.00  0.00     0.088 N 
HETATM   37  C   UNL     1     -45.754  60.626 -50.501  1.00  0.00     0.317 C 
HETATM   38  H   UNL     1     -45.285  62.367 -51.452  1.00  0.00     0.316 HD
HETATM   39  S   UNL     1     -44.519  58.215 -51.344  1.00  0.00    -0.053 SA
ENDBRANCH  28  30
ENDBRANCH   5  26
TORSDOF 7
ENDMDL
MODEL 4
REMARK VINA RESULT:      -8.5      3.021      8.876
REMARK  7 active torsions:
REMARK  status: ('A' for Active; 'I' for Inactive)
REMARK    1  A    between atoms: O_2  and  C_3 
REMARK    2  A    between atoms: C_5  and  C_15 
REMARK    3  A    between atoms: C_8  and  C_9 
REMARK       I    between atoms: C_15  and  N_17 
REMARK    4  A    between atoms: N_17  and  C_18 
REMARK    5  A    between atoms: C_18  and  C_19 
REMARK    6  A    between atoms: C_23  and  C_25 
REMARK       I    between atoms: C_25  and  N_27 
REMARK    7  A    between atoms: N_27  and  C_28 
ROOT
HETATM    1  C   UNL     1     -41.008  54.444 -53.362  1.00  0.00    -0.040 A 
HETATM    2  C   UNL     1     -41.126  53.561 -52.279  1.00  0.00     0.009 A 
HETATM    3  C   UNL     1     -41.353  54.048 -50.992  1.00  0.00     0.002 A 
HETATM    4  C   UNL     1     -41.456  55.421 -50.776  1.00  0.00     0.017 A 
HETATM    5  C   UNL     1     -41.325  56.323 -51.839  1.00  0.00     0.033 A 
HETATM    6  C   UNL     1     -41.104  55.828 -53.133  1.00  0.00     0.026 A 
ENDROOT
BRANCH   1   7
HETATM    7  C   UNL     1     -40.769  53.919 -54.755  1.00  0.00     0.161 C 
BRANCH   7   8
HETATM    8  N   UNL     1     -41.280  54.826 -55.756  1.00  0.00    -0.353 N 
HETATM    9  C   UNL     1     -42.593  54.779 -56.171  1.00  0.00     0.252 C 
HETATM   10  O   UNL     1     -43.411  53.973 -55.740  1.00  0.00    -0.268 OA
HETATM   11  H   UNL     1     -40.730  55.650 -55.954  1.00  0.00     0.163 HD
BRANCH   9  12
HETATM   12  C   UNL     1     -43.002  55.803 -57.176  1.00  0.00     0.034 A 
HETATM   13  C   UNL     1     -43.255  55.387 -58.491  1.00  0.00     0.054 A 
HETATM   14  C   UNL     1     -43.636  56.311 -59.476  1.00  0.00     0.080 A 
HETATM   15  C   UNL     1     -43.755  57.678 -59.140  1.00  0.00     0.010 A 
HETATM   16  C   UNL     1     -43.479  58.084 -57.823  1.00  0.00     0.016 A 
HETATM   17  C   UNL     1     -43.101  57.158 -56.848  1.00  0.00     0.018 A 
BRANCH  14  18
HETATM   18  O   UNL     1     -43.916  55.965 -60.775  1.00  0.00    -0.355 OA
HETATM   19  C   UNL     1     -45.019  55.100 -61.015  1.00  0.00     0.210 C 
ENDBRANCH  14  18
BRANCH  15  20
HETATM   20  C   UNL     1     -44.132  58.686 -60.123  1.00  0.00     0.013 A 
HETATM   21  C   UNL     1     -43.345  59.567 -60.902  1.00  0.00     0.152 A 
HETATM   22  N   UNL     1     -44.080  60.359 -61.689  1.00  0.00    -0.187 NA
HETATM   23  N   UNL     1     -45.339  59.975 -61.432  1.00  0.00    -0.289 N 
HETATM   24  H   UNL     1     -46.092  60.433 -61.933  1.00  0.00     0.188 HD
HETATM   25  C   UNL     1     -45.426  58.983 -60.497  1.00  0.00     0.123 A 
ENDBRANCH  15  20
ENDBRANCH   9  12
ENDBRANCH   7   8
ENDBRANCH   1   7
BRANCH   5  26
HETATM   26  C   UNL     1     -41.477  57.781 -51.547  1.00  0.00     0.257 C 
HETATM   27  O   UNL     1     -40.551  58.346 -50.976  1.00  0.00    -0.267 OA
HETATM   28  N   UNL     1     -42.653  58.355 -51.976  1.00  0.00    -0.301 N 
HETATM   29  H   UNL     1     -43.324  57.845 -52.527  1.00  0.00     0.171 HD
BRANCH  28  30
HETATM   30  C   UNL     1     -42.957  59.664 -51.721  1.00  0.00     0.174 A 
HETATM   31  N   UNL     1     -43.431  60.216 -50.631  1.00  0.00    -0.228 NA
HETATM   32  C   UNL     1     -43.597  61.564 -50.850  1.00  0.00     0.054 A 
HETATM   33  C   UNL     1     -44.095  62.490 -49.796  1.00  0.00     0.090 C 
HETATM   34  C   UNL     1     -43.242  62.012 -52.105  1.00  0.00     0.039 A 
HETATM   35  C   UNL     1     -44.468  63.853 -50.426  1.00  0.00     0.276 C 
HETATM   36  N   UNL     1     -43.474  64.343 -51.410  1.00  0.00     0.088 N 
HETATM   37  C   UNL     1     -43.369  63.422 -52.564  1.00  0.00     0.317 C 
HETATM   38  H   UNL     1     -42.562  64.375 -50.953  1.00  0.00     0.316 HD
HETATM   39  S   UNL     1     -42.686  60.713 -53.052  1.00  0.00    -0.053 SA
ENDBRANCH  28  30
ENDBRANCH   5  26
TORSDOF 7
ENDMDL
MODEL 5
REMARK VINA RESULT:      -8.4      2.418      7.378
REMARK  7 active torsions:
REMARK  status: ('A' for Active; 'I' for Inactive)
REMARK    1  A    between atoms: O_2  and  C_3 
REMARK    2  A    between atoms: C_5  and  C_15 
REMARK    3  A    between atoms: C_8  and  C_9 
REMARK       I    between atoms: C_15  and  N_17 
REMARK    4  A    between atoms: N_17  and  C_18 
REMARK    5  A    between atoms: C_18  and  C_19 
REMARK    6  A    between atoms: C_23  and  C_25 
REMARK       I    between atoms: C_25  and  N_27 
REMARK    7  A    between atoms: N_27  and  C_28 
ROOT
HETATM    1  C   UNL     1     -40.722  54.586 -50.809  1.00  0.00    -0.040 A 
HETATM    2  C   UNL     1     -40.213  53.300 -50.573  1.00  0.00     0.009 A 
HETATM    3  C   UNL     1     -40.015  52.414 -51.630  1.00  0.00     0.002 A 
HETATM    4  C   UNL     1     -40.329  52.801 -52.932  1.00  0.00     0.017 A 
HETATM    5  C   UNL     1     -40.854  54.074 -53.190  1.00  0.00     0.033 A 
HETATM    6  C   UNL     1     -41.045  54.965 -52.123  1.00  0.00     0.026 A 
ENDROOT
BRANCH   1   7
HETATM    7  C   UNL     1     -40.931  55.548 -49.667  1.00  0.00     0.161 C 
BRANCH   7   8
HETATM    8  N   UNL     1     -41.747  56.671 -50.066  1.00  0.00    -0.353 N 
HETATM    9  C   UNL     1     -41.186  57.852 -50.502  1.00  0.00     0.252 C 
HETATM   10  O   UNL     1     -39.977  58.042 -50.574  1.00  0.00    -0.268 OA
HETATM   11  H   UNL     1     -42.720  56.487 -50.260  1.00  0.00     0.163 HD
BRANCH   9  12
HETATM   12  C   UNL     1     -42.144  58.915 -50.927  1.00  0.00     0.034 A 
HETATM   13  C   UNL     1     -43.247  58.547 -51.712  1.00  0.00     0.054 A 
HETATM   14  C   UNL     1     -44.173  59.508 -52.144  1.00  0.00     0.080 A 
HETATM   15  C   UNL     1     -43.985  60.864 -51.793  1.00  0.00     0.010 A 
HETATM   16  C   UNL     1     -42.865  61.222 -51.023  1.00  0.00     0.016 A 
HETATM   17  C   UNL     1     -41.948  60.259 -50.596  1.00  0.00     0.018 A 
BRANCH  14  18
HETATM   18  O   UNL     1     -45.282  59.210 -52.896  1.00  0.00    -0.355 OA
HETATM   19  C   UNL     1     -45.109  58.993 -54.290  1.00  0.00     0.210 C 
ENDBRANCH  14  18
BRANCH  15  20
HETATM   20  C   UNL     1     -44.905  61.909 -52.224  1.00  0.00     0.013 A 
HETATM   21  C   UNL     1     -44.921  62.713 -53.388  1.00  0.00     0.152 A 
HETATM   22  N   UNL     1     -45.940  63.577 -53.408  1.00  0.00    -0.187 NA
HETATM   23  N   UNL     1     -46.593  63.316 -52.266  1.00  0.00    -0.289 N 
HETATM   24  H   UNL     1     -47.432  63.848 -52.060  1.00  0.00     0.188 HD
HETATM   25  C   UNL     1     -46.011  62.333 -51.517  1.00  0.00     0.123 A 
ENDBRANCH  15  20
ENDBRANCH   9  12
ENDBRANCH   7   8
ENDBRANCH   1   7
BRANCH   5  26
HETATM   26  C   UNL     1     -41.142  54.440 -54.611  1.00  0.00     0.257 C 
HETATM   27  O   UNL     1     -40.357  54.052 -55.468  1.00  0.00    -0.267 OA
HETATM   28  N   UNL     1     -42.292  55.170 -54.816  1.00  0.00    -0.301 N 
HETATM   29  H   UNL     1     -42.939  55.365 -54.070  1.00  0.00     0.171 HD
BRANCH  28  30
HETATM   30  C   UNL     1     -42.648  55.630 -56.055  1.00  0.00     0.174 A 
HETATM   31  N   UNL     1     -43.134  54.977 -57.081  1.00  0.00    -0.228 NA
HETATM   32  C   UNL     1     -43.320  55.857 -58.122  1.00  0.00     0.054 A 
HETATM   33  C   UNL     1     -43.888  55.438 -59.433  1.00  0.00     0.090 C 
HETATM   34  C   UNL     1     -42.973  57.166 -57.864  1.00  0.00     0.039 A 
HETATM   35  C   UNL     1     -43.680  56.559 -60.480  1.00  0.00     0.276 C 
HETATM   36  N   UNL     1     -43.977  57.915 -59.962  1.00  0.00     0.088 N 
HETATM   37  C   UNL     1     -43.064  58.274 -58.854  1.00  0.00     0.317 C 
HETATM   38  H   UNL     1     -44.929  57.915 -59.592  1.00  0.00     0.316 HD
HETATM   39  S   UNL     1     -42.390  57.313 -56.272  1.00  0.00    -0.053 SA
ENDBRANCH  28  30
ENDBRANCH   5  26
TORSDOF 7
ENDMDL
MODEL 6
REMARK VINA RESULT:      -8.3      2.004      8.131
REMARK  7 active torsions:
REMARK  status: ('A' for Active; 'I' for Inactive)
REMARK    1  A    between atoms: O_2  and  C_3 
REMARK    2  A    between atoms: C_5  and  C_15 
REMARK    3  A    between atoms: C_8  and  C_9 
REMARK       I    between atoms: C_15  and  N_17 
REMARK    4  A    between atoms: N_17  and  C_18 
REMARK    5  A    between atoms: C_18  and  C_19 
REMARK    6  A    between atoms: C_23  and  C_25 
REMARK       I    between atoms: C_25  and  N_27 
REMARK    7  A    between atoms: N_27  and  C_28 
ROOT
HETATM    1  C   UNL     1     -42.845  59.427 -51.466  1.00  0.00    -0.040 A 
HETATM    2  C   UNL     1     -41.889  60.312 -50.947  1.00  0.00     0.009 A 
HETATM    3  C   UNL     1     -40.735  59.826 -50.334  1.00  0.00     0.002 A 
HETATM    4  C   UNL     1     -40.529  58.451 -50.229  1.00  0.00     0.017 A 
HETATM    5  C   UNL     1     -41.478  57.548 -50.725  1.00  0.00     0.033 A 
HETATM    6  C   UNL     1     -42.634  58.042 -51.347  1.00  0.00     0.026 A 
ENDROOT
BRANCH   1   7
HETATM    7  C   UNL     1     -44.090  59.952 -52.135  1.00  0.00     0.161 C 
BRANCH   7   8
HETATM    8  N   UNL     1     -44.312  59.313 -53.412  1.00  0.00    -0.353 N 
HETATM    9  C   UNL     1     -43.720  59.780 -54.565  1.00  0.00     0.252 C 
HETATM   10  O   UNL     1     -42.981  60.758 -54.599  1.00  0.00    -0.268 OA
HETATM   11  H   UNL     1     -44.698  58.380 -53.399  1.00  0.00     0.163 HD
BRANCH   9  12
HETATM   12  C   UNL     1     -43.996  58.999 -55.807  1.00  0.00     0.034 A 
HETATM   13  C   UNL     1     -43.400  57.738 -55.952  1.00  0.00     0.054 A 
HETATM   14  C   UNL     1     -43.622  56.966 -57.102  1.00  0.00     0.080 A 
HETATM   15  C   UNL     1     -44.448  57.472 -58.131  1.00  0.00     0.010 A 
HETATM   16  C   UNL     1     -45.023  58.746 -57.982  1.00  0.00     0.016 A 
HETATM   17  C   UNL     1     -44.798  59.508 -56.833  1.00  0.00     0.018 A 
BRANCH  14  18
HETATM   18  O   UNL     1     -43.085  55.718 -57.295  1.00  0.00    -0.355 OA
HETATM   19  C   UNL     1     -42.643  54.995 -56.154  1.00  0.00     0.210 C 
ENDBRANCH  14  18
BRANCH  15  20
HETATM   20  C   UNL     1     -44.705  56.724 -59.355  1.00  0.00     0.013 A 
HETATM   21  C   UNL     1     -43.872  55.870 -60.116  1.00  0.00     0.152 A 
HETATM   22  N   UNL     1     -44.484  55.376 -61.197  1.00  0.00    -0.187 NA
HETATM   23  N   UNL     1     -45.719  55.896 -61.121  1.00  0.00    -0.289 N 
HETATM   24  H   UNL     1     -46.389  55.647 -61.840  1.00  0.00     0.188 HD
HETATM   25  C   UNL     1     -45.900  56.715 -60.043  1.00  0.00     0.123 A 
ENDBRANCH  15  20
ENDBRANCH   9  12
ENDBRANCH   7   8
ENDBRANCH   1   7
BRANCH   5  26
HETATM   26  C   UNL     1     -41.184  56.086 -50.609  1.00  0.00     0.257 C 
HETATM   27  O   UNL     1     -41.124  55.606 -49.483  1.00  0.00    -0.267 OA
HETATM   28  N   UNL     1     -41.030  55.414 -51.801  1.00  0.00    -0.301 N 
HETATM   29  H   UNL     1     -41.193  55.860 -52.689  1.00  0.00     0.171 HD
BRANCH  28  30
HETATM   30  C   UNL     1     -40.695  54.088 -51.848  1.00  0.00     0.174 A 
HETATM   31  N   UNL     1     -40.558  53.225 -50.873  1.00  0.00    -0.228 NA
HETATM   32  C   UNL     1     -40.190  52.009 -51.401  1.00  0.00     0.054 A 
HETATM   33  C   UNL     1     -39.980  50.801 -50.558  1.00  0.00     0.090 C 
HETATM   34  C   UNL     1     -40.056  51.973 -52.773  1.00  0.00     0.039 A 
HETATM   35  C   UNL     1     -39.278  49.697 -51.384  1.00  0.00     0.276 C 
HETATM   36  N   UNL     1     -39.830  49.540 -52.751  1.00  0.00     0.088 N 
HETATM   37  C   UNL     1     -39.638  50.772 -53.548  1.00  0.00     0.317 C 
HETATM   38  H   UNL     1     -40.834  49.373 -52.673  1.00  0.00     0.316 HD
HETATM   39  S   UNL     1     -40.396  53.503 -53.434  1.00  0.00    -0.053 SA
ENDBRANCH  28  30
ENDBRANCH   5  26
TORSDOF 7
ENDMDL
MODEL 7
REMARK VINA RESULT:      -8.3      2.661      7.589
REMARK  7 active torsions:
REMARK  status: ('A' for Active; 'I' for Inactive)
REMARK    1  A    between atoms: O_2  and  C_3 
REMARK    2  A    between atoms: C_5  and  C_15 
REMARK    3  A    between atoms: C_8  and  C_9 
REMARK       I    between atoms: C_15  and  N_17 
REMARK    4  A    between atoms: N_17  and  C_18 
REMARK    5  A    between atoms: C_18  and  C_19 
REMARK    6  A    between atoms: C_23  and  C_25 
REMARK       I    between atoms: C_25  and  N_27 
REMARK    7  A    between atoms: N_27  and  C_28 
ROOT
HETATM    1  C   UNL     1     -40.737  54.578 -50.907  1.00  0.00    -0.040 A 
HETATM    2  C   UNL     1     -40.147  53.330 -50.659  1.00  0.00     0.009 A 
HETATM    3  C   UNL     1     -39.899  52.445 -51.708  1.00  0.00     0.002 A 
HETATM    4  C   UNL     1     -40.243  52.797 -53.012  1.00  0.00     0.017 A 
HETATM    5  C   UNL     1     -40.848  54.031 -53.282  1.00  0.00     0.033 A 
HETATM    6  C   UNL     1     -41.090  54.920 -52.225  1.00  0.00     0.026 A 
ENDROOT
BRANCH   1   7
HETATM    7  C   UNL     1     -41.001  55.539 -49.776  1.00  0.00     0.161 C 
BRANCH   7   8
HETATM    8  N   UNL     1     -41.964  56.547 -50.153  1.00  0.00    -0.353 N 
HETATM    9  C   UNL     1     -41.573  57.760 -50.675  1.00  0.00     0.252 C 
HETATM   10  O   UNL     1     -40.400  58.077 -50.847  1.00  0.00    -0.268 OA
HETATM   11  H   UNL     1     -42.922  56.249 -50.264  1.00  0.00     0.163 HD
BRANCH   9  12
HETATM   12  C   UNL     1     -42.671  58.692 -51.065  1.00  0.00     0.034 A 
HETATM   13  C   UNL     1     -42.399  60.067 -51.108  1.00  0.00     0.054 A 
HETATM   14  C   UNL     1     -43.398  60.986 -51.463  1.00  0.00     0.080 A 
HETATM   15  C   UNL     1     -44.695  60.520 -51.771  1.00  0.00     0.010 A 
HETATM   16  C   UNL     1     -44.960  59.141 -51.704  1.00  0.00     0.016 A 
HETATM   17  C   UNL     1     -43.960  58.233 -51.351  1.00  0.00     0.018 A 
BRANCH  14  18
HETATM   18  O   UNL     1     -43.190  62.341 -51.543  1.00  0.00    -0.355 OA
HETATM   19  C   UNL     1     -42.958  63.056 -50.336  1.00  0.00     0.210 C 
ENDBRANCH  14  18
BRANCH  15  20
HETATM   20  C   UNL     1     -45.778  61.427 -52.132  1.00  0.00     0.013 A 
HETATM   21  C   UNL     1     -46.669  62.179 -51.330  1.00  0.00     0.152 A 
HETATM   22  N   UNL     1     -47.540  62.891 -52.051  1.00  0.00    -0.187 NA
HETATM   23  N   UNL     1     -47.196  62.615 -53.318  1.00  0.00    -0.289 N 
HETATM   24  H   UNL     1     -47.717  63.062 -54.065  1.00  0.00     0.188 HD
HETATM   25  C   UNL     1     -46.154  61.739 -53.422  1.00  0.00     0.123 A 
ENDBRANCH  15  20
ENDBRANCH   9  12
ENDBRANCH   7   8
ENDBRANCH   1   7
BRANCH   5  26
HETATM   26  C   UNL     1     -41.165  54.362 -54.706  1.00  0.00     0.257 C 
HETATM   27  O   UNL     1     -40.395  53.954 -55.568  1.00  0.00    -0.267 OA
HETATM   28  N   UNL     1     -42.320  55.083 -54.906  1.00  0.00    -0.301 N 
HETATM   29  H   UNL     1     -42.953  55.295 -54.152  1.00  0.00     0.171 HD
BRANCH  28  30
HETATM   30  C   UNL     1     -42.702  55.512 -56.148  1.00  0.00     0.174 A 
HETATM   31  N   UNL     1     -43.206  54.833 -57.148  1.00  0.00    -0.228 NA
HETATM   32  C   UNL     1     -43.415  55.687 -58.207  1.00  0.00     0.054 A 
HETATM   33  C   UNL     1     -44.008  55.235 -59.495  1.00  0.00     0.090 C 
HETATM   34  C   UNL     1     -43.065  57.003 -57.987  1.00  0.00     0.039 A 
HETATM   35  C   UNL     1     -43.824  56.330 -60.573  1.00  0.00     0.276 C 
HETATM   36  N   UNL     1     -44.113  57.698 -60.083  1.00  0.00     0.088 N 
HETATM   37  C   UNL     1     -43.179  58.086 -59.003  1.00  0.00     0.317 C 
HETATM   38  H   UNL     1     -45.057  57.705 -59.695  1.00  0.00     0.316 HD
HETATM   39  S   UNL     1     -42.452  57.189 -56.411  1.00  0.00    -0.053 SA
ENDBRANCH  28  30
ENDBRANCH   5  26
TORSDOF 7
ENDMDL
MODEL 8
REMARK VINA RESULT:      -8.3      3.899      5.761
REMARK  7 active torsions:
REMARK  status: ('A' for Active; 'I' for Inactive)
REMARK    1  A    between atoms: O_2  and  C_3 
REMARK    2  A    between atoms: C_5  and  C_15 
REMARK    3  A    between atoms: C_8  and  C_9 
REMARK       I    between atoms: C_15  and  N_17 
REMARK    4  A    between atoms: N_17  and  C_18 
REMARK    5  A    between atoms: C_18  and  C_19 
REMARK    6  A    between atoms: C_23  and  C_25 
REMARK       I    between atoms: C_25  and  N_27 
REMARK    7  A    between atoms: N_27  and  C_28 
ROOT
HETATM    1  C   UNL     1     -41.676  59.739 -52.611  1.00  0.00    -0.040 A 
HETATM    2  C   UNL     1     -41.189  59.554 -51.308  1.00  0.00     0.009 A 
HETATM    3  C   UNL     1     -41.822  60.161 -50.224  1.00  0.00     0.002 A 
HETATM    4  C   UNL     1     -42.944  60.961 -50.432  1.00  0.00     0.017 A 
HETATM    5  C   UNL     1     -43.439  61.174 -51.726  1.00  0.00     0.033 A 
HETATM    6  C   UNL     1     -42.802  60.556 -52.812  1.00  0.00     0.026 A 
ENDROOT
BRANCH   1   7
HETATM    7  C   UNL     1     -40.996  59.079 -53.783  1.00  0.00     0.161 C 
BRANCH   7   8
HETATM    8  N   UNL     1     -40.764  57.675 -53.536  1.00  0.00    -0.353 N 
HETATM    9  C   UNL     1     -41.300  56.701 -54.351  1.00  0.00     0.252 C 
HETATM   10  O   UNL     1     -42.007  56.944 -55.322  1.00  0.00    -0.268 OA
HETATM   11  H   UNL     1     -40.004  57.436 -52.916  1.00  0.00     0.163 HD
BRANCH   9  12
HETATM   12  C   UNL     1     -40.944  55.292 -54.010  1.00  0.00     0.034 A 
HETATM   13  C   UNL     1     -41.073  54.872 -52.678  1.00  0.00     0.054 A 
HETATM   14  C   UNL     1     -40.746  53.561 -52.303  1.00  0.00     0.080 A 
HETATM   15  C   UNL     1     -40.272  52.656 -53.278  1.00  0.00     0.010 A 
HETATM   16  C   UNL     1     -40.129  53.094 -54.606  1.00  0.00     0.016 A 
HETATM   17  C   UNL     1     -40.457  54.402 -54.971  1.00  0.00     0.018 A 
BRANCH  14  18
HETATM   18  O   UNL     1     -40.869  53.084 -51.021  1.00  0.00    -0.355 OA
HETATM   19  C   UNL     1     -40.495  53.939 -49.949  1.00  0.00     0.210 C 
ENDBRANCH  14  18
BRANCH  15  20
HETATM   20  C   UNL     1     -39.902  51.285 -52.947  1.00  0.00     0.013 A 
HETATM   21  C   UNL     1     -39.827  50.122 -53.749  1.00  0.00     0.152 A 
HETATM   22  N   UNL     1     -39.453  49.040 -53.059  1.00  0.00    -0.187 NA
HETATM   23  N   UNL     1     -39.268  49.510 -51.816  1.00  0.00    -0.289 N 
HETATM   24  H   UNL     1     -38.959  48.863 -51.099  1.00  0.00     0.188 HD
HETATM   25  C   UNL     1     -39.531  50.845 -51.693  1.00  0.00     0.123 A 
ENDBRANCH  15  20
ENDBRANCH   9  12
ENDBRANCH   7   8
ENDBRANCH   1   7
BRANCH   5  26
HETATM   26  C   UNL     1     -44.663  62.019 -51.879  1.00  0.00     0.257 C 
HETATM   27  O   UNL     1     -44.687  63.096 -51.296  1.00  0.00    -0.267 OA
HETATM   28  N   UNL     1     -45.646  61.500 -52.693  1.00  0.00    -0.301 N 
HETATM   29  H   UNL     1     -45.509  60.651 -53.217  1.00  0.00     0.171 HD
BRANCH  28  30
HETATM   30  C   UNL     1     -46.846  62.131 -52.874  1.00  0.00     0.174 A 
HETATM   31  N   UNL     1     -47.848  62.278 -52.043  1.00  0.00    -0.228 NA
HETATM   32  C   UNL     1     -48.855  62.969 -52.676  1.00  0.00     0.054 A 
HETATM   33  C   UNL     1     -50.129  63.329 -51.996  1.00  0.00     0.090 C 
HETATM   34  C   UNL     1     -48.596  63.337 -53.980  1.00  0.00     0.039 A 
HETATM   35  C   UNL     1     -51.166  63.811 -53.039  1.00  0.00     0.276 C 
HETATM   36  N   UNL     1     -50.601  64.733 -54.053  1.00  0.00     0.088 N 
HETATM   37  C   UNL     1     -49.555  64.063 -54.858  1.00  0.00     0.317 C 
HETATM   38  H   UNL     1     -50.164  65.515 -53.564  1.00  0.00     0.316 HD
HETATM   39  S   UNL     1     -47.047  62.803 -54.441  1.00  0.00    -0.053 SA
ENDBRANCH  28  30
ENDBRANCH   5  26
TORSDOF 7
ENDMDL
MODEL 9
REMARK VINA RESULT:      -8.2      2.158      7.781
REMARK  7 active torsions:
REMARK  status: ('A' for Active; 'I' for Inactive)
REMARK    1  A    between atoms: O_2  and  C_3 
REMARK    2  A    between atoms: C_5  and  C_15 
REMARK    3  A    between atoms: C_8  and  C_9 
REMARK       I    between atoms: C_15  and  N_17 
REMARK    4  A    between atoms: N_17  and  C_18 
REMARK    5  A    between atoms: C_18  and  C_19 
REMARK    6  A    between atoms: C_23  and  C_25 
REMARK       I    between atoms: C_25  and  N_27 
REMARK    7  A    between atoms: N_27  and  C_28 
ROOT
HETATM    1  C   UNL     1     -43.110  61.005 -52.803  1.00  0.00    -0.040 A 
HETATM    2  C   UNL     1     -43.164  61.751 -51.616  1.00  0.00     0.009 A 
HETATM    3  C   UNL     1     -42.686  61.213 -50.422  1.00  0.00     0.002 A 
HETATM    4  C   UNL     1     -42.155  59.925 -50.401  1.00  0.00     0.017 A 
HETATM    5  C   UNL     1     -42.106  59.155 -51.571  1.00  0.00     0.033 A 
HETATM    6  C   UNL     1     -42.582  59.702 -52.771  1.00  0.00     0.026 A 
ENDROOT
BRANCH   1   7
HETATM    7  C   UNL     1     -43.621  61.587 -54.096  1.00  0.00     0.161 C 
BRANCH   7   8
HETATM    8  N   UNL     1     -43.855  60.557 -55.082  1.00  0.00    -0.353 N 
HETATM    9  C   UNL     1     -42.963  60.320 -56.105  1.00  0.00     0.252 C 
HETATM   10  O   UNL     1     -41.927  60.957 -56.261  1.00  0.00    -0.268 OA
HETATM   11  H   UNL     1     -44.548  59.856 -54.859  1.00  0.00     0.163 HD
BRANCH   9  12
HETATM   12  C   UNL     1     -43.305  59.196 -57.026  1.00  0.00     0.034 A 
HETATM   13  C   UNL     1     -44.636  59.054 -57.443  1.00  0.00     0.054 A 
HETATM   14  C   UNL     1     -45.012  58.011 -58.303  1.00  0.00     0.080 A 
HETATM   15  C   UNL     1     -44.038  57.088 -58.746  1.00  0.00     0.010 A 
HETATM   16  C   UNL     1     -42.711  57.231 -58.304  1.00  0.00     0.016 A 
HETATM   17  C   UNL     1     -42.345  58.272 -57.448  1.00  0.00     0.018 A 
BRANCH  14  18
HETATM   18  O   UNL     1     -46.292  57.829 -58.763  1.00  0.00    -0.355 OA
HETATM   19  C   UNL     1     -47.367  58.293 -57.956  1.00  0.00     0.210 C 
ENDBRANCH  14  18
BRANCH  15  20
HETATM   20  C   UNL     1     -44.370  55.976 -59.628  1.00  0.00     0.013 A 
HETATM   21  C   UNL     1     -44.793  55.953 -60.977  1.00  0.00     0.152 A 
HETATM   22  N   UNL     1     -45.009  54.714 -61.432  1.00  0.00    -0.187 NA
HETATM   23  N   UNL     1     -44.705  53.939 -60.381  1.00  0.00    -0.289 N 
HETATM   24  H   UNL     1     -44.779  52.933 -60.489  1.00  0.00     0.188 HD
HETATM   25  C   UNL     1     -44.325  54.643 -59.274  1.00  0.00     0.123 A 
ENDBRANCH  15  20
ENDBRANCH   9  12
ENDBRANCH   7   8
ENDBRANCH   1   7
BRANCH   5  26
HETATM   26  C   UNL     1     -41.496  57.792 -51.489  1.00  0.00     0.257 C 
HETATM   27  O   UNL     1     -40.670  57.591 -50.607  1.00  0.00    -0.267 OA
HETATM   28  N   UNL     1     -41.951  56.880 -52.416  1.00  0.00    -0.301 N 
HETATM   29  H   UNL     1     -42.707  57.094 -53.046  1.00  0.00     0.171 HD
BRANCH  28  30
HETATM   30  C   UNL     1     -41.437  55.615 -52.501  1.00  0.00     0.174 A 
HETATM   31  N   UNL     1     -41.125  54.773 -51.548  1.00  0.00    -0.228 NA
HETATM   32  C   UNL     1     -40.622  53.624 -52.114  1.00  0.00     0.054 A 
HETATM   33  C   UNL     1     -40.197  52.451 -51.302  1.00  0.00     0.090 C 
HETATM   34  C   UNL     1     -40.565  53.616 -53.492  1.00  0.00     0.039 A 
HETATM   35  C   UNL     1     -39.397  51.462 -52.183  1.00  0.00     0.276 C 
HETATM   36  N   UNL     1     -40.000  51.238 -53.519  1.00  0.00     0.088 N 
HETATM   37  C   UNL     1     -40.029  52.491 -54.307  1.00  0.00     0.317 C 
HETATM   38  H   UNL     1     -40.965  50.932 -53.386  1.00  0.00     0.316 HD
HETATM   39  S   UNL     1     -41.152  55.088 -54.110  1.00  0.00    -0.053 SA
ENDBRANCH  28  30
ENDBRANCH   5  26
TORSDOF 7
ENDMDL
MODEL 10
REMARK VINA RESULT:      -8.2      4.014      4.741
REMARK  7 active torsions:
REMARK  status: ('A' for Active; 'I' for Inactive)
REMARK    1  A    between atoms: O_2  and  C_3 
REMARK    2  A    between atoms: C_5  and  C_15 
REMARK    3  A    between atoms: C_8  and  C_9 
REMARK       I    between atoms: C_15  and  N_17 
REMARK    4  A    between atoms: N_17  and  C_18 
REMARK    5  A    between atoms: C_18  and  C_19 
REMARK    6  A    between atoms: C_23  and  C_25 
REMARK       I    between atoms: C_25  and  N_27 
REMARK    7  A    between atoms: N_27  and  C_28 
ROOT
HETATM    1  C   UNL     1     -43.441  59.766 -53.082  1.00  0.00    -0.040 A 
HETATM    2  C   UNL     1     -44.844  59.725 -53.078  1.00  0.00     0.009 A 
HETATM    3  C   UNL     1     -45.571  60.355 -54.087  1.00  0.00     0.002 A 
HETATM    4  C   UNL     1     -44.906  61.036 -55.104  1.00  0.00     0.017 A 
HETATM    5  C   UNL     1     -43.506  61.105 -55.119  1.00  0.00     0.033 A 
HETATM    6  C   UNL     1     -42.778  60.464 -54.106  1.00  0.00     0.026 A 
ENDROOT
BRANCH   1   7
HETATM    7  C   UNL     1     -42.653  59.080 -51.995  1.00  0.00     0.161 C 
BRANCH   7   8
HETATM    8  N   UNL     1     -42.335  57.717 -52.355  1.00  0.00    -0.353 N 
HETATM    9  C   UNL     1     -41.168  57.398 -53.015  1.00  0.00     0.252 C 
HETATM   10  O   UNL     1     -40.331  58.229 -53.351  1.00  0.00    -0.268 OA
HETATM   11  H   UNL     1     -42.855  56.986 -51.892  1.00  0.00     0.163 HD
BRANCH   9  12
HETATM   12  C   UNL     1     -40.943  55.948 -53.285  1.00  0.00     0.034 A 
HETATM   13  C   UNL     1     -41.142  55.033 -52.240  1.00  0.00     0.054 A 
HETATM   14  C   UNL     1     -40.938  53.660 -52.438  1.00  0.00     0.080 A 
HETATM   15  C   UNL     1     -40.516  53.194 -53.704  1.00  0.00     0.010 A 
HETATM   16  C   UNL     1     -40.300  54.123 -54.737  1.00  0.00     0.016 A 
HETATM   17  C   UNL     1     -40.507  55.489 -54.531  1.00  0.00     0.018 A 
BRANCH  14  18
HETATM   18  O   UNL     1     -41.135  52.714 -51.464  1.00  0.00    -0.355 OA
HETATM   19  C   UNL     1     -40.376  52.817 -50.266  1.00  0.00     0.210 C 
ENDBRANCH  14  18
BRANCH  15  20
HETATM   20  C   UNL     1     -40.272  51.781 -53.967  1.00  0.00     0.013 A 
HETATM   21  C   UNL     1     -39.170  50.952 -53.653  1.00  0.00     0.152 A 
HETATM   22  N   UNL     1     -39.327  49.696 -54.082  1.00  0.00    -0.187 NA
HETATM   23  N   UNL     1     -40.540  49.711 -54.654  1.00  0.00    -0.289 N 
HETATM   24  H   UNL     1     -40.895  48.846 -55.049  1.00  0.00     0.188 HD
HETATM   25  C   UNL     1     -41.145  50.935 -54.620  1.00  0.00     0.123 A 
ENDBRANCH  15  20
ENDBRANCH   9  12
ENDBRANCH   7   8
ENDBRANCH   1   7
BRANCH   5  26
HETATM   26  C   UNL     1     -42.851  61.825 -56.254  1.00  0.00     0.257 C 
HETATM   27  O   UNL     1     -43.082  63.023 -56.376  1.00  0.00    -0.267 OA
HETATM   28  N   UNL     1     -42.024  61.060 -57.046  1.00  0.00    -0.301 N 
HETATM   29  H   UNL     1     -41.807  60.103 -56.820  1.00  0.00     0.171 HD
BRANCH  28  30
HETATM   30  C   UNL     1     -41.409  61.569 -58.157  1.00  0.00     0.174 A 
HETATM   31  N   UNL     1     -40.305  62.267 -58.256  1.00  0.00    -0.228 NA
HETATM   32  C   UNL     1     -40.090  62.576 -59.579  1.00  0.00     0.054 A 
HETATM   33  C   UNL     1     -38.899  63.342 -60.039  1.00  0.00     0.090 C 
HETATM   34  C   UNL     1     -41.036  62.102 -60.463  1.00  0.00     0.039 A 
HETATM   35  C   UNL     1     -39.097  63.795 -61.505  1.00  0.00     0.276 C 
HETATM   36  N   UNL     1     -39.661  62.740 -62.380  1.00  0.00     0.088 N 
HETATM   37  C   UNL     1     -41.015  62.344 -61.932  1.00  0.00     0.317 C 
HETATM   38  H   UNL     1     -39.060  61.918 -62.316  1.00  0.00     0.316 HD
HETATM   39  S   UNL     1     -42.242  61.244 -59.623  1.00  0.00    -0.053 SA
ENDBRANCH  28  30
ENDBRANCH   5  26
TORSDOF 7
ENDMDL
