MODEL 1
REMARK VINA RESULT:      -7.9      0.000      0.000
REMARK  9 active torsions:
REMARK  status: ('A' for Active; 'I' for Inactive)
REMARK    1  A    between atoms: C_5  and  N_6 
REMARK       I    between atoms: N_6  and  C_7 
REMARK    2  A    between atoms: C_7  and  C_8 
REMARK    3  A    between atoms: C_8  and  C_9 
REMARK    4  A    between atoms: C_9  and  C_10 
REMARK       I    between atoms: C_10  and  N_11 
REMARK    5  A    between atoms: N_11  and  C_12 
REMARK    6  A    between atoms: N_11  and  C_29 
REMARK    7  A    between atoms: C_12  and  C_13 
REMARK       I    between atoms: C_13  and  N_14 
REMARK    8  A    between atoms: N_14  and  C_15 
REMARK    9  A    between atoms: C_29  and  C_30 
ROOT
HETATM    1  C   UNL     1     -45.220  58.505 -56.584  1.00  0.00     0.221 C 
HETATM    2  N   UNL     1     -44.365  58.401 -57.688  1.00  0.00    -0.328 N 
HETATM    3  O   UNL     1     -46.369  58.949 -56.714  1.00  0.00    -0.273 OA
ENDROOT
BRANCH   2   4
HETATM    4  C   UNL     1     -42.874  58.034 -57.696  1.00  0.00     0.119 C 
HETATM    5  C   UNL     1     -42.003  58.827 -56.672  1.00  0.00     0.069 C 
HETATM    6  C   UNL     1     -42.021  60.315 -56.919  1.00  0.00     0.237 C 
HETATM    7  N   UNL     1     -41.356  60.571 -58.245  1.00  0.00    -0.075 N 
HETATM    8  H   UNL     1     -40.384  60.232 -58.172  1.00  0.00     0.279 HD
HETATM    9  C   UNL     1     -41.250  62.051 -58.519  1.00  0.00     0.269 C 
HETATM   10  C   UNL     1     -42.011  59.829 -59.378  1.00  0.00     0.237 C 
HETATM   11  C   UNL     1     -42.160  58.335 -59.061  1.00  0.00     0.069 C 
BRANCH   4  12
HETATM   12  C   UNL     1     -42.593  56.514 -57.435  1.00  0.00     0.246 C 
HETATM   13  N   UNL     1     -42.009  56.153 -56.243  1.00  0.00    -0.354 N 
HETATM   14  H   UNL     1     -41.766  56.870 -55.565  1.00  0.00     0.162 HD
HETATM   15  O   UNL     1     -43.066  55.671 -58.200  1.00  0.00    -0.271 OA
BRANCH  13  16
HETATM   16  C   UNL     1     -42.014  54.754 -55.784  1.00  0.00     0.084 C 
HETATM   17  C   UNL     1     -40.732  54.330 -55.040  1.00  0.00     0.025 C 
HETATM   18  C   UNL     1     -40.661  54.793 -53.586  1.00  0.00     0.002 C 
HETATM   19  C   UNL     1     -41.925  54.460 -52.806  1.00  0.00     0.000 C 
HETATM   20  C   UNL     1     -43.164  54.987 -53.518  1.00  0.00     0.002 C 
HETATM   21  C   UNL     1     -43.257  54.437 -54.940  1.00  0.00     0.025 C 
ENDBRANCH  13  16
ENDBRANCH   4  12
ENDBRANCH   2   4
BRANCH   2  22
HETATM   22  C   UNL     1     -45.063  58.733 -58.957  1.00  0.00     0.192 C 
BRANCH  22  23
HETATM   23  C   UNL     1     -45.718  57.558 -59.593  1.00  0.00     0.070 A 
HETATM   24  O   UNL     1     -44.946  56.791 -60.414  1.00  0.00    -0.325 OA
HETATM   25  C   UNL     1     -45.772  55.867 -60.978  1.00  0.00     0.142 A 
HETATM   26  C   UNL     1     -47.054  56.010 -60.501  1.00  0.00     0.027 A 
HETATM   27  C   UNL     1     -47.022  57.106 -59.611  1.00  0.00     0.036 A 
ENDBRANCH  22  23
ENDBRANCH   2  22
BRANCH   1  28
HETATM   28  C   UNL     1     -44.874  58.002 -55.204  1.00  0.00     0.112 C 
BRANCH  28  29
HETATM   29  C   UNL     1     -45.131  59.084 -54.178  1.00  0.00     0.112 C 
BRANCH  29  30
HETATM   30  C   UNL     1     -43.838  59.655 -53.632  1.00  0.00     0.223 C 
HETATM   31  N   UNL     1     -42.935  58.675 -53.276  1.00  0.00    -0.310 N 
HETATM   32  H   UNL     1     -43.203  57.700 -53.312  1.00  0.00     0.170 HD
HETATM   33  O   UNL     1     -43.692  60.870 -53.563  1.00  0.00    -0.273 OA
BRANCH  31  34
HETATM   34  C   UNL     1     -41.666  58.925 -52.792  1.00  0.00     0.160 A 
HETATM   35  N   UNL     1     -40.560  59.069 -53.523  1.00  0.00    -0.110 NA
HETATM   36  O   UNL     1     -39.533  59.306 -52.632  1.00  0.00    -0.216 OA
HETATM   37  C   UNL     1     -40.024  59.294 -51.367  1.00  0.00     0.078 A 
HETATM   38  C   UNL     1     -39.058  59.533 -50.282  1.00  0.00     0.079 C 
HETATM   39  C   UNL     1     -41.375  59.058 -51.414  1.00  0.00     0.087 A 
ENDBRANCH  31  34
ENDBRANCH  29  30
ENDBRANCH  28  29
ENDBRANCH   1  28
TORSDOF 9
ENDMDL
MODEL 2
REMARK VINA RESULT:      -7.4      3.732      6.186
REMARK  9 active torsions:
REMARK  status: ('A' for Active; 'I' for Inactive)
REMARK    1  A    between atoms: C_5  and  N_6 
REMARK       I    between atoms: N_6  and  C_7 
REMARK    2  A    between atoms: C_7  and  C_8 
REMARK    3  A    between atoms: C_8  and  C_9 
REMARK    4  A    between atoms: C_9  and  C_10 
REMARK       I    between atoms: C_10  and  N_11 
REMARK    5  A    between atoms: N_11  and  C_12 
REMARK    6  A    between atoms: N_11  and  C_29 
REMARK    7  A    between atoms: C_12  and  C_13 
REMARK       I    between atoms: C_13  and  N_14 
REMARK    8  A    between atoms: N_14  and  C_15 
REMARK    9  A    between atoms: C_29  and  C_30 
ROOT
HETATM    1  C   UNL     1     -41.767  59.345 -52.018  1.00  0.00     0.221 C 
HETATM    2  N   UNL     1     -42.648  58.799 -52.961  1.00  0.00    -0.328 N 
HETATM    3  O   UNL     1     -40.585  59.570 -52.313  1.00  0.00    -0.273 OA
ENDROOT
BRANCH   2   4
HETATM    4  C   UNL     1     -44.084  58.306 -52.737  1.00  0.00     0.119 C 
HETATM    5  C   UNL     1     -44.843  57.898 -54.039  1.00  0.00     0.069 C 
HETATM    6  C   UNL     1     -44.990  59.042 -55.011  1.00  0.00     0.237 C 
HETATM    7  N   UNL     1     -45.878  60.077 -54.376  1.00  0.00    -0.075 N 
HETATM    8  H   UNL     1     -46.794  59.633 -54.204  1.00  0.00     0.279 HD
HETATM    9  C   UNL     1     -46.151  61.214 -55.330  1.00  0.00     0.269 C 
HETATM   10  C   UNL     1     -45.354  60.561 -53.052  1.00  0.00     0.237 C 
HETATM   11  C   UNL     1     -45.032  59.390 -52.113  1.00  0.00     0.069 C 
BRANCH   4  12
HETATM   12  C   UNL     1     -44.190  57.085 -51.760  1.00  0.00     0.246 C 
HETATM   13  N   UNL     1     -43.279  56.063 -51.891  1.00  0.00    -0.354 N 
HETATM   14  H   UNL     1     -42.567  56.113 -52.615  1.00  0.00     0.162 HD
HETATM   15  O   UNL     1     -44.948  57.150 -50.790  1.00  0.00    -0.271 OA
BRANCH  13  16
HETATM   16  C   UNL     1     -43.100  55.059 -50.828  1.00  0.00     0.084 C 
HETATM   17  C   UNL     1     -42.761  53.647 -51.345  1.00  0.00     0.025 C 
HETATM   18  C   UNL     1     -41.302  53.455 -51.753  1.00  0.00     0.002 C 
HETATM   19  C   UNL     1     -40.330  53.933 -50.683  1.00  0.00     0.000 C 
HETATM   20  C   UNL     1     -40.629  55.369 -50.273  1.00  0.00     0.002 C 
HETATM   21  C   UNL     1     -42.070  55.514 -49.785  1.00  0.00     0.025 C 
ENDBRANCH  13  16
ENDBRANCH   4  12
ENDBRANCH   2   4
BRANCH   2  22
HETATM   22  C   UNL     1     -42.019  58.695 -54.304  1.00  0.00     0.192 C 
BRANCH  22  23
HETATM   23  C   UNL     1     -41.595  57.312 -54.649  1.00  0.00     0.070 A 
HETATM   24  O   UNL     1     -42.242  56.708 -55.686  1.00  0.00    -0.325 OA
HETATM   25  C   UNL     1     -41.789  55.425 -55.737  1.00  0.00     0.142 A 
HETATM   26  C   UNL     1     -40.835  55.210 -54.771  1.00  0.00     0.027 A 
HETATM   27  C   UNL     1     -40.712  56.426 -54.063  1.00  0.00     0.036 A 
ENDBRANCH  22  23
ENDBRANCH   2  22
BRANCH   1  28
HETATM   28  C   UNL     1     -42.188  59.797 -50.641  1.00  0.00     0.112 C 
BRANCH  28  29
HETATM   29  C   UNL     1     -42.268  61.307 -50.594  1.00  0.00     0.112 C 
BRANCH  29  30
HETATM   30  C   UNL     1     -43.574  61.779 -49.989  1.00  0.00     0.223 C 
HETATM   31  N   UNL     1     -43.926  61.061 -48.865  1.00  0.00    -0.310 N 
HETATM   32  H   UNL     1     -43.379  60.259 -48.582  1.00  0.00     0.170 HD
HETATM   33  O   UNL     1     -44.177  62.715 -50.501  1.00  0.00    -0.273 OA
BRANCH  31  34
HETATM   34  C   UNL     1     -45.047  61.317 -48.099  1.00  0.00     0.160 A 
HETATM   35  N   UNL     1     -46.142  60.558 -48.028  1.00  0.00    -0.110 NA
HETATM   36  O   UNL     1     -46.997  61.190 -47.148  1.00  0.00    -0.216 OA
HETATM   37  C   UNL     1     -46.417  62.331 -46.700  1.00  0.00     0.078 A 
HETATM   38  C   UNL     1     -47.196  63.135 -45.743  1.00  0.00     0.079 C 
HETATM   39  C   UNL     1     -45.176  62.457 -47.272  1.00  0.00     0.087 A 
ENDBRANCH  31  34
ENDBRANCH  29  30
ENDBRANCH  28  29
ENDBRANCH   1  28
TORSDOF 9
ENDMDL
MODEL 3
REMARK VINA RESULT:      -7.4      2.943      7.817
REMARK  9 active torsions:
REMARK  status: ('A' for Active; 'I' for Inactive)
REMARK    1  A    between atoms: C_5  and  N_6 
REMARK       I    between atoms: N_6  and  C_7 
REMARK    2  A    between atoms: C_7  and  C_8 
REMARK    3  A    between atoms: C_8  and  C_9 
REMARK    4  A    between atoms: C_9  and  C_10 
REMARK       I    between atoms: C_10  and  N_11 
REMARK    5  A    between atoms: N_11  and  C_12 
REMARK    6  A    between atoms: N_11  and  C_29 
REMARK    7  A    between atoms: C_12  and  C_13 
REMARK       I    between atoms: C_13  and  N_14 
REMARK    8  A    between atoms: N_14  and  C_15 
REMARK    9  A    between atoms: C_29  and  C_30 
ROOT
HETATM    1  C   UNL     1     -41.205  56.467 -53.648  1.00  0.00     0.221 C 
HETATM    2  N   UNL     1     -42.182  55.884 -52.831  1.00  0.00    -0.328 N 
HETATM    3  O   UNL     1     -40.724  55.841 -54.603  1.00  0.00    -0.273 OA
ENDROOT
BRANCH   2   4
HETATM    4  C   UNL     1     -42.770  56.433 -51.524  1.00  0.00     0.119 C 
HETATM    5  C   UNL     1     -41.721  57.048 -50.546  1.00  0.00     0.069 C 
HETATM    6  C   UNL     1     -40.685  56.048 -50.096  1.00  0.00     0.237 C 
HETATM    7  N   UNL     1     -41.383  54.998 -49.274  1.00  0.00    -0.075 N 
HETATM    8  H   UNL     1     -41.801  55.473 -48.458  1.00  0.00     0.279 HD
HETATM    9  C   UNL     1     -40.395  54.010 -48.707  1.00  0.00     0.269 C 
HETATM   10  C   UNL     1     -42.498  54.319 -50.022  1.00  0.00     0.237 C 
HETATM   11  C   UNL     1     -43.465  55.339 -50.638  1.00  0.00     0.069 C 
BRANCH   4  12
HETATM   12  C   UNL     1     -43.875  57.525 -51.735  1.00  0.00     0.246 C 
HETATM   13  N   UNL     1     -43.864  58.631 -50.917  1.00  0.00    -0.354 N 
HETATM   14  H   UNL     1     -43.154  58.715 -50.194  1.00  0.00     0.162 HD
HETATM   15  O   UNL     1     -44.598  57.469 -52.730  1.00  0.00    -0.271 OA
BRANCH  13  16
HETATM   16  C   UNL     1     -44.641  59.836 -51.252  1.00  0.00     0.084 C 
HETATM   17  C   UNL     1     -45.641  60.266 -50.160  1.00  0.00     0.025 C 
HETATM   18  C   UNL     1     -45.013  61.014 -48.986  1.00  0.00     0.002 C 
HETATM   19  C   UNL     1     -44.114  62.157 -49.437  1.00  0.00     0.000 C 
HETATM   20  C   UNL     1     -43.071  61.673 -50.435  1.00  0.00     0.002 C 
HETATM   21  C   UNL     1     -43.731  61.009 -51.642  1.00  0.00     0.025 C 
ENDBRANCH  13  16
ENDBRANCH   4  12
ENDBRANCH   2   4
BRANCH   2  22
HETATM   22  C   UNL     1     -42.619  54.563 -53.354  1.00  0.00     0.192 C 
BRANCH  22  23
HETATM   23  C   UNL     1     -41.534  53.545 -53.363  1.00  0.00     0.070 A 
HETATM   24  O   UNL     1     -41.495  52.693 -54.426  1.00  0.00    -0.325 OA
HETATM   25  C   UNL     1     -40.520  51.781 -54.162  1.00  0.00     0.142 A 
HETATM   26  C   UNL     1     -39.909  52.060 -52.963  1.00  0.00     0.027 A 
HETATM   27  C   UNL     1     -40.567  53.196 -52.441  1.00  0.00     0.036 A 
ENDBRANCH  22  23
ENDBRANCH   2  22
BRANCH   1  28
HETATM   28  C   UNL     1     -40.746  57.898 -53.515  1.00  0.00     0.112 C 
BRANCH  28  29
HETATM   29  C   UNL     1     -41.843  58.837 -53.964  1.00  0.00     0.112 C 
BRANCH  29  30
HETATM   30  C   UNL     1     -42.174  58.651 -55.431  1.00  0.00     0.223 C 
HETATM   31  N   UNL     1     -43.076  57.629 -55.645  1.00  0.00    -0.310 N 
HETATM   32  H   UNL     1     -43.374  57.045 -54.875  1.00  0.00     0.170 HD
HETATM   33  O   UNL     1     -41.659  59.384 -56.266  1.00  0.00    -0.273 OA
BRANCH  31  34
HETATM   34  C   UNL     1     -43.576  57.281 -56.884  1.00  0.00     0.160 A 
HETATM   35  N   UNL     1     -44.528  57.927 -57.558  1.00  0.00    -0.110 NA
HETATM   36  O   UNL     1     -44.708  57.234 -58.738  1.00  0.00    -0.216 OA
HETATM   37  C   UNL     1     -43.870  56.168 -58.764  1.00  0.00     0.078 A 
HETATM   38  C   UNL     1     -43.929  55.312 -59.961  1.00  0.00     0.079 C 
HETATM   39  C   UNL     1     -43.128  56.153 -57.611  1.00  0.00     0.087 A 
ENDBRANCH  31  34
ENDBRANCH  29  30
ENDBRANCH  28  29
ENDBRANCH   1  28
TORSDOF 9
ENDMDL
MODEL 4
REMARK VINA RESULT:      -7.4      2.117      6.749
REMARK  9 active torsions:
REMARK  status: ('A' for Active; 'I' for Inactive)
REMARK    1  A    between atoms: C_5  and  N_6 
REMARK       I    between atoms: N_6  and  C_7 
REMARK    2  A    between atoms: C_7  and  C_8 
REMARK    3  A    between atoms: C_8  and  C_9 
REMARK    4  A    between atoms: C_9  and  C_10 
REMARK       I    between atoms: C_10  and  N_11 
REMARK    5  A    between atoms: N_11  and  C_12 
REMARK    6  A    between atoms: N_11  and  C_29 
REMARK    7  A    between atoms: C_12  and  C_13 
REMARK       I    between atoms: C_13  and  N_14 
REMARK    8  A    between atoms: N_14  and  C_15 
REMARK    9  A    between atoms: C_29  and  C_30 
ROOT
HETATM    1  C   UNL     1     -42.435  60.238 -54.470  1.00  0.00     0.221 C 
HETATM    2  N   UNL     1     -42.293  59.816 -53.142  1.00  0.00    -0.328 N 
HETATM    3  O   UNL     1     -43.027  61.293 -54.739  1.00  0.00    -0.273 OA
ENDROOT
BRANCH   2   4
HETATM    4  C   UNL     1     -41.743  58.478 -52.631  1.00  0.00     0.119 C 
HETATM    5  C   UNL     1     -41.735  58.328 -51.077  1.00  0.00     0.069 C 
HETATM    6  C   UNL     1     -40.879  59.366 -50.395  1.00  0.00     0.237 C 
HETATM    7  N   UNL     1     -39.449  59.123 -50.796  1.00  0.00    -0.075 N 
HETATM    8  H   UNL     1     -39.195  58.177 -50.469  1.00  0.00     0.279 HD
HETATM    9  C   UNL     1     -38.518  60.066 -50.076  1.00  0.00     0.269 C 
HETATM   10  C   UNL     1     -39.249  59.155 -52.287  1.00  0.00     0.237 C 
HETATM   11  C   UNL     1     -40.239  58.230 -53.007  1.00  0.00     0.069 C 
BRANCH   4  12
HETATM   12  C   UNL     1     -42.498  57.224 -53.194  1.00  0.00     0.246 C 
HETATM   13  N   UNL     1     -41.751  56.190 -53.709  1.00  0.00    -0.354 N 
HETATM   14  H   UNL     1     -40.737  56.259 -53.722  1.00  0.00     0.162 HD
HETATM   15  O   UNL     1     -43.708  57.106 -52.994  1.00  0.00    -0.271 OA
BRANCH  13  16
HETATM   16  C   UNL     1     -42.347  54.864 -53.948  1.00  0.00     0.084 C 
HETATM   17  C   UNL     1     -41.763  54.121 -55.166  1.00  0.00     0.025 C 
HETATM   18  C   UNL     1     -40.413  53.453 -54.913  1.00  0.00     0.002 C 
HETATM   19  C   UNL     1     -40.412  52.599 -53.652  1.00  0.00     0.000 C 
HETATM   20  C   UNL     1     -40.894  53.398 -52.449  1.00  0.00     0.002 C 
HETATM   21  C   UNL     1     -42.284  53.979 -52.695  1.00  0.00     0.025 C 
ENDBRANCH  13  16
ENDBRANCH   4  12
ENDBRANCH   2   4
BRANCH   2  22
HETATM   22  C   UNL     1     -42.791  60.838 -52.185  1.00  0.00     0.192 C 
BRANCH  22  23
HETATM   23  C   UNL     1     -44.150  60.540 -51.659  1.00  0.00     0.070 A 
HETATM   24  O   UNL     1     -44.310  60.574 -50.305  1.00  0.00    -0.325 OA
HETATM   25  C   UNL     1     -45.577  60.148 -50.050  1.00  0.00     0.142 A 
HETATM   26  C   UNL     1     -46.242  59.878 -51.222  1.00  0.00     0.027 A 
HETATM   27  C   UNL     1     -45.320  60.124 -52.263  1.00  0.00     0.036 A 
ENDBRANCH  22  23
ENDBRANCH   2  22
BRANCH   1  28
HETATM   28  C   UNL     1     -41.805  59.532 -55.646  1.00  0.00     0.112 C 
BRANCH  28  29
HETATM   29  C   UNL     1     -42.097  60.291 -56.922  1.00  0.00     0.112 C 
BRANCH  29  30
HETATM   30  C   UNL     1     -42.850  59.437 -57.921  1.00  0.00     0.223 C 
HETATM   31  N   UNL     1     -42.263  58.202 -58.109  1.00  0.00    -0.310 N 
HETATM   32  H   UNL     1     -41.377  57.988 -57.670  1.00  0.00     0.170 HD
HETATM   33  O   UNL     1     -43.867  59.871 -58.446  1.00  0.00    -0.273 OA
BRANCH  31  34
HETATM   34  C   UNL     1     -42.771  57.217 -58.933  1.00  0.00     0.160 A 
HETATM   35  N   UNL     1     -42.580  57.116 -60.249  1.00  0.00    -0.110 NA
HETATM   36  O   UNL     1     -43.265  55.989 -60.656  1.00  0.00    -0.216 OA
HETATM   37  C   UNL     1     -43.874  55.423 -59.585  1.00  0.00     0.078 A 
HETATM   38  C   UNL     1     -44.655  54.200 -59.840  1.00  0.00     0.079 C 
HETATM   39  C   UNL     1     -43.591  56.163 -58.465  1.00  0.00     0.087 A 
ENDBRANCH  31  34
ENDBRANCH  29  30
ENDBRANCH  28  29
ENDBRANCH   1  28
TORSDOF 9
ENDMDL
MODEL 5
REMARK VINA RESULT:      -7.3      2.089      2.626
REMARK  9 active torsions:
REMARK  status: ('A' for Active; 'I' for Inactive)
REMARK    1  A    between atoms: C_5  and  N_6 
REMARK       I    between atoms: N_6  and  C_7 
REMARK    2  A    between atoms: C_7  and  C_8 
REMARK    3  A    between atoms: C_8  and  C_9 
REMARK    4  A    between atoms: C_9  and  C_10 
REMARK       I    between atoms: C_10  and  N_11 
REMARK    5  A    between atoms: N_11  and  C_12 
REMARK    6  A    between atoms: N_11  and  C_29 
REMARK    7  A    between atoms: C_12  and  C_13 
REMARK       I    between atoms: C_13  and  N_14 
REMARK    8  A    between atoms: N_14  and  C_15 
REMARK    9  A    between atoms: C_29  and  C_30 
ROOT
HETATM    1  C   UNL     1     -45.393  58.751 -56.953  1.00  0.00     0.221 C 
HETATM    2  N   UNL     1     -44.433  58.497 -57.940  1.00  0.00    -0.328 N 
HETATM    3  O   UNL     1     -46.513  59.187 -57.257  1.00  0.00    -0.273 OA
ENDROOT
BRANCH   2   4
HETATM    4  C   UNL     1     -42.959  58.116 -57.748  1.00  0.00     0.119 C 
HETATM    5  C   UNL     1     -42.229  58.892 -56.607  1.00  0.00     0.069 C 
HETATM    6  C   UNL     1     -42.201  60.382 -56.840  1.00  0.00     0.237 C 
HETATM    7  N   UNL     1     -41.358  60.643 -58.059  1.00  0.00    -0.075 N 
HETATM    8  H   UNL     1     -40.408  60.294 -57.857  1.00  0.00     0.279 HD
HETATM    9  C   UNL     1     -41.203  62.124 -58.302  1.00  0.00     0.269 C 
HETATM   10  C   UNL     1     -41.858  59.917 -59.278  1.00  0.00     0.237 C 
HETATM   11  C   UNL     1     -42.061  58.422 -58.999  1.00  0.00     0.069 C 
BRANCH   4  12
HETATM   12  C   UNL     1     -42.729  56.591 -57.466  1.00  0.00     0.246 C 
HETATM   13  N   UNL     1     -42.167  56.228 -56.264  1.00  0.00    -0.354 N 
HETATM   14  H   UNL     1     -41.906  56.945 -55.593  1.00  0.00     0.162 HD
HETATM   15  O   UNL     1     -43.222  55.755 -58.224  1.00  0.00    -0.271 OA
BRANCH  13  16
HETATM   16  C   UNL     1     -42.220  54.835 -55.787  1.00  0.00     0.084 C 
HETATM   17  C   UNL     1     -40.890  54.317 -55.204  1.00  0.00     0.025 C 
HETATM   18  C   UNL     1     -40.602  54.780 -53.777  1.00  0.00     0.002 C 
HETATM   19  C   UNL     1     -41.779  54.550 -52.840  1.00  0.00     0.000 C 
HETATM   20  C   UNL     1     -43.054  55.168 -53.399  1.00  0.00     0.002 C 
HETATM   21  C   UNL     1     -43.367  54.620 -54.790  1.00  0.00     0.025 C 
ENDBRANCH  13  16
ENDBRANCH   4  12
ENDBRANCH   2   4
BRANCH   2  22
HETATM   22  C   UNL     1     -44.991  58.672 -59.307  1.00  0.00     0.192 C 
BRANCH  22  23
HETATM   23  C   UNL     1     -45.577  57.425 -59.868  1.00  0.00     0.070 A 
HETATM   24  O   UNL     1     -44.752  56.633 -60.609  1.00  0.00    -0.325 OA
HETATM   25  C   UNL     1     -45.522  55.635 -61.120  1.00  0.00     0.142 A 
HETATM   26  C   UNL     1     -46.821  55.755 -60.686  1.00  0.00     0.027 A 
HETATM   27  C   UNL     1     -46.860  56.915 -59.881  1.00  0.00     0.036 A 
ENDBRANCH  22  23
ENDBRANCH   2  22
BRANCH   1  28
HETATM   28  C   UNL     1     -45.201  58.424 -55.492  1.00  0.00     0.112 C 
BRANCH  28  29
HETATM   29  C   UNL     1     -45.314  59.683 -54.661  1.00  0.00     0.112 C 
BRANCH  29  30
HETATM   30  C   UNL     1     -45.028  59.415 -53.198  1.00  0.00     0.223 C 
HETATM   31  N   UNL     1     -45.838  60.150 -52.357  1.00  0.00    -0.310 N 
HETATM   32  H   UNL     1     -46.468  60.844 -52.737  1.00  0.00     0.170 HD
HETATM   33  O   UNL     1     -44.163  58.606 -52.887  1.00  0.00    -0.273 OA
BRANCH  31  34
HETATM   34  C   UNL     1     -45.812  60.062 -50.979  1.00  0.00     0.160 A 
HETATM   35  N   UNL     1     -46.286  59.053 -50.246  1.00  0.00    -0.110 NA
HETATM   36  O   UNL     1     -46.048  59.385 -48.928  1.00  0.00    -0.216 OA
HETATM   37  C   UNL     1     -45.440  60.596 -48.872  1.00  0.00     0.078 A 
HETATM   38  C   UNL     1     -45.110  61.107 -47.531  1.00  0.00     0.079 C 
HETATM   39  C   UNL     1     -45.266  61.068 -50.148  1.00  0.00     0.087 A 
ENDBRANCH  31  34
ENDBRANCH  29  30
ENDBRANCH  28  29
ENDBRANCH   1  28
TORSDOF 9
ENDMDL
MODEL 6
REMARK VINA RESULT:      -7.2      1.940      7.116
REMARK  9 active torsions:
REMARK  status: ('A' for Active; 'I' for Inactive)
REMARK    1  A    between atoms: C_5  and  N_6 
REMARK       I    between atoms: N_6  and  C_7 
REMARK    2  A    between atoms: C_7  and  C_8 
REMARK    3  A    between atoms: C_8  and  C_9 
REMARK    4  A    between atoms: C_9  and  C_10 
REMARK       I    between atoms: C_10  and  N_11 
REMARK    5  A    between atoms: N_11  and  C_12 
REMARK    6  A    between atoms: N_11  and  C_29 
REMARK    7  A    between atoms: C_12  and  C_13 
REMARK       I    between atoms: C_13  and  N_14 
REMARK    8  A    between atoms: N_14  and  C_15 
REMARK    9  A    between atoms: C_29  and  C_30 
ROOT
HETATM    1  C   UNL     1     -42.424  59.258 -56.280  1.00  0.00     0.221 C 
HETATM    2  N   UNL     1     -43.155  59.575 -55.127  1.00  0.00    -0.328 N 
HETATM    3  O   UNL     1     -41.411  59.903 -56.583  1.00  0.00    -0.273 OA
ENDROOT
BRANCH   2   4
HETATM    4  C   UNL     1     -44.508  59.004 -54.681  1.00  0.00     0.119 C 
HETATM    5  C   UNL     1     -45.477  58.638 -55.848  1.00  0.00     0.069 C 
HETATM    6  C   UNL     1     -45.839  59.828 -56.701  1.00  0.00     0.237 C 
HETATM    7  N   UNL     1     -46.632  60.782 -55.850  1.00  0.00    -0.075 N 
HETATM    8  H   UNL     1     -47.485  60.287 -55.545  1.00  0.00     0.279 HD
HETATM    9  C   UNL     1     -47.114  61.959 -56.662  1.00  0.00     0.269 C 
HETATM   10  C   UNL     1     -45.892  61.212 -54.613  1.00  0.00     0.237 C 
HETATM   11  C   UNL     1     -45.363  60.005 -53.826  1.00  0.00     0.069 C 
BRANCH   4  12
HETATM   12  C   UNL     1     -44.391  57.724 -53.782  1.00  0.00     0.246 C 
HETATM   13  N   UNL     1     -43.642  56.668 -54.245  1.00  0.00    -0.354 N 
HETATM   14  H   UNL     1     -43.189  56.732 -55.153  1.00  0.00     0.162 HD
HETATM   15  O   UNL     1     -44.802  57.761 -52.621  1.00  0.00    -0.271 OA
BRANCH  13  16
HETATM   16  C   UNL     1     -43.213  55.584 -53.345  1.00  0.00     0.084 C 
HETATM   17  C   UNL     1     -43.353  54.172 -53.946  1.00  0.00     0.025 C 
HETATM   18  C   UNL     1     -42.242  53.784 -54.920  1.00  0.00     0.002 C 
HETATM   19  C   UNL     1     -40.853  54.041 -54.350  1.00  0.00     0.000 C 
HETATM   20  C   UNL     1     -40.717  55.477 -53.863  1.00  0.00     0.002 C 
HETATM   21  C   UNL     1     -41.787  55.809 -52.824  1.00  0.00     0.025 C 
ENDBRANCH  13  16
ENDBRANCH   4  12
ENDBRANCH   2   4
BRANCH   2  22
HETATM   22  C   UNL     1     -42.477  60.620 -54.317  1.00  0.00     0.192 C 
BRANCH  22  23
HETATM   23  C   UNL     1     -41.743  60.072 -53.145  1.00  0.00     0.070 A 
HETATM   24  O   UNL     1     -40.542  59.475 -53.392  1.00  0.00    -0.325 OA
HETATM   25  C   UNL     1     -40.121  58.941 -52.213  1.00  0.00     0.142 A 
HETATM   26  C   UNL     1     -41.016  59.220 -51.208  1.00  0.00     0.027 A 
HETATM   27  C   UNL     1     -42.068  59.945 -51.809  1.00  0.00     0.036 A 
ENDBRANCH  22  23
ENDBRANCH   2  22
BRANCH   1  28
HETATM   28  C   UNL     1     -42.727  58.075 -57.166  1.00  0.00     0.112 C 
BRANCH  28  29
HETATM   29  C   UNL     1     -42.269  58.357 -58.580  1.00  0.00     0.112 C 
BRANCH  29  30
HETATM   30  C   UNL     1     -43.125  57.634 -59.600  1.00  0.00     0.223 C 
HETATM   31  N   UNL     1     -44.439  57.515 -59.198  1.00  0.00    -0.310 N 
HETATM   32  H   UNL     1     -44.717  57.815 -58.273  1.00  0.00     0.170 HD
HETATM   33  O   UNL     1     -42.622  57.245 -60.647  1.00  0.00    -0.273 OA
BRANCH  31  34
HETATM   34  C   UNL     1     -45.436  56.937 -59.961  1.00  0.00     0.160 A 
HETATM   35  N   UNL     1     -45.542  55.644 -60.267  1.00  0.00    -0.110 NA
HETATM   36  O   UNL     1     -46.680  55.519 -61.038  1.00  0.00    -0.216 OA
HETATM   37  C   UNL     1     -47.249  56.740 -61.200  1.00  0.00     0.078 A 
HETATM   38  C   UNL     1     -48.483  56.792 -62.002  1.00  0.00     0.079 C 
HETATM   39  C   UNL     1     -46.498  57.675 -60.534  1.00  0.00     0.087 A 
ENDBRANCH  31  34
ENDBRANCH  29  30
ENDBRANCH  28  29
ENDBRANCH   1  28
TORSDOF 9
ENDMDL
MODEL 7
REMARK VINA RESULT:      -7.1      2.026      6.957
REMARK  9 active torsions:
REMARK  status: ('A' for Active; 'I' for Inactive)
REMARK    1  A    between atoms: C_5  and  N_6 
REMARK       I    between atoms: N_6  and  C_7 
REMARK    2  A    between atoms: C_7  and  C_8 
REMARK    3  A    between atoms: C_8  and  C_9 
REMARK    4  A    between atoms: C_9  and  C_10 
REMARK       I    between atoms: C_10  and  N_11 
REMARK    5  A    between atoms: N_11  and  C_12 
REMARK    6  A    between atoms: N_11  and  C_29 
REMARK    7  A    between atoms: C_12  and  C_13 
REMARK       I    between atoms: C_13  and  N_14 
REMARK    8  A    between atoms: N_14  and  C_15 
REMARK    9  A    between atoms: C_29  and  C_30 
ROOT
HETATM    1  C   UNL     1     -41.970  59.352 -54.267  1.00  0.00     0.221 C 
HETATM    2  N   UNL     1     -42.953  59.018 -53.327  1.00  0.00    -0.328 N 
HETATM    3  O   UNL     1     -40.951  59.967 -53.925  1.00  0.00    -0.273 OA
ENDROOT
BRANCH   2   4
HETATM    4  C   UNL     1     -44.339  58.411 -53.585  1.00  0.00     0.119 C 
HETATM    5  C   UNL     1     -45.233  59.224 -54.571  1.00  0.00     0.069 C 
HETATM    6  C   UNL     1     -45.526  60.620 -54.079  1.00  0.00     0.237 C 
HETATM    7  N   UNL     1     -46.362  60.504 -52.833  1.00  0.00    -0.075 N 
HETATM    8  H   UNL     1     -47.238  60.025 -53.094  1.00  0.00     0.279 HD
HETATM    9  C   UNL     1     -46.777  61.865 -52.332  1.00  0.00     0.269 C 
HETATM   10  C   UNL     1     -45.699  59.682 -51.761  1.00  0.00     0.237 C 
HETATM   11  C   UNL     1     -45.236  58.322 -52.300  1.00  0.00     0.069 C 
BRANCH   4  12
HETATM   12  C   UNL     1     -44.295  56.942 -54.132  1.00  0.00     0.246 C 
HETATM   13  N   UNL     1     -43.241  56.140 -53.765  1.00  0.00    -0.354 N 
HETATM   14  H   UNL     1     -42.513  56.511 -53.159  1.00  0.00     0.162 HD
HETATM   15  O   UNL     1     -45.282  56.482 -54.711  1.00  0.00    -0.271 OA
BRANCH  13  16
HETATM   16  C   UNL     1     -43.289  54.680 -53.956  1.00  0.00     0.084 C 
HETATM   17  C   UNL     1     -42.696  54.199 -55.295  1.00  0.00     0.025 C 
HETATM   18  C   UNL     1     -41.170  54.138 -55.326  1.00  0.00     0.002 C 
HETATM   19  C   UNL     1     -40.592  53.393 -54.131  1.00  0.00     0.000 C 
HETATM   20  C   UNL     1     -41.119  53.966 -52.821  1.00  0.00     0.002 C 
HETATM   21  C   UNL     1     -42.645  53.932 -52.780  1.00  0.00     0.025 C 
ENDBRANCH  13  16
ENDBRANCH   4  12
ENDBRANCH   2   4
BRANCH   2  22
HETATM   22  C   UNL     1     -42.528  59.359 -51.944  1.00  0.00     0.192 C 
BRANCH  22  23
HETATM   23  C   UNL     1     -41.832  58.241 -51.251  1.00  0.00     0.070 A 
HETATM   24  O   UNL     1     -42.586  57.154 -50.921  1.00  0.00    -0.325 OA
HETATM   25  C   UNL     1     -41.786  56.329 -50.192  1.00  0.00     0.142 A 
HETATM   26  C   UNL     1     -40.521  56.856 -50.081  1.00  0.00     0.027 A 
HETATM   27  C   UNL     1     -40.550  58.095 -50.759  1.00  0.00     0.036 A 
ENDBRANCH  22  23
ENDBRANCH   2  22
BRANCH   1  28
HETATM   28  C   UNL     1     -42.005  58.911 -55.710  1.00  0.00     0.112 C 
BRANCH  28  29
HETATM   29  C   UNL     1     -42.603  60.002 -56.570  1.00  0.00     0.112 C 
BRANCH  29  30
HETATM   30  C   UNL     1     -43.305  59.434 -57.787  1.00  0.00     0.223 C 
HETATM   31  N   UNL     1     -43.759  58.148 -57.583  1.00  0.00    -0.310 N 
HETATM   32  H   UNL     1     -43.535  57.659 -56.726  1.00  0.00     0.170 HD
HETATM   33  O   UNL     1     -43.422  60.120 -58.795  1.00  0.00    -0.273 OA
BRANCH  31  34
HETATM   34  C   UNL     1     -44.470  57.417 -58.515  1.00  0.00     0.160 A 
HETATM   35  N   UNL     1     -45.781  57.497 -58.745  1.00  0.00    -0.110 NA
HETATM   36  O   UNL     1     -46.055  56.596 -59.754  1.00  0.00    -0.216 OA
HETATM   37  C   UNL     1     -44.908  55.971 -60.121  1.00  0.00     0.078 A 
HETATM   38  C   UNL     1     -45.017  54.969 -61.195  1.00  0.00     0.079 C 
HETATM   39  C   UNL     1     -43.871  56.457 -59.365  1.00  0.00     0.087 A 
ENDBRANCH  31  34
ENDBRANCH  29  30
ENDBRANCH  28  29
ENDBRANCH   1  28
TORSDOF 9
ENDMDL
MODEL 8
REMARK VINA RESULT:      -7.1      2.833      6.756
REMARK  9 active torsions:
REMARK  status: ('A' for Active; 'I' for Inactive)
REMARK    1  A    between atoms: C_5  and  N_6 
REMARK       I    between atoms: N_6  and  C_7 
REMARK    2  A    between atoms: C_7  and  C_8 
REMARK    3  A    between atoms: C_8  and  C_9 
REMARK    4  A    between atoms: C_9  and  C_10 
REMARK       I    between atoms: C_10  and  N_11 
REMARK    5  A    between atoms: N_11  and  C_12 
REMARK    6  A    between atoms: N_11  and  C_29 
REMARK    7  A    between atoms: C_12  and  C_13 
REMARK       I    between atoms: C_13  and  N_14 
REMARK    8  A    between atoms: N_14  and  C_15 
REMARK    9  A    between atoms: C_29  and  C_30 
ROOT
HETATM    1  C   UNL     1     -41.910  57.196 -54.341  1.00  0.00     0.221 C 
HETATM    2  N   UNL     1     -42.215  58.478 -54.814  1.00  0.00    -0.328 N 
HETATM    3  O   UNL     1     -40.912  57.004 -53.633  1.00  0.00    -0.273 OA
ENDROOT
BRANCH   2   4
HETATM    4  C   UNL     1     -43.301  58.879 -55.822  1.00  0.00     0.119 C 
HETATM    5  C   UNL     1     -43.620  60.406 -55.863  1.00  0.00     0.069 C 
HETATM    6  C   UNL     1     -44.126  60.933 -54.543  1.00  0.00     0.237 C 
HETATM    7  N   UNL     1     -45.457  60.286 -54.267  1.00  0.00    -0.075 N 
HETATM    8  H   UNL     1     -46.096  60.559 -55.030  1.00  0.00     0.279 HD
HETATM    9  C   UNL     1     -46.074  60.836 -53.005  1.00  0.00     0.269 C 
HETATM   10  C   UNL     1     -45.382  58.784 -54.255  1.00  0.00     0.237 C 
HETATM   11  C   UNL     1     -44.705  58.244 -55.521  1.00  0.00     0.069 C 
BRANCH   4  12
HETATM   12  C   UNL     1     -42.987  58.451 -57.297  1.00  0.00     0.246 C 
HETATM   13  N   UNL     1     -43.879  57.627 -57.941  1.00  0.00    -0.354 N 
HETATM   14  H   UNL     1     -44.711  57.307 -57.453  1.00  0.00     0.162 HD
HETATM   15  O   UNL     1     -42.068  59.004 -57.904  1.00  0.00    -0.271 OA
BRANCH  13  16
HETATM   16  C   UNL     1     -43.835  57.448 -59.402  1.00  0.00     0.084 C 
HETATM   17  C   UNL     1     -43.211  56.114 -59.857  1.00  0.00     0.025 C 
HETATM   18  C   UNL     1     -44.145  54.910 -59.751  1.00  0.00     0.002 C 
HETATM   19  C   UNL     1     -45.502  55.167 -60.392  1.00  0.00     0.000 C 
HETATM   20  C   UNL     1     -46.136  56.437 -59.840  1.00  0.00     0.002 C 
HETATM   21  C   UNL     1     -45.218  57.642 -60.040  1.00  0.00     0.025 C 
ENDBRANCH  13  16
ENDBRANCH   4  12
ENDBRANCH   2   4
BRANCH   2  22
HETATM   22  C   UNL     1     -41.308  59.506 -54.240  1.00  0.00     0.192 C 
BRANCH  22  23
HETATM   23  C   UNL     1     -41.398  59.609 -52.758  1.00  0.00     0.070 A 
HETATM   24  O   UNL     1     -40.227  59.551 -52.062  1.00  0.00    -0.325 OA
HETATM   25  C   UNL     1     -40.556  59.533 -50.742  1.00  0.00     0.142 A 
HETATM   26  C   UNL     1     -41.919  59.616 -50.582  1.00  0.00     0.027 A 
HETATM   27  C   UNL     1     -42.466  59.659 -51.884  1.00  0.00     0.036 A 
ENDBRANCH  22  23
ENDBRANCH   2  22
BRANCH   1  28
HETATM   28  C   UNL     1     -42.796  55.992 -54.549  1.00  0.00     0.112 C 
BRANCH  28  29
HETATM   29  C   UNL     1     -43.353  55.524 -53.223  1.00  0.00     0.112 C 
BRANCH  29  30
HETATM   30  C   UNL     1     -42.686  54.246 -52.756  1.00  0.00     0.223 C 
HETATM   31  N   UNL     1     -41.609  53.894 -53.544  1.00  0.00    -0.310 N 
HETATM   32  H   UNL     1     -41.397  54.421 -54.381  1.00  0.00     0.170 HD
HETATM   33  O   UNL     1     -43.115  53.663 -51.769  1.00  0.00    -0.273 OA
BRANCH  31  34
HETATM   34  C   UNL     1     -40.802  52.797 -53.311  1.00  0.00     0.160 A 
HETATM   35  N   UNL     1     -40.064  52.580 -52.222  1.00  0.00    -0.110 NA
HETATM   36  O   UNL     1     -39.427  51.371 -52.418  1.00  0.00    -0.216 OA
HETATM   37  C   UNL     1     -39.777  50.871 -53.629  1.00  0.00     0.078 A 
HETATM   38  C   UNL     1     -39.186  49.575 -54.003  1.00  0.00     0.079 C 
HETATM   39  C   UNL     1     -40.650  51.737 -54.236  1.00  0.00     0.087 A 
ENDBRANCH  31  34
ENDBRANCH  29  30
ENDBRANCH  28  29
ENDBRANCH   1  28
TORSDOF 9
ENDMDL
MODEL 9
REMARK VINA RESULT:      -7.0      3.389      6.254
REMARK  9 active torsions:
REMARK  status: ('A' for Active; 'I' for Inactive)
REMARK    1  A    between atoms: C_5  and  N_6 
REMARK       I    between atoms: N_6  and  C_7 
REMARK    2  A    between atoms: C_7  and  C_8 
REMARK    3  A    between atoms: C_8  and  C_9 
REMARK    4  A    between atoms: C_9  and  C_10 
REMARK       I    between atoms: C_10  and  N_11 
REMARK    5  A    between atoms: N_11  and  C_12 
REMARK    6  A    between atoms: N_11  and  C_29 
REMARK    7  A    between atoms: C_12  and  C_13 
REMARK       I    between atoms: C_13  and  N_14 
REMARK    8  A    between atoms: N_14  and  C_15 
REMARK    9  A    between atoms: C_29  and  C_30 
ROOT
HETATM    1  C   UNL     1     -44.119  60.455 -53.439  1.00  0.00     0.221 C 
HETATM    2  N   UNL     1     -43.272  59.378 -53.728  1.00  0.00    -0.328 N 
HETATM    3  O   UNL     1     -43.654  61.557 -53.118  1.00  0.00    -0.273 OA
ENDROOT
BRANCH   2   4
HETATM    4  C   UNL     1     -43.659  57.915 -53.982  1.00  0.00     0.119 C 
HETATM    5  C   UNL     1     -42.624  57.103 -54.822  1.00  0.00     0.069 C 
HETATM    6  C   UNL     1     -42.413  57.676 -56.201  1.00  0.00     0.237 C 
HETATM    7  N   UNL     1     -43.701  57.529 -56.964  1.00  0.00    -0.075 N 
HETATM    8  H   UNL     1     -43.911  56.520 -57.024  1.00  0.00     0.279 HD
HETATM    9  C   UNL     1     -43.542  57.995 -58.390  1.00  0.00     0.269 C 
HETATM   10  C   UNL     1     -44.864  58.192 -56.277  1.00  0.00     0.237 C 
HETATM   11  C   UNL     1     -44.981  57.748 -54.813  1.00  0.00     0.069 C 
BRANCH   4  12
HETATM   12  C   UNL     1     -43.914  57.090 -52.674  1.00  0.00     0.246 C 
HETATM   13  N   UNL     1     -43.108  56.004 -52.419  1.00  0.00    -0.354 N 
HETATM   14  H   UNL     1     -42.377  55.755 -53.079  1.00  0.00     0.162 HD
HETATM   15  O   UNL     1     -44.686  57.531 -51.821  1.00  0.00    -0.271 OA
BRANCH  13  16
HETATM   16  C   UNL     1     -43.060  55.386 -51.083  1.00  0.00     0.084 C 
HETATM   17  C   UNL     1     -42.877  53.856 -51.102  1.00  0.00     0.025 C 
HETATM   18  C   UNL     1     -41.443  53.393 -51.353  1.00  0.00     0.002 C 
HETATM   19  C   UNL     1     -40.438  54.089 -50.446  1.00  0.00     0.000 C 
HETATM   20  C   UNL     1     -40.578  55.603 -50.534  1.00  0.00     0.002 C 
HETATM   21  C   UNL     1     -41.999  56.046 -50.190  1.00  0.00     0.025 C 
ENDBRANCH  13  16
ENDBRANCH   4  12
ENDBRANCH   2   4
BRANCH   2  22
HETATM   22  C   UNL     1     -41.844  59.790 -53.739  1.00  0.00     0.192 C 
BRANCH  22  23
HETATM   23  C   UNL     1     -41.180  59.644 -52.416  1.00  0.00     0.070 A 
HETATM   24  O   UNL     1     -39.855  59.322 -52.422  1.00  0.00    -0.325 OA
HETATM   25  C   UNL     1     -39.497  59.116 -51.125  1.00  0.00     0.142 A 
HETATM   26  C   UNL     1     -40.563  59.338 -50.287  1.00  0.00     0.027 A 
HETATM   27  C   UNL     1     -41.654  59.674 -51.119  1.00  0.00     0.036 A 
ENDBRANCH  22  23
ENDBRANCH   2  22
BRANCH   1  28
HETATM   28  C   UNL     1     -45.620  60.407 -53.594  1.00  0.00     0.112 C 
BRANCH  28  29
HETATM   29  C   UNL     1     -46.266  61.445 -52.703  1.00  0.00     0.112 C 
BRANCH  29  30
HETATM   30  C   UNL     1     -46.327  60.984 -51.261  1.00  0.00     0.223 C 
HETATM   31  N   UNL     1     -45.981  61.981 -50.372  1.00  0.00    -0.310 N 
HETATM   32  H   UNL     1     -45.644  62.872 -50.713  1.00  0.00     0.170 HD
HETATM   33  O   UNL     1     -46.670  59.837 -51.005  1.00  0.00    -0.273 OA
BRANCH  31  34
HETATM   34  C   UNL     1     -45.997  61.838 -48.998  1.00  0.00     0.160 A 
HETATM   35  N   UNL     1     -47.006  62.151 -48.186  1.00  0.00    -0.110 NA
HETATM   36  O   UNL     1     -46.587  61.842 -46.908  1.00  0.00    -0.216 OA
HETATM   37  C   UNL     1     -45.322  61.354 -46.956  1.00  0.00     0.078 A 
HETATM   38  C   UNL     1     -44.714  60.970 -45.671  1.00  0.00     0.079 C 
HETATM   39  C   UNL     1     -44.901  61.328 -48.261  1.00  0.00     0.087 A 
ENDBRANCH  31  34
ENDBRANCH  29  30
ENDBRANCH  28  29
ENDBRANCH   1  28
TORSDOF 9
ENDMDL
MODEL 10
REMARK VINA RESULT:      -6.9      3.625      5.723
REMARK  9 active torsions:
REMARK  status: ('A' for Active; 'I' for Inactive)
REMARK    1  A    between atoms: C_5  and  N_6 
REMARK       I    between atoms: N_6  and  C_7 
REMARK    2  A    between atoms: C_7  and  C_8 
REMARK    3  A    between atoms: C_8  and  C_9 
REMARK    4  A    between atoms: C_9  and  C_10 
REMARK       I    between atoms: C_10  and  N_11 
REMARK    5  A    between atoms: N_11  and  C_12 
REMARK    6  A    between atoms: N_11  and  C_29 
REMARK    7  A    between atoms: C_12  and  C_13 
REMARK       I    between atoms: C_13  and  N_14 
REMARK    8  A    between atoms: N_14  and  C_15 
REMARK    9  A    between atoms: C_29  and  C_30 
ROOT
HETATM    1  C   UNL     1     -43.698  60.348 -52.674  1.00  0.00     0.221 C 
HETATM    2  N   UNL     1     -42.601  59.616 -53.145  1.00  0.00    -0.328 N 
HETATM    3  O   UNL     1     -43.974  61.455 -53.157  1.00  0.00    -0.273 OA
ENDROOT
BRANCH   2   4
HETATM    4  C   UNL     1     -42.015  58.320 -52.569  1.00  0.00     0.119 C 
HETATM    5  C   UNL     1     -41.987  58.253 -51.011  1.00  0.00     0.069 C 
HETATM    6  C   UNL     1     -41.150  59.345 -50.394  1.00  0.00     0.237 C 
HETATM    7  N   UNL     1     -39.719  59.114 -50.797  1.00  0.00    -0.075 N 
HETATM    8  H   UNL     1     -39.439  58.194 -50.423  1.00  0.00     0.279 HD
HETATM    9  C   UNL     1     -38.803  60.116 -50.139  1.00  0.00     0.269 C 
HETATM   10  C   UNL     1     -39.534  59.072 -52.289  1.00  0.00     0.237 C 
HETATM   11  C   UNL     1     -40.509  58.087 -52.949  1.00  0.00     0.069 C 
BRANCH   4  12
HETATM   12  C   UNL     1     -42.745  57.021 -53.057  1.00  0.00     0.246 C 
HETATM   13  N   UNL     1     -41.993  56.033 -53.648  1.00  0.00    -0.354 N 
HETATM   14  H   UNL     1     -40.991  56.163 -53.764  1.00  0.00     0.162 HD
HETATM   15  O   UNL     1     -43.919  56.830 -52.737  1.00  0.00    -0.271 OA
BRANCH  13  16
HETATM   16  C   UNL     1     -42.528  54.673 -53.830  1.00  0.00     0.084 C 
HETATM   17  C   UNL     1     -41.963  53.931 -55.058  1.00  0.00     0.025 C 
HETATM   18  C   UNL     1     -40.569  53.340 -54.854  1.00  0.00     0.002 C 
HETATM   19  C   UNL     1     -40.465  52.518 -53.577  1.00  0.00     0.000 C 
HETATM   20  C   UNL     1     -40.932  53.320 -52.370  1.00  0.00     0.002 C 
HETATM   21  C   UNL     1     -42.362  53.823 -52.562  1.00  0.00     0.025 C 
ENDBRANCH  13  16
ENDBRANCH   4  12
ENDBRANCH   2   4
BRANCH   2  22
HETATM   22  C   UNL     1     -41.974  60.264 -54.326  1.00  0.00     0.192 C 
BRANCH  22  23
HETATM   23  C   UNL     1     -42.330  59.611 -55.614  1.00  0.00     0.070 A 
HETATM   24  O   UNL     1     -41.561  59.919 -56.697  1.00  0.00    -0.325 OA
HETATM   25  C   UNL     1     -42.140  59.319 -57.772  1.00  0.00     0.142 A 
HETATM   26  C   UNL     1     -43.248  58.602 -57.388  1.00  0.00     0.027 A 
HETATM   27  C   UNL     1     -43.377  58.794 -55.995  1.00  0.00     0.036 A 
ENDBRANCH  22  23
ENDBRANCH   2  22
BRANCH   1  28
HETATM   28  C   UNL     1     -44.678  59.827 -51.651  1.00  0.00     0.112 C 
BRANCH  28  29
HETATM   29  C   UNL     1     -45.921  60.689 -51.638  1.00  0.00     0.112 C 
BRANCH  29  30
HETATM   30  C   UNL     1     -46.110  61.378 -50.302  1.00  0.00     0.223 C 
HETATM   31  N   UNL     1     -45.746  60.578 -49.239  1.00  0.00    -0.310 N 
HETATM   32  H   UNL     1     -45.479  59.615 -49.395  1.00  0.00     0.170 HD
HETATM   33  O   UNL     1     -46.533  62.527 -50.267  1.00  0.00    -0.273 OA
BRANCH  31  34
HETATM   34  C   UNL     1     -45.780  60.979 -47.917  1.00  0.00     0.160 A 
HETATM   35  N   UNL     1     -46.867  61.328 -47.228  1.00  0.00    -0.110 NA
HETATM   36  O   UNL     1     -46.436  61.651 -45.958  1.00  0.00    -0.216 OA
HETATM   37  C   UNL     1     -45.089  61.505 -45.891  1.00  0.00     0.078 A 
HETATM   38  C   UNL     1     -44.456  61.809 -44.596  1.00  0.00     0.079 C 
HETATM   39  C   UNL     1     -44.623  61.078 -47.109  1.00  0.00     0.087 A 
ENDBRANCH  31  34
ENDBRANCH  29  30
ENDBRANCH  28  29
ENDBRANCH   1  28
TORSDOF 9
ENDMDL
