MODEL 1
REMARK VINA RESULT:      -8.6      0.000      0.000
REMARK  6 active torsions:
REMARK  status: ('A' for Active; 'I' for Inactive)
REMARK    1  A    between atoms: C_8  and  C_9 
REMARK    2  A    between atoms: C_9  and  C_10 
REMARK    3  A    between atoms: C_10  and  N_11 
REMARK    4  A    between atoms: C_10  and  C_19 
REMARK       I    between atoms: N_11  and  C_12 
REMARK    5  A    between atoms: C_12  and  C_13 
REMARK       I    between atoms: C_19  and  N_20 
REMARK    6  A    between atoms: N_20  and  C_21 
ROOT
HETATM    1  C   UNL     1     -41.912  55.072 -54.199  1.00  0.00     0.181 C 
ENDROOT
BRANCH   1   2
HETATM    2  C   UNL     1     -40.478  54.515 -54.098  1.00  0.00     0.075 C 
BRANCH   2   3
HETATM    3  C   UNL     1     -40.251  53.533 -52.985  1.00  0.00    -0.028 A 
HETATM    4  C   UNL     1     -40.003  52.127 -53.128  1.00  0.00    -0.002 A 
HETATM    5  C   UNL     1     -39.867  51.257 -54.230  1.00  0.00     0.014 A 
HETATM    6  C   UNL     1     -39.892  51.590 -51.845  1.00  0.00     0.042 A 
HETATM    7  C   UNL     1     -39.634  49.894 -54.011  1.00  0.00     0.001 A 
HETATM    8  C   UNL     1     -39.538  49.390 -52.717  1.00  0.00     0.002 A 
HETATM    9  C   UNL     1     -39.664  50.229 -51.607  1.00  0.00     0.030 A 
HETATM   10  N   UNL     1     -40.040  52.628 -50.957  1.00  0.00    -0.365 N 
HETATM   11  H   UNL     1     -40.002  52.533 -49.951  1.00  0.00     0.165 HD
HETATM   12  C   UNL     1     -40.238  53.803 -51.631  1.00  0.00     0.096 A 
ENDBRANCH   2   3
ENDBRANCH   1   2
BRANCH   1  13
HETATM   13  N   UNL     1     -42.174  55.695 -55.498  1.00  0.00    -0.343 N 
HETATM   14  C   UNL     1     -42.945  55.120 -56.477  1.00  0.00     0.259 C 
HETATM   15  O   UNL     1     -43.493  54.034 -56.296  1.00  0.00    -0.267 OA
HETATM   16  H   UNL     1     -41.822  56.639 -55.636  1.00  0.00     0.163 HD
BRANCH  14  17
HETATM   17  C   UNL     1     -43.044  55.862 -57.726  1.00  0.00     0.072 A 
HETATM   18  S   UNL     1     -42.583  57.510 -57.858  1.00  0.00    -0.097 SA
HETATM   19  C   UNL     1     -42.965  57.560 -59.522  1.00  0.00     0.050 A 
HETATM   20  C   UNL     1     -43.437  56.351 -59.980  1.00  0.00     0.009 A 
HETATM   21  C   UNL     1     -43.486  55.374 -58.944  1.00  0.00     0.025 A 
ENDBRANCH  14  17
ENDBRANCH   1  13
BRANCH   1  22
HETATM   22  C   UNL     1     -42.281  56.122 -53.114  1.00  0.00     0.245 C 
HETATM   23  N   UNL     1     -41.414  57.195 -53.013  1.00  0.00    -0.324 N 
HETATM   24  H   UNL     1     -40.711  57.299 -53.733  1.00  0.00     0.169 HD
HETATM   25  O   UNL     1     -43.259  55.940 -52.386  1.00  0.00    -0.271 OA
BRANCH  23  26
HETATM   26  C   UNL     1     -41.531  58.287 -52.126  1.00  0.00     0.052 A 
HETATM   27  C   UNL     1     -42.378  59.380 -52.296  1.00  0.00     0.145 A 
HETATM   28  N   UNL     1     -42.466  60.419 -51.425  1.00  0.00    -0.271 NA
HETATM   29  C   UNL     1     -41.671  60.374 -50.337  1.00  0.00     0.116 A 
HETATM   30  C   UNL     1     -40.797  59.335 -50.073  1.00  0.00     0.021 A 
HETATM   31  C   UNL     1     -40.732  58.278 -50.979  1.00  0.00     0.032 A 
ENDBRANCH  23  26
ENDBRANCH   1  22
TORSDOF 6
ENDMDL
MODEL 2
REMARK VINA RESULT:      -8.5      1.801      5.680
REMARK  6 active torsions:
REMARK  status: ('A' for Active; 'I' for Inactive)
REMARK    1  A    between atoms: C_8  and  C_9 
REMARK    2  A    between atoms: C_9  and  C_10 
REMARK    3  A    between atoms: C_10  and  N_11 
REMARK    4  A    between atoms: C_10  and  C_19 
REMARK       I    between atoms: N_11  and  C_12 
REMARK    5  A    between atoms: C_12  and  C_13 
REMARK       I    between atoms: C_19  and  N_20 
REMARK    6  A    between atoms: N_20  and  C_21 
ROOT
HETATM    1  C   UNL     1     -42.894  56.417 -55.370  1.00  0.00     0.181 C 
ENDROOT
BRANCH   1   2
HETATM    2  C   UNL     1     -43.694  57.460 -54.564  1.00  0.00     0.075 C 
BRANCH   2   3
HETATM    3  C   UNL     1     -43.288  57.605 -53.126  1.00  0.00    -0.028 A 
HETATM    4  C   UNL     1     -42.037  58.112 -52.641  1.00  0.00    -0.002 A 
HETATM    5  C   UNL     1     -40.877  58.628 -53.257  1.00  0.00     0.014 A 
HETATM    6  C   UNL     1     -42.066  58.033 -51.249  1.00  0.00     0.042 A 
HETATM    7  C   UNL     1     -39.796  59.035 -52.466  1.00  0.00     0.001 A 
HETATM    8  C   UNL     1     -39.855  58.934 -51.079  1.00  0.00     0.002 A 
HETATM    9  C   UNL     1     -40.992  58.431 -50.442  1.00  0.00     0.030 A 
HETATM   10  N   UNL     1     -43.292  57.523 -50.896  1.00  0.00    -0.365 N 
HETATM   11  H   UNL     1     -43.594  57.358 -49.946  1.00  0.00     0.165 HD
HETATM   12  C   UNL     1     -44.042  57.280 -52.015  1.00  0.00     0.096 A 
ENDBRANCH   2   3
ENDBRANCH   1   2
BRANCH   1  13
HETATM   13  N   UNL     1     -43.578  56.029 -56.605  1.00  0.00    -0.343 N 
HETATM   14  C   UNL     1     -43.332  56.606 -57.826  1.00  0.00     0.259 C 
HETATM   15  O   UNL     1     -42.480  57.484 -57.952  1.00  0.00    -0.267 OA
HETATM   16  H   UNL     1     -44.209  55.234 -56.552  1.00  0.00     0.163 HD
BRANCH  14  17
HETATM   17  C   UNL     1     -44.151  56.129 -58.931  1.00  0.00     0.072 A 
HETATM   18  S   UNL     1     -45.498  57.010 -59.526  1.00  0.00    -0.097 SA
HETATM   19  C   UNL     1     -45.824  55.843 -60.730  1.00  0.00     0.050 A 
HETATM   20  C   UNL     1     -44.930  54.797 -60.689  1.00  0.00     0.009 A 
HETATM   21  C   UNL     1     -43.970  54.960 -59.650  1.00  0.00     0.025 A 
ENDBRANCH  14  17
ENDBRANCH   1  13
BRANCH   1  22
HETATM   22  C   UNL     1     -42.574  55.105 -54.601  1.00  0.00     0.245 C 
HETATM   23  N   UNL     1     -41.237  54.904 -54.309  1.00  0.00    -0.324 N 
HETATM   24  H   UNL     1     -40.601  55.672 -54.473  1.00  0.00     0.169 HD
HETATM   25  O   UNL     1     -43.477  54.309 -54.337  1.00  0.00    -0.271 OA
BRANCH  23  26
HETATM   26  C   UNL     1     -40.687  53.807 -53.609  1.00  0.00     0.052 A 
HETATM   27  C   UNL     1     -40.535  53.726 -52.227  1.00  0.00     0.145 A 
HETATM   28  N   UNL     1     -39.998  52.657 -51.581  1.00  0.00    -0.271 NA
HETATM   29  C   UNL     1     -39.589  51.624 -52.345  1.00  0.00     0.116 A 
HETATM   30  C   UNL     1     -39.696  51.603 -53.725  1.00  0.00     0.021 A 
HETATM   31  C   UNL     1     -40.257  52.710 -54.360  1.00  0.00     0.032 A 
ENDBRANCH  23  26
ENDBRANCH   1  22
TORSDOF 6
ENDMDL
MODEL 3
REMARK VINA RESULT:      -8.3      1.862      2.310
REMARK  6 active torsions:
REMARK  status: ('A' for Active; 'I' for Inactive)
REMARK    1  A    between atoms: C_8  and  C_9 
REMARK    2  A    between atoms: C_9  and  C_10 
REMARK    3  A    between atoms: C_10  and  N_11 
REMARK    4  A    between atoms: C_10  and  C_19 
REMARK       I    between atoms: N_11  and  C_12 
REMARK    5  A    between atoms: C_12  and  C_13 
REMARK       I    between atoms: C_19  and  N_20 
REMARK    6  A    between atoms: N_20  and  C_21 
ROOT
HETATM    1  C   UNL     1     -42.356  55.079 -52.955  1.00  0.00     0.181 C 
ENDROOT
BRANCH   1   2
HETATM    2  C   UNL     1     -40.900  54.718 -52.596  1.00  0.00     0.075 C 
BRANCH   2   3
HETATM    3  C   UNL     1     -40.469  53.335 -52.990  1.00  0.00    -0.028 A 
HETATM    4  C   UNL     1     -40.268  52.223 -52.107  1.00  0.00    -0.002 A 
HETATM    5  C   UNL     1     -40.411  52.029 -50.717  1.00  0.00     0.014 A 
HETATM    6  C   UNL     1     -39.832  51.148 -52.882  1.00  0.00     0.042 A 
HETATM    7  C   UNL     1     -40.109  50.782 -50.157  1.00  0.00     0.001 A 
HETATM    8  C   UNL     1     -39.668  49.733 -50.959  1.00  0.00     0.002 A 
HETATM    9  C   UNL     1     -39.521  49.895 -52.339  1.00  0.00     0.030 A 
HETATM   10  N   UNL     1     -39.793  51.578 -54.187  1.00  0.00    -0.365 N 
HETATM   11  H   UNL     1     -39.514  51.006 -54.972  1.00  0.00     0.165 HD
HETATM   12  C   UNL     1     -40.192  52.884 -54.266  1.00  0.00     0.096 A 
ENDBRANCH   2   3
ENDBRANCH   1   2
BRANCH   1  13
HETATM   13  N   UNL     1     -42.451  55.786 -54.234  1.00  0.00    -0.343 N 
HETATM   14  C   UNL     1     -42.941  55.218 -55.384  1.00  0.00     0.259 C 
HETATM   15  O   UNL     1     -43.361  54.063 -55.390  1.00  0.00    -0.267 OA
HETATM   16  H   UNL     1     -42.211  56.774 -54.234  1.00  0.00     0.163 HD
BRANCH  14  17
HETATM   17  C   UNL     1     -42.905  56.058 -56.573  1.00  0.00     0.072 A 
HETATM   18  S   UNL     1     -42.616  57.748 -56.499  1.00  0.00    -0.097 SA
HETATM   19  C   UNL     1     -42.706  57.912 -58.197  1.00  0.00     0.050 A 
HETATM   20  C   UNL     1     -42.952  56.710 -58.819  1.00  0.00     0.009 A 
HETATM   21  C   UNL     1     -43.071  55.643 -57.883  1.00  0.00     0.025 A 
ENDBRANCH  14  17
ENDBRANCH   1  13
BRANCH   1  22
HETATM   22  C   UNL     1     -43.089  55.954 -51.901  1.00  0.00     0.245 C 
HETATM   23  N   UNL     1     -43.420  57.230 -52.321  1.00  0.00    -0.324 N 
HETATM   24  H   UNL     1     -43.306  57.444 -53.302  1.00  0.00     0.169 HD
HETATM   25  O   UNL     1     -43.292  55.514 -50.768  1.00  0.00    -0.271 OA
BRANCH  23  26
HETATM   26  C   UNL     1     -44.100  58.211 -51.566  1.00  0.00     0.052 A 
HETATM   27  C   UNL     1     -45.398  58.097 -51.076  1.00  0.00     0.145 A 
HETATM   28  N   UNL     1     -46.029  59.061 -50.354  1.00  0.00    -0.271 NA
HETATM   29  C   UNL     1     -45.338  60.193 -50.114  1.00  0.00     0.116 A 
HETATM   30  C   UNL     1     -44.044  60.407 -50.554  1.00  0.00     0.021 A 
HETATM   31  C   UNL     1     -43.419  59.399 -51.286  1.00  0.00     0.032 A 
ENDBRANCH  23  26
ENDBRANCH   1  22
TORSDOF 6
ENDMDL
MODEL 4
REMARK VINA RESULT:      -8.1      1.985      5.670
REMARK  6 active torsions:
REMARK  status: ('A' for Active; 'I' for Inactive)
REMARK    1  A    between atoms: C_8  and  C_9 
REMARK    2  A    between atoms: C_9  and  C_10 
REMARK    3  A    between atoms: C_10  and  N_11 
REMARK    4  A    between atoms: C_10  and  C_19 
REMARK       I    between atoms: N_11  and  C_12 
REMARK    5  A    between atoms: C_12  and  C_13 
REMARK       I    between atoms: C_19  and  N_20 
REMARK    6  A    between atoms: N_20  and  C_21 
ROOT
HETATM    1  C   UNL     1     -42.358  56.245 -53.116  1.00  0.00     0.181 C 
ENDROOT
BRANCH   1   2
HETATM    2  C   UNL     1     -42.642  55.240 -51.982  1.00  0.00     0.075 C 
BRANCH   2   3
HETATM    3  C   UNL     1     -41.508  54.314 -51.649  1.00  0.00    -0.028 A 
HETATM    4  C   UNL     1     -40.973  53.285 -52.494  1.00  0.00    -0.002 A 
HETATM    5  C   UNL     1     -41.258  52.835 -53.801  1.00  0.00     0.014 A 
HETATM    6  C   UNL     1     -39.961  52.643 -51.781  1.00  0.00     0.042 A 
HETATM    7  C   UNL     1     -40.533  51.764 -54.337  1.00  0.00     0.001 A 
HETATM    8  C   UNL     1     -39.536  51.140 -53.594  1.00  0.00     0.002 A 
HETATM    9  C   UNL     1     -39.230  51.567 -52.299  1.00  0.00     0.030 A 
HETATM   10  N   UNL     1     -39.864  53.269 -50.561  1.00  0.00    -0.365 N 
HETATM   11  H   UNL     1     -39.209  53.014 -49.835  1.00  0.00     0.165 HD
HETATM   12  C   UNL     1     -40.776  54.286 -50.479  1.00  0.00     0.096 A 
ENDBRANCH   2   3
ENDBRANCH   1   2
BRANCH   1  13
HETATM   13  N   UNL     1     -42.669  57.622 -52.726  1.00  0.00    -0.343 N 
HETATM   14  C   UNL     1     -41.730  58.517 -52.280  1.00  0.00     0.259 C 
HETATM   15  O   UNL     1     -40.541  58.207 -52.209  1.00  0.00    -0.267 OA
HETATM   16  H   UNL     1     -43.623  57.939 -52.874  1.00  0.00     0.163 HD
BRANCH  14  17
HETATM   17  C   UNL     1     -42.235  59.824 -51.882  1.00  0.00     0.072 A 
HETATM   18  S   UNL     1     -42.892  60.939 -53.009  1.00  0.00    -0.097 SA
HETATM   19  C   UNL     1     -43.234  62.084 -51.788  1.00  0.00     0.050 A 
HETATM   20  C   UNL     1     -42.859  61.637 -50.542  1.00  0.00     0.009 A 
HETATM   21  C   UNL     1     -42.279  60.337 -50.597  1.00  0.00     0.025 A 
ENDBRANCH  14  17
ENDBRANCH   1  13
BRANCH   1  22
HETATM   22  C   UNL     1     -43.125  55.968 -54.439  1.00  0.00     0.245 C 
HETATM   23  N   UNL     1     -42.814  56.813 -55.489  1.00  0.00    -0.324 N 
HETATM   24  H   UNL     1     -42.023  57.432 -55.373  1.00  0.00     0.169 HD
HETATM   25  O   UNL     1     -43.977  55.078 -54.483  1.00  0.00    -0.271 OA
BRANCH  23  26
HETATM   26  C   UNL     1     -43.354  56.764 -56.793  1.00  0.00     0.052 A 
HETATM   27  C   UNL     1     -44.341  57.610 -57.292  1.00  0.00     0.145 A 
HETATM   28  N   UNL     1     -44.843  57.536 -58.552  1.00  0.00    -0.271 NA
HETATM   29  C   UNL     1     -44.346  56.571 -59.352  1.00  0.00     0.116 A 
HETATM   30  C   UNL     1     -43.364  55.680 -58.956  1.00  0.00     0.021 A 
HETATM   31  C   UNL     1     -42.862  55.784 -57.660  1.00  0.00     0.032 A 
ENDBRANCH  23  26
ENDBRANCH   1  22
TORSDOF 6
ENDMDL
MODEL 5
REMARK VINA RESULT:      -7.9      1.697      6.357
REMARK  6 active torsions:
REMARK  status: ('A' for Active; 'I' for Inactive)
REMARK    1  A    between atoms: C_8  and  C_9 
REMARK    2  A    between atoms: C_9  and  C_10 
REMARK    3  A    between atoms: C_10  and  N_11 
REMARK    4  A    between atoms: C_10  and  C_19 
REMARK       I    between atoms: N_11  and  C_12 
REMARK    5  A    between atoms: C_12  and  C_13 
REMARK       I    between atoms: C_19  and  N_20 
REMARK    6  A    between atoms: N_20  and  C_21 
ROOT
HETATM    1  C   UNL     1     -41.842  55.868 -54.602  1.00  0.00     0.181 C 
ENDROOT
BRANCH   1   2
HETATM    2  C   UNL     1     -42.992  55.908 -53.576  1.00  0.00     0.075 C 
BRANCH   2   3
HETATM    3  C   UNL     1     -43.229  57.243 -52.934  1.00  0.00    -0.028 A 
HETATM    4  C   UNL     1     -42.334  57.936 -52.053  1.00  0.00    -0.002 A 
HETATM    5  C   UNL     1     -41.043  57.667 -51.549  1.00  0.00     0.014 A 
HETATM    6  C   UNL     1     -42.964  59.116 -51.659  1.00  0.00     0.042 A 
HETATM    7  C   UNL     1     -40.440  58.576 -50.671  1.00  0.00     0.001 A 
HETATM    8  C   UNL     1     -41.102  59.740 -50.291  1.00  0.00     0.002 A 
HETATM    9  C   UNL     1     -42.378  60.034 -50.778  1.00  0.00     0.030 A 
HETATM   10  N   UNL     1     -44.183  59.155 -52.291  1.00  0.00    -0.365 N 
HETATM   11  H   UNL     1     -44.857  59.902 -52.193  1.00  0.00     0.165 HD
HETATM   12  C   UNL     1     -44.345  58.045 -53.074  1.00  0.00     0.096 A 
ENDBRANCH   2   3
ENDBRANCH   1   2
BRANCH   1  13
HETATM   13  N   UNL     1     -42.331  55.882 -55.982  1.00  0.00    -0.343 N 
HETATM   14  C   UNL     1     -42.531  57.029 -56.708  1.00  0.00     0.259 C 
HETATM   15  O   UNL     1     -42.275  58.134 -56.231  1.00  0.00    -0.267 OA
HETATM   16  H   UNL     1     -42.450  54.981 -56.439  1.00  0.00     0.163 HD
BRANCH  14  17
HETATM   17  C   UNL     1     -43.077  56.849 -58.046  1.00  0.00     0.072 A 
HETATM   18  S   UNL     1     -43.543  58.170 -59.037  1.00  0.00    -0.097 SA
HETATM   19  C   UNL     1     -43.999  57.141 -60.322  1.00  0.00     0.050 A 
HETATM   20  C   UNL     1     -43.806  55.814 -60.013  1.00  0.00     0.009 A 
HETATM   21  C   UNL     1     -43.279  55.646 -58.701  1.00  0.00     0.025 A 
ENDBRANCH  14  17
ENDBRANCH   1  13
BRANCH   1  22
HETATM   22  C   UNL     1     -40.896  54.643 -54.472  1.00  0.00     0.245 C 
HETATM   23  N   UNL     1     -41.328  53.652 -53.608  1.00  0.00    -0.324 N 
HETATM   24  H   UNL     1     -42.271  53.720 -53.253  1.00  0.00     0.169 HD
HETATM   25  O   UNL     1     -39.823  54.625 -55.079  1.00  0.00    -0.271 OA
BRANCH  23  26
HETATM   26  C   UNL     1     -40.665  52.437 -53.327  1.00  0.00     0.052 A 
HETATM   27  C   UNL     1     -40.001  52.135 -52.141  1.00  0.00     0.145 A 
HETATM   28  N   UNL     1     -39.369  50.956 -51.900  1.00  0.00    -0.271 NA
HETATM   29  C   UNL     1     -39.392  50.038 -52.887  1.00  0.00     0.116 A 
HETATM   30  C   UNL     1     -40.024  50.237 -54.102  1.00  0.00     0.021 A 
HETATM   31  C   UNL     1     -40.671  51.452 -54.319  1.00  0.00     0.032 A 
ENDBRANCH  23  26
ENDBRANCH   1  22
TORSDOF 6
ENDMDL
MODEL 6
REMARK VINA RESULT:      -7.8      2.325      7.551
REMARK  6 active torsions:
REMARK  status: ('A' for Active; 'I' for Inactive)
REMARK    1  A    between atoms: C_8  and  C_9 
REMARK    2  A    between atoms: C_9  and  C_10 
REMARK    3  A    between atoms: C_10  and  N_11 
REMARK    4  A    between atoms: C_10  and  C_19 
REMARK       I    between atoms: N_11  and  C_12 
REMARK    5  A    between atoms: C_12  and  C_13 
REMARK       I    between atoms: C_19  and  N_20 
REMARK    6  A    between atoms: N_20  and  C_21 
ROOT
HETATM    1  C   UNL     1     -42.025  56.463 -53.762  1.00  0.00     0.181 C 
ENDROOT
BRANCH   1   2
HETATM    2  C   UNL     1     -40.935  57.486 -53.385  1.00  0.00     0.075 C 
BRANCH   2   3
HETATM    3  C   UNL     1     -41.230  58.316 -52.170  1.00  0.00    -0.028 A 
HETATM    4  C   UNL     1     -41.955  59.554 -52.140  1.00  0.00    -0.002 A 
HETATM    5  C   UNL     1     -42.606  60.339 -53.115  1.00  0.00     0.014 A 
HETATM    6  C   UNL     1     -41.960  60.003 -50.820  1.00  0.00     0.042 A 
HETATM    7  C   UNL     1     -43.224  61.537 -52.738  1.00  0.00     0.001 A 
HETATM    8  C   UNL     1     -43.202  61.961 -51.413  1.00  0.00     0.002 A 
HETATM    9  C   UNL     1     -42.569  61.201 -50.426  1.00  0.00     0.030 A 
HETATM   10  N   UNL     1     -41.288  59.067 -50.070  1.00  0.00    -0.365 N 
HETATM   11  H   UNL     1     -41.138  59.131 -49.072  1.00  0.00     0.165 HD
HETATM   12  C   UNL     1     -40.862  58.041 -50.868  1.00  0.00     0.096 A 
ENDBRANCH   2   3
ENDBRANCH   1   2
BRANCH   1  13
HETATM   13  N   UNL     1     -41.492  55.104 -53.878  1.00  0.00    -0.343 N 
HETATM   14  C   UNL     1     -41.328  54.256 -52.812  1.00  0.00     0.259 C 
HETATM   15  O   UNL     1     -41.656  54.595 -51.676  1.00  0.00    -0.267 OA
HETATM   16  H   UNL     1     -41.313  54.758 -54.817  1.00  0.00     0.163 HD
BRANCH  14  17
HETATM   17  C   UNL     1     -40.729  52.963 -53.114  1.00  0.00     0.072 A 
HETATM   18  S   UNL     1     -39.783  52.097 -51.974  1.00  0.00    -0.097 SA
HETATM   19  C   UNL     1     -39.534  50.799 -53.055  1.00  0.00     0.050 A 
HETATM   20  C   UNL     1     -40.154  51.010 -54.266  1.00  0.00     0.009 A 
HETATM   21  C   UNL     1     -40.839  52.258 -54.301  1.00  0.00     0.025 A 
ENDBRANCH  14  17
ENDBRANCH   1  13
BRANCH   1  22
HETATM   22  C   UNL     1     -42.775  56.768 -55.088  1.00  0.00     0.245 C 
HETATM   23  N   UNL     1     -42.056  56.518 -56.243  1.00  0.00    -0.324 N 
HETATM   24  H   UNL     1     -41.179  56.023 -56.151  1.00  0.00     0.169 HD
HETATM   25  O   UNL     1     -43.911  57.246 -55.059  1.00  0.00    -0.271 OA
BRANCH  23  26
HETATM   26  C   UNL     1     -42.510  56.694 -57.568  1.00  0.00     0.052 A 
HETATM   27  C   UNL     1     -42.366  57.854 -58.325  1.00  0.00     0.145 A 
HETATM   28  N   UNL     1     -42.817  57.995 -59.599  1.00  0.00    -0.271 NA
HETATM   29  C   UNL     1     -43.448  56.936 -60.144  1.00  0.00     0.116 A 
HETATM   30  C   UNL     1     -43.642  55.737 -59.480  1.00  0.00     0.021 A 
HETATM   31  C   UNL     1     -43.162  55.618 -58.177  1.00  0.00     0.032 A 
ENDBRANCH  23  26
ENDBRANCH   1  22
TORSDOF 6
ENDMDL
MODEL 7
REMARK VINA RESULT:      -7.7      2.112      6.633
REMARK  6 active torsions:
REMARK  status: ('A' for Active; 'I' for Inactive)
REMARK    1  A    between atoms: C_8  and  C_9 
REMARK    2  A    between atoms: C_9  and  C_10 
REMARK    3  A    between atoms: C_10  and  N_11 
REMARK    4  A    between atoms: C_10  and  C_19 
REMARK       I    between atoms: N_11  and  C_12 
REMARK    5  A    between atoms: C_12  and  C_13 
REMARK       I    between atoms: C_19  and  N_20 
REMARK    6  A    between atoms: N_20  and  C_21 
ROOT
HETATM    1  C   UNL     1     -42.969  56.277 -54.926  1.00  0.00     0.181 C 
ENDROOT
BRANCH   1   2
HETATM    2  C   UNL     1     -44.071  56.297 -53.847  1.00  0.00     0.075 C 
BRANCH   2   3
HETATM    3  C   UNL     1     -43.857  57.280 -52.733  1.00  0.00    -0.028 A 
HETATM    4  C   UNL     1     -44.399  58.605 -52.651  1.00  0.00    -0.002 A 
HETATM    5  C   UNL     1     -45.255  59.372 -53.470  1.00  0.00     0.014 A 
HETATM    6  C   UNL     1     -43.917  59.182 -51.477  1.00  0.00     0.042 A 
HETATM    7  C   UNL     1     -45.587  60.679 -53.091  1.00  0.00     0.001 A 
HETATM    8  C   UNL     1     -45.080  61.227 -51.917  1.00  0.00     0.002 A 
HETATM    9  C   UNL     1     -44.235  60.489 -51.085  1.00  0.00     0.030 A 
HETATM   10  N   UNL     1     -43.133  58.241 -50.854  1.00  0.00    -0.365 N 
HETATM   11  H   UNL     1     -42.653  58.383 -49.976  1.00  0.00     0.165 HD
HETATM   12  C   UNL     1     -43.105  57.088 -51.591  1.00  0.00     0.096 A 
ENDBRANCH   2   3
ENDBRANCH   1   2
BRANCH   1  13
HETATM   13  N   UNL     1     -43.494  55.924 -56.247  1.00  0.00    -0.343 N 
HETATM   14  C   UNL     1     -43.172  56.595 -57.399  1.00  0.00     0.259 C 
HETATM   15  O   UNL     1     -42.381  57.537 -57.384  1.00  0.00    -0.267 OA
HETATM   16  H   UNL     1     -44.066  55.085 -56.306  1.00  0.00     0.163 HD
BRANCH  14  17
HETATM   17  C   UNL     1     -43.837  56.135 -58.610  1.00  0.00     0.072 A 
HETATM   18  S   UNL     1     -44.698  57.197 -59.648  1.00  0.00    -0.097 SA
HETATM   19  C   UNL     1     -45.090  55.938 -60.733  1.00  0.00     0.050 A 
HETATM   20  C   UNL     1     -44.581  54.727 -60.323  1.00  0.00     0.009 A 
HETATM   21  C   UNL     1     -43.863  54.840 -59.099  1.00  0.00     0.025 A 
ENDBRANCH  14  17
ENDBRANCH   1  13
BRANCH   1  22
HETATM   22  C   UNL     1     -41.790  55.308 -54.636  1.00  0.00     0.245 C 
HETATM   23  N   UNL     1     -42.099  54.229 -53.828  1.00  0.00    -0.324 N 
HETATM   24  H   UNL     1     -43.074  54.066 -53.617  1.00  0.00     0.169 HD
HETATM   25  O   UNL     1     -40.666  55.555 -55.076  1.00  0.00    -0.271 OA
BRANCH  23  26
HETATM   26  C   UNL     1     -41.218  53.200 -53.430  1.00  0.00     0.052 A 
HETATM   27  C   UNL     1     -40.586  53.111 -52.193  1.00  0.00     0.145 A 
HETATM   28  N   UNL     1     -39.738  52.108 -51.839  1.00  0.00    -0.271 NA
HETATM   29  C   UNL     1     -39.504  51.153 -52.762  1.00  0.00     0.116 A 
HETATM   30  C   UNL     1     -40.081  51.147 -54.019  1.00  0.00     0.021 A 
HETATM   31  C   UNL     1     -40.952  52.183 -54.352  1.00  0.00     0.032 A 
ENDBRANCH  23  26
ENDBRANCH   1  22
TORSDOF 6
ENDMDL
MODEL 8
REMARK VINA RESULT:      -7.7      2.093      2.712
REMARK  6 active torsions:
REMARK  status: ('A' for Active; 'I' for Inactive)
REMARK    1  A    between atoms: C_8  and  C_9 
REMARK    2  A    between atoms: C_9  and  C_10 
REMARK    3  A    between atoms: C_10  and  N_11 
REMARK    4  A    between atoms: C_10  and  C_19 
REMARK       I    between atoms: N_11  and  C_12 
REMARK    5  A    between atoms: C_12  and  C_13 
REMARK       I    between atoms: C_19  and  N_20 
REMARK    6  A    between atoms: N_20  and  C_21 
ROOT
HETATM    1  C   UNL     1     -43.786  56.099 -54.513  1.00  0.00     0.181 C 
ENDROOT
BRANCH   1   2
HETATM    2  C   UNL     1     -43.762  54.606 -54.128  1.00  0.00     0.075 C 
BRANCH   2   3
HETATM    3  C   UNL     1     -42.422  54.076 -53.706  1.00  0.00    -0.028 A 
HETATM    4  C   UNL     1     -41.931  53.975 -52.362  1.00  0.00    -0.002 A 
HETATM    5  C   UNL     1     -42.469  54.271 -51.091  1.00  0.00     0.014 A 
HETATM    6  C   UNL     1     -40.633  53.470 -52.429  1.00  0.00     0.042 A 
HETATM    7  C   UNL     1     -41.692  54.060 -49.946  1.00  0.00     0.001 A 
HETATM    8  C   UNL     1     -40.397  53.563 -50.049  1.00  0.00     0.002 A 
HETATM    9  C   UNL     1     -39.840  53.257 -51.294  1.00  0.00     0.030 A 
HETATM   10  N   UNL     1     -40.351  53.248 -53.755  1.00  0.00    -0.365 N 
HETATM   11  H   UNL     1     -39.477  52.879 -54.103  1.00  0.00     0.165 HD
HETATM   12  C   UNL     1     -41.426  53.591 -54.530  1.00  0.00     0.096 A 
ENDBRANCH   2   3
ENDBRANCH   1   2
BRANCH   1  13
HETATM   13  N   UNL     1     -43.591  56.302 -55.950  1.00  0.00    -0.343 N 
HETATM   14  C   UNL     1     -44.225  57.280 -56.675  1.00  0.00     0.259 C 
HETATM   15  O   UNL     1     -44.991  58.075 -56.132  1.00  0.00    -0.267 OA
HETATM   16  H   UNL     1     -42.884  55.730 -56.405  1.00  0.00     0.163 HD
BRANCH  14  17
HETATM   17  C   UNL     1     -43.950  57.292 -58.105  1.00  0.00     0.072 A 
HETATM   18  S   UNL     1     -42.421  57.736 -58.745  1.00  0.00    -0.097 SA
HETATM   19  C   UNL     1     -42.931  57.462 -60.352  1.00  0.00     0.050 A 
HETATM   20  C   UNL     1     -44.241  57.042 -60.412  1.00  0.00     0.009 A 
HETATM   21  C   UNL     1     -44.828  56.948 -59.118  1.00  0.00     0.025 A 
ENDBRANCH  14  17
ENDBRANCH   1  13
BRANCH   1  22
HETATM   22  C   UNL     1     -42.729  56.976 -53.787  1.00  0.00     0.245 C 
HETATM   23  N   UNL     1     -43.114  57.460 -52.550  1.00  0.00    -0.324 N 
HETATM   24  H   UNL     1     -43.966  57.093 -52.148  1.00  0.00     0.169 HD
HETATM   25  O   UNL     1     -41.657  57.235 -54.338  1.00  0.00    -0.271 OA
BRANCH  23  26
HETATM   26  C   UNL     1     -42.338  58.261 -51.684  1.00  0.00     0.052 A 
HETATM   27  C   UNL     1     -42.571  59.605 -51.400  1.00  0.00     0.145 A 
HETATM   28  N   UNL     1     -41.803  60.352 -50.564  1.00  0.00    -0.271 NA
HETATM   29  C   UNL     1     -40.751  59.737 -49.988  1.00  0.00     0.116 A 
HETATM   30  C   UNL     1     -40.432  58.407 -50.201  1.00  0.00     0.021 A 
HETATM   31  C   UNL     1     -41.241  57.662 -51.057  1.00  0.00     0.032 A 
ENDBRANCH  23  26
ENDBRANCH   1  22
TORSDOF 6
ENDMDL
MODEL 9
REMARK VINA RESULT:      -7.7      2.103      7.628
REMARK  6 active torsions:
REMARK  status: ('A' for Active; 'I' for Inactive)
REMARK    1  A    between atoms: C_8  and  C_9 
REMARK    2  A    between atoms: C_9  and  C_10 
REMARK    3  A    between atoms: C_10  and  N_11 
REMARK    4  A    between atoms: C_10  and  C_19 
REMARK       I    between atoms: N_11  and  C_12 
REMARK    5  A    between atoms: C_12  and  C_13 
REMARK       I    between atoms: C_19  and  N_20 
REMARK    6  A    between atoms: N_20  and  C_21 
ROOT
HETATM    1  C   UNL     1     -42.732  56.237 -54.754  1.00  0.00     0.181 C 
ENDROOT
BRANCH   1   2
HETATM    2  C   UNL     1     -42.201  56.652 -56.141  1.00  0.00     0.075 C 
BRANCH   2   3
HETATM    3  C   UNL     1     -43.237  57.180 -57.090  1.00  0.00    -0.028 A 
HETATM    4  C   UNL     1     -43.763  56.501 -58.239  1.00  0.00    -0.002 A 
HETATM    5  C   UNL     1     -43.552  55.231 -58.817  1.00  0.00     0.014 A 
HETATM    6  C   UNL     1     -44.668  57.365 -58.857  1.00  0.00     0.042 A 
HETATM    7  C   UNL     1     -44.240  54.879 -59.985  1.00  0.00     0.001 A 
HETATM    8  C   UNL     1     -45.128  55.769 -60.580  1.00  0.00     0.002 A 
HETATM    9  C   UNL     1     -45.360  57.031 -60.028  1.00  0.00     0.030 A 
HETATM   10  N   UNL     1     -44.712  58.513 -58.103  1.00  0.00    -0.365 N 
HETATM   11  H   UNL     1     -45.288  59.316 -58.314  1.00  0.00     0.165 HD
HETATM   12  C   UNL     1     -43.871  58.406 -57.029  1.00  0.00     0.096 A 
ENDBRANCH   2   3
ENDBRANCH   1   2
BRANCH   1  13
HETATM   13  N   UNL     1     -42.237  57.111 -53.688  1.00  0.00    -0.343 N 
HETATM   14  C   UNL     1     -43.002  57.527 -52.627  1.00  0.00     0.259 C 
HETATM   15  O   UNL     1     -44.167  57.154 -52.501  1.00  0.00    -0.267 OA
HETATM   16  H   UNL     1     -41.249  57.349 -53.709  1.00  0.00     0.163 HD
BRANCH  14  17
HETATM   17  C   UNL     1     -42.355  58.441 -51.696  1.00  0.00     0.072 A 
HETATM   18  S   UNL     1     -40.878  58.061 -50.909  1.00  0.00    -0.097 SA
HETATM   19  C   UNL     1     -40.834  59.566 -50.104  1.00  0.00     0.050 A 
HETATM   20  C   UNL     1     -41.920  60.352 -50.419  1.00  0.00     0.009 A 
HETATM   21  C   UNL     1     -42.797  59.701 -51.333  1.00  0.00     0.025 A 
ENDBRANCH  14  17
ENDBRANCH   1  13
BRANCH   1  22
HETATM   22  C   UNL     1     -42.393  54.780 -54.336  1.00  0.00     0.245 C 
HETATM   23  N   UNL     1     -41.127  54.597 -53.810  1.00  0.00    -0.324 N 
HETATM   24  H   UNL     1     -40.585  55.422 -53.597  1.00  0.00     0.169 HD
HETATM   25  O   UNL     1     -43.211  53.877 -54.527  1.00  0.00    -0.271 OA
BRANCH  23  26
HETATM   26  C   UNL     1     -40.582  53.381 -53.342  1.00  0.00     0.052 A 
HETATM   27  C   UNL     1     -40.360  53.057 -52.006  1.00  0.00     0.145 A 
HETATM   28  N   UNL     1     -39.829  51.878 -51.585  1.00  0.00    -0.271 NA
HETATM   29  C   UNL     1     -39.498  50.983 -52.537  1.00  0.00     0.116 A 
HETATM   30  C   UNL     1     -39.678  51.205 -53.891  1.00  0.00     0.021 A 
HETATM   31  C   UNL     1     -40.231  52.419 -54.294  1.00  0.00     0.032 A 
ENDBRANCH  23  26
ENDBRANCH   1  22
TORSDOF 6
ENDMDL
MODEL 10
REMARK VINA RESULT:      -7.7      2.639      5.862
REMARK  6 active torsions:
REMARK  status: ('A' for Active; 'I' for Inactive)
REMARK    1  A    between atoms: C_8  and  C_9 
REMARK    2  A    between atoms: C_9  and  C_10 
REMARK    3  A    between atoms: C_10  and  N_11 
REMARK    4  A    between atoms: C_10  and  C_19 
REMARK       I    between atoms: N_11  and  C_12 
REMARK    5  A    between atoms: C_12  and  C_13 
REMARK       I    between atoms: C_19  and  N_20 
REMARK    6  A    between atoms: N_20  and  C_21 
ROOT
HETATM    1  C   UNL     1     -42.641  55.619 -55.108  1.00  0.00     0.181 C 
ENDROOT
BRANCH   1   2
HETATM    2  C   UNL     1     -42.838  54.128 -54.765  1.00  0.00     0.075 C 
BRANCH   2   3
HETATM    3  C   UNL     1     -41.749  53.514 -53.935  1.00  0.00    -0.028 A 
HETATM    4  C   UNL     1     -41.574  53.658 -52.519  1.00  0.00    -0.002 A 
HETATM    5  C   UNL     1     -42.288  54.323 -51.500  1.00  0.00     0.014 A 
HETATM    6  C   UNL     1     -40.420  52.959 -52.167  1.00  0.00     0.042 A 
HETATM    7  C   UNL     1     -41.822  54.271 -50.181  1.00  0.00     0.001 A 
HETATM    8  C   UNL     1     -40.661  53.572 -49.866  1.00  0.00     0.002 A 
HETATM    9  C   UNL     1     -39.936  52.900 -50.854  1.00  0.00     0.030 A 
HETATM   10  N   UNL     1     -39.924  52.390 -53.316  1.00  0.00    -0.365 N 
HETATM   11  H   UNL     1     -39.090  51.820 -53.361  1.00  0.00     0.165 HD
HETATM   12  C   UNL     1     -40.725  52.701 -54.381  1.00  0.00     0.096 A 
ENDBRANCH   2   3
ENDBRANCH   1   2
BRANCH   1  13
HETATM   13  N   UNL     1     -43.489  56.491 -54.293  1.00  0.00    -0.343 N 
HETATM   14  C   UNL     1     -43.006  57.337 -53.327  1.00  0.00     0.259 C 
HETATM   15  O   UNL     1     -41.799  57.428 -53.110  1.00  0.00    -0.267 OA
HETATM   16  H   UNL     1     -44.480  56.516 -54.522  1.00  0.00     0.163 HD
BRANCH  14  17
HETATM   17  C   UNL     1     -44.006  58.085 -52.578  1.00  0.00     0.072 A 
HETATM   18  S   UNL     1     -44.682  59.553 -53.155  1.00  0.00    -0.097 SA
HETATM   19  C   UNL     1     -45.695  59.710 -51.789  1.00  0.00     0.050 A 
HETATM   20  C   UNL     1     -45.529  58.670 -50.902  1.00  0.00     0.009 A 
HETATM   21  C   UNL     1     -44.554  57.737 -51.355  1.00  0.00     0.025 A 
ENDBRANCH  14  17
ENDBRANCH   1  13
BRANCH   1  22
HETATM   22  C   UNL     1     -42.912  55.987 -56.593  1.00  0.00     0.245 C 
HETATM   23  N   UNL     1     -42.881  57.340 -56.880  1.00  0.00    -0.324 N 
HETATM   24  H   UNL     1     -42.542  57.963 -56.161  1.00  0.00     0.169 HD
HETATM   25  O   UNL     1     -43.180  55.103 -57.409  1.00  0.00    -0.271 OA
BRANCH  23  26
HETATM   26  C   UNL     1     -43.077  57.933 -58.147  1.00  0.00     0.052 A 
HETATM   27  C   UNL     1     -44.297  58.375 -58.652  1.00  0.00     0.145 A 
HETATM   28  N   UNL     1     -44.454  58.939 -59.879  1.00  0.00    -0.271 NA
HETATM   29  C   UNL     1     -43.349  59.064 -60.640  1.00  0.00     0.116 A 
HETATM   30  C   UNL     1     -42.090  58.660 -60.232  1.00  0.00     0.021 A 
HETATM   31  C   UNL     1     -41.956  58.091 -58.967  1.00  0.00     0.032 A 
ENDBRANCH  23  26
ENDBRANCH   1  22
TORSDOF 6
ENDMDL
