MODEL 1
REMARK VINA RESULT:      -8.9      0.000      0.000
REMARK  6 active torsions:
REMARK  status: ('A' for Active; 'I' for Inactive)
REMARK    1  A    between atoms: C_2  and  N_3 
REMARK    2  A    between atoms: C_2  and  C_16 
REMARK    3  A    between atoms: N_3  and  C_5 
REMARK    4  A    between atoms: C_5  and  C_6 
REMARK       I    between atoms: C_16  and  N_17 
REMARK    5  A    between atoms: N_17  and  C_18 
REMARK    6  A    between atoms: C_19  and  C_20 
ROOT
HETATM    1  C   UNL     1     -42.173  54.360 -53.448  1.00  0.00     0.253 C 
HETATM    2  N   UNL     1     -41.037  54.240 -52.684  1.00  0.00    -0.325 N 
HETATM    3  O   UNL     1     -43.334  54.270 -53.041  1.00  0.00    -0.271 OA
HETATM    4  H   UNL     1     -40.180  53.924 -53.125  1.00  0.00     0.169 HD
ENDROOT
BRANCH   1   5
HETATM    5  C   UNL     1     -41.963  54.488 -54.971  1.00  0.00     0.275 C 
HETATM    6  C   UNL     1     -40.529  54.299 -55.441  1.00  0.00     0.050 C 
BRANCH   5   7
HETATM    7  N   UNL     1     -42.567  55.835 -55.456  1.00  0.00    -0.059 N 
HETATM    8  H   UNL     1     -43.341  55.977 -54.780  1.00  0.00     0.280 HD
HETATM    9  C   UNL     1     -43.199  55.719 -56.810  1.00  0.00     0.271 C 
BRANCH   7  10
HETATM   10  C   UNL     1     -41.730  57.091 -55.335  1.00  0.00     0.274 C 
BRANCH  10  11
HETATM   11  C   UNL     1     -41.735  57.783 -53.997  1.00  0.00    -0.030 A 
HETATM   12  C   UNL     1     -40.538  58.213 -53.400  1.00  0.00     0.048 A 
HETATM   13  C   UNL     1     -40.601  58.831 -52.167  1.00  0.00     0.105 A 
HETATM   14  C   UNL     1     -41.789  59.003 -51.503  1.00  0.00     0.105 A 
HETATM   15  O   UNL     1     -39.542  59.328 -51.477  1.00  0.00    -0.323 OA
HETATM   16  O   UNL     1     -41.629  59.630 -50.309  1.00  0.00    -0.323 OA
HETATM   17  C   UNL     1     -42.980  58.564 -52.032  1.00  0.00     0.040 A 
HETATM   18  C   UNL     1     -40.200  59.842 -50.297  1.00  0.00     0.352 A 
HETATM   19  C   UNL     1     -42.950  57.946 -53.288  1.00  0.00     0.012 A 
ENDBRANCH  10  11
ENDBRANCH   7  10
ENDBRANCH   5   7
ENDBRANCH   1   5
BRANCH   2  20
HETATM   20  C   UNL     1     -40.978  54.332 -51.268  1.00  0.00     0.045 A 
HETATM   21  C   UNL     1     -40.458  53.240 -50.531  1.00  0.00     0.001 A 
HETATM   22  C   UNL     1     -40.315  53.374 -49.137  1.00  0.00     0.014 A 
HETATM   23  C   UNL     1     -40.682  54.550 -48.485  1.00  0.00     0.001 A 
HETATM   24  C   UNL     1     -41.205  55.611 -49.214  1.00  0.00     0.002 A 
HETATM   25  C   UNL     1     -41.353  55.505 -50.598  1.00  0.00     0.030 A 
BRANCH  21  26
HETATM   26  C   UNL     1     -40.128  51.949 -51.155  1.00  0.00    -0.024 A 
HETATM   27  C   UNL     1     -40.152  50.758 -50.416  1.00  0.00     0.012 A 
HETATM   28  C   UNL     1     -39.847  49.537 -51.024  1.00  0.00     0.001 A 
HETATM   29  C   UNL     1     -39.516  49.493 -52.378  1.00  0.00     0.000 A 
HETATM   30  C   UNL     1     -39.492  50.667 -53.127  1.00  0.00     0.001 A 
HETATM   31  C   UNL     1     -39.797  51.885 -52.520  1.00  0.00     0.012 A 
ENDBRANCH  21  26
ENDBRANCH   2  20
TORSDOF 6
ENDMDL
MODEL 2
REMARK VINA RESULT:      -8.7      1.304      3.423
REMARK  6 active torsions:
REMARK  status: ('A' for Active; 'I' for Inactive)
REMARK    1  A    between atoms: C_2  and  N_3 
REMARK    2  A    between atoms: C_2  and  C_16 
REMARK    3  A    between atoms: N_3  and  C_5 
REMARK    4  A    between atoms: C_5  and  C_6 
REMARK       I    between atoms: C_16  and  N_17 
REMARK    5  A    between atoms: N_17  and  C_18 
REMARK    6  A    between atoms: C_19  and  C_20 
ROOT
HETATM    1  C   UNL     1     -41.485  54.125 -54.992  1.00  0.00     0.253 C 
HETATM    2  N   UNL     1     -41.718  53.200 -54.002  1.00  0.00    -0.325 N 
HETATM    3  O   UNL     1     -40.384  54.435 -55.449  1.00  0.00    -0.271 OA
HETATM    4  H   UNL     1     -42.546  53.297 -53.423  1.00  0.00     0.169 HD
ENDROOT
BRANCH   1   5
HETATM    5  C   UNL     1     -42.707  54.934 -55.473  1.00  0.00     0.275 C 
HETATM    6  C   UNL     1     -42.634  55.417 -56.912  1.00  0.00     0.050 C 
BRANCH   5   7
HETATM    7  N   UNL     1     -42.972  56.096 -54.475  1.00  0.00    -0.059 N 
HETATM    8  H   UNL     1     -42.679  55.674 -53.575  1.00  0.00     0.280 HD
HETATM    9  C   UNL     1     -44.431  56.411 -54.345  1.00  0.00     0.271 C 
BRANCH   7  10
HETATM   10  C   UNL     1     -42.136  57.354 -54.589  1.00  0.00     0.274 C 
BRANCH  10  11
HETATM   11  C   UNL     1     -41.663  57.971 -53.300  1.00  0.00    -0.030 A 
HETATM   12  C   UNL     1     -40.342  58.432 -53.160  1.00  0.00     0.048 A 
HETATM   13  C   UNL     1     -39.960  58.978 -51.951  1.00  0.00     0.105 A 
HETATM   14  C   UNL     1     -40.819  59.051 -50.885  1.00  0.00     0.105 A 
HETATM   15  O   UNL     1     -38.735  59.494 -51.669  1.00  0.00    -0.323 OA
HETATM   16  O   UNL     1     -40.244  59.620 -49.794  1.00  0.00    -0.323 OA
HETATM   17  C   UNL     1     -42.108  58.578 -50.964  1.00  0.00     0.040 A 
HETATM   18  C   UNL     1     -38.921  59.907 -50.297  1.00  0.00     0.352 A 
HETATM   19  C   UNL     1     -42.529  58.031 -52.181  1.00  0.00     0.012 A 
ENDBRANCH  10  11
ENDBRANCH   7  10
ENDBRANCH   5   7
ENDBRANCH   1   5
BRANCH   2  20
HETATM   20  C   UNL     1     -40.805  52.203 -53.569  1.00  0.00     0.045 A 
HETATM   21  C   UNL     1     -40.386  52.197 -52.216  1.00  0.00     0.001 A 
HETATM   22  C   UNL     1     -39.555  51.153 -51.771  1.00  0.00     0.014 A 
HETATM   23  C   UNL     1     -39.140  50.142 -52.638  1.00  0.00     0.001 A 
HETATM   24  C   UNL     1     -39.545  50.163 -53.967  1.00  0.00     0.002 A 
HETATM   25  C   UNL     1     -40.373  51.186 -54.433  1.00  0.00     0.030 A 
BRANCH  21  26
HETATM   26  C   UNL     1     -40.727  53.278 -51.278  1.00  0.00    -0.024 A 
HETATM   27  C   UNL     1     -42.017  53.828 -51.242  1.00  0.00     0.012 A 
HETATM   28  C   UNL     1     -42.330  54.848 -50.339  1.00  0.00     0.001 A 
HETATM   29  C   UNL     1     -41.359  55.329 -49.462  1.00  0.00     0.000 A 
HETATM   30  C   UNL     1     -40.074  54.790 -49.482  1.00  0.00     0.001 A 
HETATM   31  C   UNL     1     -39.762  53.772 -50.383  1.00  0.00     0.012 A 
ENDBRANCH  21  26
ENDBRANCH   2  20
TORSDOF 6
ENDMDL
MODEL 3
REMARK VINA RESULT:      -8.6      2.196      6.211
REMARK  6 active torsions:
REMARK  status: ('A' for Active; 'I' for Inactive)
REMARK    1  A    between atoms: C_2  and  N_3 
REMARK    2  A    between atoms: C_2  and  C_16 
REMARK    3  A    between atoms: N_3  and  C_5 
REMARK    4  A    between atoms: C_5  and  C_6 
REMARK       I    between atoms: C_16  and  N_17 
REMARK    5  A    between atoms: N_17  and  C_18 
REMARK    6  A    between atoms: C_19  and  C_20 
ROOT
HETATM    1  C   UNL     1     -42.818  56.994 -54.904  1.00  0.00     0.253 C 
HETATM    2  N   UNL     1     -41.974  57.618 -54.016  1.00  0.00    -0.325 N 
HETATM    3  O   UNL     1     -44.046  57.092 -54.929  1.00  0.00    -0.271 OA
HETATM    4  H   UNL     1     -41.080  57.189 -53.803  1.00  0.00     0.169 HD
ENDROOT
BRANCH   1   5
HETATM    5  C   UNL     1     -42.167  55.980 -55.867  1.00  0.00     0.275 C 
HETATM    6  C   UNL     1     -42.905  55.774 -57.181  1.00  0.00     0.050 C 
BRANCH   5   7
HETATM    7  N   UNL     1     -41.928  54.643 -55.112  1.00  0.00    -0.059 N 
HETATM    8  H   UNL     1     -41.833  53.970 -55.895  1.00  0.00     0.280 HD
HETATM    9  C   UNL     1     -43.129  54.214 -54.324  1.00  0.00     0.271 C 
BRANCH   7  10
HETATM   10  C   UNL     1     -40.650  54.476 -54.318  1.00  0.00     0.274 C 
BRANCH  10  11
HETATM   11  C   UNL     1     -40.363  53.100 -53.776  1.00  0.00    -0.030 A 
HETATM   12  C   UNL     1     -40.233  52.880 -52.394  1.00  0.00     0.048 A 
HETATM   13  C   UNL     1     -39.958  51.601 -51.955  1.00  0.00     0.105 A 
HETATM   14  C   UNL     1     -39.778  50.558 -52.827  1.00  0.00     0.105 A 
HETATM   15  O   UNL     1     -39.835  51.221 -50.656  1.00  0.00    -0.323 OA
HETATM   16  O   UNL     1     -39.515  49.388 -52.189  1.00  0.00    -0.323 OA
HETATM   17  C   UNL     1     -39.857  50.735 -54.188  1.00  0.00     0.040 A 
HETATM   18  C   UNL     1     -39.559  49.810 -50.808  1.00  0.00     0.352 A 
HETATM   19  C   UNL     1     -40.149  52.018 -54.664  1.00  0.00     0.012 A 
ENDBRANCH  10  11
ENDBRANCH   7  10
ENDBRANCH   5   7
ENDBRANCH   1   5
BRANCH   2  20
HETATM   20  C   UNL     1     -42.307  58.732 -53.202  1.00  0.00     0.045 A 
HETATM   21  C   UNL     1     -42.409  58.552 -51.801  1.00  0.00     0.001 A 
HETATM   22  C   UNL     1     -42.646  59.677 -50.990  1.00  0.00     0.014 A 
HETATM   23  C   UNL     1     -42.789  60.948 -51.546  1.00  0.00     0.001 A 
HETATM   24  C   UNL     1     -42.702  61.114 -52.923  1.00  0.00     0.002 A 
HETATM   25  C   UNL     1     -42.463  60.014 -53.748  1.00  0.00     0.030 A 
BRANCH  21  26
HETATM   26  C   UNL     1     -42.346  57.225 -51.167  1.00  0.00    -0.024 A 
HETATM   27  C   UNL     1     -43.438  56.346 -51.213  1.00  0.00     0.012 A 
HETATM   28  C   UNL     1     -43.361  55.085 -50.616  1.00  0.00     0.001 A 
HETATM   29  C   UNL     1     -42.192  54.687 -49.968  1.00  0.00     0.000 A 
HETATM   30  C   UNL     1     -41.097  55.547 -49.918  1.00  0.00     0.001 A 
HETATM   31  C   UNL     1     -41.174  56.806 -50.514  1.00  0.00     0.012 A 
ENDBRANCH  21  26
ENDBRANCH   2  20
TORSDOF 6
ENDMDL
MODEL 4
REMARK VINA RESULT:      -8.3      1.912      4.055
REMARK  6 active torsions:
REMARK  status: ('A' for Active; 'I' for Inactive)
REMARK    1  A    between atoms: C_2  and  N_3 
REMARK    2  A    between atoms: C_2  and  C_16 
REMARK    3  A    between atoms: N_3  and  C_5 
REMARK    4  A    between atoms: C_5  and  C_6 
REMARK       I    between atoms: C_16  and  N_17 
REMARK    5  A    between atoms: N_17  and  C_18 
REMARK    6  A    between atoms: C_19  and  C_20 
ROOT
HETATM    1  C   UNL     1     -41.693  54.231 -54.476  1.00  0.00     0.253 C 
HETATM    2  N   UNL     1     -40.480  53.815 -53.981  1.00  0.00    -0.325 N 
HETATM    3  O   UNL     1     -42.570  53.505 -54.950  1.00  0.00    -0.271 OA
HETATM    4  H   UNL     1     -39.696  54.458 -53.998  1.00  0.00     0.169 HD
ENDROOT
BRANCH   1   5
HETATM    5  C   UNL     1     -41.911  55.755 -54.559  1.00  0.00     0.275 C 
HETATM    6  C   UNL     1     -40.822  56.598 -53.915  1.00  0.00     0.050 C 
BRANCH   5   7
HETATM    7  N   UNL     1     -43.323  56.098 -54.006  1.00  0.00    -0.059 N 
HETATM    8  H   UNL     1     -43.881  55.287 -54.331  1.00  0.00     0.280 HD
HETATM    9  C   UNL     1     -43.910  57.310 -54.662  1.00  0.00     0.271 C 
BRANCH   7  10
HETATM   10  C   UNL     1     -43.529  56.118 -52.506  1.00  0.00     0.274 C 
BRANCH  10  11
HETATM   11  C   UNL     1     -43.717  57.468 -51.866  1.00  0.00    -0.030 A 
HETATM   12  C   UNL     1     -44.995  57.925 -51.501  1.00  0.00     0.048 A 
HETATM   13  C   UNL     1     -45.109  59.176 -50.929  1.00  0.00     0.105 A 
HETATM   14  C   UNL     1     -44.020  59.988 -50.740  1.00  0.00     0.105 A 
HETATM   15  O   UNL     1     -46.264  59.744 -50.495  1.00  0.00    -0.323 OA
HETATM   16  O   UNL     1     -44.351  61.173 -50.165  1.00  0.00    -0.323 OA
HETATM   17  C   UNL     1     -42.756  59.598 -51.117  1.00  0.00     0.040 A 
HETATM   18  C   UNL     1     -45.777  61.013 -50.004  1.00  0.00     0.352 A 
HETATM   19  C   UNL     1     -42.606  58.329 -51.687  1.00  0.00     0.012 A 
ENDBRANCH  10  11
ENDBRANCH   7  10
ENDBRANCH   5   7
ENDBRANCH   1   5
BRANCH   2  20
HETATM   20  C   UNL     1     -40.148  52.485 -53.611  1.00  0.00     0.045 A 
HETATM   21  C   UNL     1     -40.220  52.114 -52.246  1.00  0.00     0.001 A 
HETATM   22  C   UNL     1     -39.981  50.772 -51.898  1.00  0.00     0.014 A 
HETATM   23  C   UNL     1     -39.671  49.820 -52.868  1.00  0.00     0.001 A 
HETATM   24  C   UNL     1     -39.589  50.195 -54.204  1.00  0.00     0.002 A 
HETATM   25  C   UNL     1     -39.826  51.519 -54.576  1.00  0.00     0.030 A 
BRANCH  21  26
HETATM   26  C   UNL     1     -40.464  53.091 -51.173  1.00  0.00    -0.024 A 
HETATM   27  C   UNL     1     -41.762  53.529 -50.871  1.00  0.00     0.012 A 
HETATM   28  C   UNL     1     -41.981  54.449 -49.842  1.00  0.00     0.001 A 
HETATM   29  C   UNL     1     -40.906  54.942 -49.104  1.00  0.00     0.000 A 
HETATM   30  C   UNL     1     -39.611  54.514 -49.389  1.00  0.00     0.001 A 
HETATM   31  C   UNL     1     -39.393  53.595 -50.415  1.00  0.00     0.012 A 
ENDBRANCH  21  26
ENDBRANCH   2  20
TORSDOF 6
ENDMDL
MODEL 5
REMARK VINA RESULT:      -8.2      1.425      2.181
REMARK  6 active torsions:
REMARK  status: ('A' for Active; 'I' for Inactive)
REMARK    1  A    between atoms: C_2  and  N_3 
REMARK    2  A    between atoms: C_2  and  C_16 
REMARK    3  A    between atoms: N_3  and  C_5 
REMARK    4  A    between atoms: C_5  and  C_6 
REMARK       I    between atoms: C_16  and  N_17 
REMARK    5  A    between atoms: N_17  and  C_18 
REMARK    6  A    between atoms: C_19  and  C_20 
ROOT
HETATM    1  C   UNL     1     -42.449  54.557 -53.336  1.00  0.00     0.253 C 
HETATM    2  N   UNL     1     -41.250  54.432 -52.676  1.00  0.00    -0.325 N 
HETATM    3  O   UNL     1     -43.565  54.346 -52.857  1.00  0.00    -0.271 OA
HETATM    4  H   UNL     1     -40.413  54.224 -53.211  1.00  0.00     0.169 HD
ENDROOT
BRANCH   1   5
HETATM    5  C   UNL     1     -42.370  54.863 -54.846  1.00  0.00     0.275 C 
HETATM    6  C   UNL     1     -41.049  54.501 -55.507  1.00  0.00     0.050 C 
BRANCH   5   7
HETATM    7  N   UNL     1     -42.759  56.348 -55.085  1.00  0.00    -0.059 N 
HETATM    8  H   UNL     1     -43.660  56.416 -54.579  1.00  0.00     0.280 HD
HETATM    9  C   UNL     1     -43.056  56.632 -56.526  1.00  0.00     0.271 C 
BRANCH   7  10
HETATM   10  C   UNL     1     -41.900  57.431 -54.467  1.00  0.00     0.274 C 
BRANCH  10  11
HETATM   11  C   UNL     1     -42.535  58.264 -53.384  1.00  0.00    -0.030 A 
HETATM   12  C   UNL     1     -43.773  57.903 -52.826  1.00  0.00     0.048 A 
HETATM   13  C   UNL     1     -44.314  58.710 -51.845  1.00  0.00     0.105 A 
HETATM   14  C   UNL     1     -43.693  59.860 -51.429  1.00  0.00     0.105 A 
HETATM   15  O   UNL     1     -45.481  58.482 -51.188  1.00  0.00    -0.323 OA
HETATM   16  O   UNL     1     -44.392  60.505 -50.459  1.00  0.00    -0.323 OA
HETATM   17  C   UNL     1     -42.500  60.273 -51.975  1.00  0.00     0.040 A 
HETATM   18  C   UNL     1     -45.525  59.623 -50.303  1.00  0.00     0.352 A 
HETATM   19  C   UNL     1     -41.920  59.468 -52.962  1.00  0.00     0.012 A 
ENDBRANCH  10  11
ENDBRANCH   7  10
ENDBRANCH   5   7
ENDBRANCH   1   5
BRANCH   2  20
HETATM   20  C   UNL     1     -41.081  54.375 -51.267  1.00  0.00     0.045 A 
HETATM   21  C   UNL     1     -40.461  53.237 -50.696  1.00  0.00     0.001 A 
HETATM   22  C   UNL     1     -40.213  53.228 -49.311  1.00  0.00     0.014 A 
HETATM   23  C   UNL     1     -40.574  54.308 -48.506  1.00  0.00     0.001 A 
HETATM   24  C   UNL     1     -41.195  55.415 -49.073  1.00  0.00     0.002 A 
HETATM   25  C   UNL     1     -41.449  55.450 -50.446  1.00  0.00     0.030 A 
BRANCH  21  26
HETATM   26  C   UNL     1     -40.131  52.038 -51.482  1.00  0.00    -0.024 A 
HETATM   27  C   UNL     1     -39.976  52.102 -52.874  1.00  0.00     0.012 A 
HETATM   28  C   UNL     1     -39.652  50.957 -53.607  1.00  0.00     0.001 A 
HETATM   29  C   UNL     1     -39.479  49.736 -52.958  1.00  0.00     0.000 A 
HETATM   30  C   UNL     1     -39.625  49.656 -51.574  1.00  0.00     0.001 A 
HETATM   31  C   UNL     1     -39.948  50.799 -50.843  1.00  0.00     0.012 A 
ENDBRANCH  21  26
ENDBRANCH   2  20
TORSDOF 6
ENDMDL
MODEL 6
REMARK VINA RESULT:      -8.1      1.642      3.666
REMARK  6 active torsions:
REMARK  status: ('A' for Active; 'I' for Inactive)
REMARK    1  A    between atoms: C_2  and  N_3 
REMARK    2  A    between atoms: C_2  and  C_16 
REMARK    3  A    between atoms: N_3  and  C_5 
REMARK    4  A    between atoms: C_5  and  C_6 
REMARK       I    between atoms: C_16  and  N_17 
REMARK    5  A    between atoms: N_17  and  C_18 
REMARK    6  A    between atoms: C_19  and  C_20 
ROOT
HETATM    1  C   UNL     1     -41.077  52.944 -54.428  1.00  0.00     0.253 C 
HETATM    2  N   UNL     1     -40.035  52.789 -53.544  1.00  0.00    -0.325 N 
HETATM    3  O   UNL     1     -41.894  52.077 -54.744  1.00  0.00    -0.271 OA
HETATM    4  H   UNL     1     -39.212  53.373 -53.648  1.00  0.00     0.169 HD
ENDROOT
BRANCH   1   5
HETATM    5  C   UNL     1     -41.138  54.287 -55.183  1.00  0.00     0.275 C 
HETATM    6  C   UNL     1     -40.275  55.395 -54.599  1.00  0.00     0.050 C 
BRANCH   5   7
HETATM    7  N   UNL     1     -42.624  54.718 -55.334  1.00  0.00    -0.059 N 
HETATM    8  H   UNL     1     -43.081  53.822 -55.585  1.00  0.00     0.280 HD
HETATM    9  C   UNL     1     -42.832  55.643 -56.494  1.00  0.00     0.271 C 
BRANCH   7  10
HETATM   10  C   UNL     1     -43.372  55.187 -54.103  1.00  0.00     0.274 C 
BRANCH  10  11
HETATM   11  C   UNL     1     -43.583  56.672 -53.964  1.00  0.00    -0.030 A 
HETATM   12  C   UNL     1     -42.616  57.487 -53.352  1.00  0.00     0.048 A 
HETATM   13  C   UNL     1     -42.869  58.839 -53.241  1.00  0.00     0.105 A 
HETATM   14  C   UNL     1     -44.043  59.396 -53.680  1.00  0.00     0.105 A 
HETATM   15  O   UNL     1     -42.025  59.760 -52.706  1.00  0.00    -0.323 OA
HETATM   16  O   UNL     1     -44.090  60.738 -53.475  1.00  0.00    -0.323 OA
HETATM   17  C   UNL     1     -45.034  58.631 -54.250  1.00  0.00     0.040 A 
HETATM   18  C   UNL     1     -42.802  60.968 -52.862  1.00  0.00     0.352 A 
HETATM   19  C   UNL     1     -44.801  57.258 -54.389  1.00  0.00     0.012 A 
ENDBRANCH  10  11
ENDBRANCH   7  10
ENDBRANCH   5   7
ENDBRANCH   1   5
BRANCH   2  20
HETATM   20  C   UNL     1     -39.906  51.745 -52.591  1.00  0.00     0.045 A 
HETATM   21  C   UNL     1     -40.317  51.979 -51.257  1.00  0.00     0.001 A 
HETATM   22  C   UNL     1     -40.274  50.912 -50.339  1.00  0.00     0.014 A 
HETATM   23  C   UNL     1     -39.830  49.648 -50.725  1.00  0.00     0.001 A 
HETATM   24  C   UNL     1     -39.415  49.431 -52.033  1.00  0.00     0.002 A 
HETATM   25  C   UNL     1     -39.452  50.471 -52.963  1.00  0.00     0.030 A 
BRANCH  21  26
HETATM   26  C   UNL     1     -40.720  53.310 -50.775  1.00  0.00    -0.024 A 
HETATM   27  C   UNL     1     -39.796  54.173 -50.168  1.00  0.00     0.012 A 
HETATM   28  C   UNL     1     -40.189  55.438 -49.725  1.00  0.00     0.001 A 
HETATM   29  C   UNL     1     -41.510  55.856 -49.883  1.00  0.00     0.000 A 
HETATM   30  C   UNL     1     -42.439  55.012 -50.487  1.00  0.00     0.001 A 
HETATM   31  C   UNL     1     -42.046  53.750 -50.931  1.00  0.00     0.012 A 
ENDBRANCH  21  26
ENDBRANCH   2  20
TORSDOF 6
ENDMDL
MODEL 7
REMARK VINA RESULT:      -8.1      2.695      5.326
REMARK  6 active torsions:
REMARK  status: ('A' for Active; 'I' for Inactive)
REMARK    1  A    between atoms: C_2  and  N_3 
REMARK    2  A    between atoms: C_2  and  C_16 
REMARK    3  A    between atoms: N_3  and  C_5 
REMARK    4  A    between atoms: C_5  and  C_6 
REMARK       I    between atoms: C_16  and  N_17 
REMARK    5  A    between atoms: N_17  and  C_18 
REMARK    6  A    between atoms: C_19  and  C_20 
ROOT
HETATM    1  C   UNL     1     -43.641  56.979 -50.978  1.00  0.00     0.253 C 
HETATM    2  N   UNL     1     -42.332  56.640 -51.223  1.00  0.00    -0.325 N 
HETATM    3  O   UNL     1     -44.527  56.216 -50.587  1.00  0.00    -0.271 OA
HETATM    4  H   UNL     1     -41.802  57.181 -51.898  1.00  0.00     0.169 HD
ENDROOT
BRANCH   1   5
HETATM    5  C   UNL     1     -44.057  58.416 -51.353  1.00  0.00     0.275 C 
HETATM    6  C   UNL     1     -45.485  58.789 -50.988  1.00  0.00     0.050 C 
BRANCH   5   7
HETATM    7  N   UNL     1     -43.754  58.656 -52.859  1.00  0.00    -0.059 N 
HETATM    8  H   UNL     1     -42.782  58.305 -52.938  1.00  0.00     0.280 HD
HETATM    9  C   UNL     1     -43.712  60.113 -53.204  1.00  0.00     0.271 C 
BRANCH   7  10
HETATM   10  C   UNL     1     -44.525  57.859 -53.890  1.00  0.00     0.274 C 
BRANCH  10  11
HETATM   11  C   UNL     1     -44.009  57.901 -55.304  1.00  0.00    -0.030 A 
HETATM   12  C   UNL     1     -44.862  57.657 -56.393  1.00  0.00     0.048 A 
HETATM   13  C   UNL     1     -44.332  57.698 -57.667  1.00  0.00     0.105 A 
HETATM   14  C   UNL     1     -42.999  57.934 -57.891  1.00  0.00     0.105 A 
HETATM   15  O   UNL     1     -45.028  57.516 -58.820  1.00  0.00    -0.323 OA
HETATM   16  O   UNL     1     -42.686  57.929 -59.212  1.00  0.00    -0.323 OA
HETATM   17  C   UNL     1     -42.120  58.139 -56.853  1.00  0.00     0.040 A 
HETATM   18  C   UNL     1     -43.979  57.670 -59.801  1.00  0.00     0.352 A 
HETATM   19  C   UNL     1     -42.631  58.119 -55.550  1.00  0.00     0.012 A 
ENDBRANCH  10  11
ENDBRANCH   7  10
ENDBRANCH   5   7
ENDBRANCH   1   5
BRANCH   2  20
HETATM   20  C   UNL     1     -41.680  55.466 -50.761  1.00  0.00     0.045 A 
HETATM   21  C   UNL     1     -41.364  54.446 -51.690  1.00  0.00     0.001 A 
HETATM   22  C   UNL     1     -40.635  53.328 -51.243  1.00  0.00     0.014 A 
HETATM   23  C   UNL     1     -40.234  53.214 -49.913  1.00  0.00     0.001 A 
HETATM   24  C   UNL     1     -40.561  54.214 -49.004  1.00  0.00     0.002 A 
HETATM   25  C   UNL     1     -41.280  55.334 -49.423  1.00  0.00     0.030 A 
BRANCH  21  26
HETATM   26  C   UNL     1     -41.828  54.475 -53.086  1.00  0.00    -0.024 A 
HETATM   27  C   UNL     1     -43.180  54.286 -53.406  1.00  0.00     0.012 A 
HETATM   28  C   UNL     1     -43.609  54.327 -54.735  1.00  0.00     0.001 A 
HETATM   29  C   UNL     1     -42.693  54.558 -55.760  1.00  0.00     0.000 A 
HETATM   30  C   UNL     1     -41.347  54.753 -55.458  1.00  0.00     0.001 A 
HETATM   31  C   UNL     1     -40.919  54.713 -54.131  1.00  0.00     0.012 A 
ENDBRANCH  21  26
ENDBRANCH   2  20
TORSDOF 6
ENDMDL
MODEL 8
REMARK VINA RESULT:      -8.0      2.892      5.259
REMARK  6 active torsions:
REMARK  status: ('A' for Active; 'I' for Inactive)
REMARK    1  A    between atoms: C_2  and  N_3 
REMARK    2  A    between atoms: C_2  and  C_16 
REMARK    3  A    between atoms: N_3  and  C_5 
REMARK    4  A    between atoms: C_5  and  C_6 
REMARK       I    between atoms: C_16  and  N_17 
REMARK    5  A    between atoms: N_17  and  C_18 
REMARK    6  A    between atoms: C_19  and  C_20 
ROOT
HETATM    1  C   UNL     1     -42.866  55.262 -53.413  1.00  0.00     0.253 C 
HETATM    2  N   UNL     1     -42.282  54.186 -52.789  1.00  0.00    -0.325 N 
HETATM    3  O   UNL     1     -43.207  56.316 -52.873  1.00  0.00    -0.271 OA
HETATM    4  H   UNL     1     -42.408  53.260 -53.183  1.00  0.00     0.169 HD
ENDROOT
BRANCH   1   5
HETATM    5  C   UNL     1     -43.242  55.070 -54.897  1.00  0.00     0.275 C 
HETATM    6  C   UNL     1     -43.437  53.626 -55.330  1.00  0.00     0.050 C 
BRANCH   5   7
HETATM    7  N   UNL     1     -42.205  55.814 -55.784  1.00  0.00    -0.059 N 
HETATM    8  H   UNL     1     -41.964  55.088 -56.483  1.00  0.00     0.280 HD
HETATM    9  C   UNL     1     -40.943  56.128 -55.040  1.00  0.00     0.271 C 
BRANCH   7  10
HETATM   10  C   UNL     1     -42.673  56.991 -56.614  1.00  0.00     0.274 C 
BRANCH  10  11
HETATM   11  C   UNL     1     -43.567  56.682 -57.786  1.00  0.00    -0.030 A 
HETATM   12  C   UNL     1     -44.719  57.446 -58.039  1.00  0.00     0.048 A 
HETATM   13  C   UNL     1     -45.508  57.110 -59.121  1.00  0.00     0.105 A 
HETATM   14  C   UNL     1     -45.216  56.038 -59.925  1.00  0.00     0.105 A 
HETATM   15  O   UNL     1     -46.630  57.766 -59.515  1.00  0.00    -0.323 OA
HETATM   16  O   UNL     1     -46.118  55.881 -60.928  1.00  0.00    -0.323 OA
HETATM   17  C   UNL     1     -44.121  55.239 -59.692  1.00  0.00     0.040 A 
HETATM   18  C   UNL     1     -47.013  56.985 -60.670  1.00  0.00     0.352 A 
HETATM   19  C   UNL     1     -43.294  55.563 -58.610  1.00  0.00     0.012 A 
ENDBRANCH  10  11
ENDBRANCH   7  10
ENDBRANCH   5   7
ENDBRANCH   1   5
BRANCH   2  20
HETATM   20  C   UNL     1     -41.660  54.207 -51.512  1.00  0.00     0.045 A 
HETATM   21  C   UNL     1     -40.612  53.293 -51.245  1.00  0.00     0.001 A 
HETATM   22  C   UNL     1     -39.937  53.381 -50.013  1.00  0.00     0.014 A 
HETATM   23  C   UNL     1     -40.291  54.339 -49.064  1.00  0.00     0.001 A 
HETATM   24  C   UNL     1     -41.330  55.224 -49.329  1.00  0.00     0.002 A 
HETATM   25  C   UNL     1     -42.012  55.160 -50.546  1.00  0.00     0.030 A 
BRANCH  21  26
HETATM   26  C   UNL     1     -40.249  52.212 -52.175  1.00  0.00    -0.024 A 
HETATM   27  C   UNL     1     -39.873  50.945 -51.704  1.00  0.00     0.012 A 
HETATM   28  C   UNL     1     -39.541  49.924 -52.599  1.00  0.00     0.001 A 
HETATM   29  C   UNL     1     -39.581  50.156 -53.973  1.00  0.00     0.000 A 
HETATM   30  C   UNL     1     -39.957  51.408 -54.456  1.00  0.00     0.001 A 
HETATM   31  C   UNL     1     -40.289  52.427 -53.563  1.00  0.00     0.012 A 
ENDBRANCH  21  26
ENDBRANCH   2  20
TORSDOF 6
ENDMDL
MODEL 9
REMARK VINA RESULT:      -7.9      4.308      7.653
REMARK  6 active torsions:
REMARK  status: ('A' for Active; 'I' for Inactive)
REMARK    1  A    between atoms: C_2  and  N_3 
REMARK    2  A    between atoms: C_2  and  C_16 
REMARK    3  A    between atoms: N_3  and  C_5 
REMARK    4  A    between atoms: C_5  and  C_6 
REMARK       I    between atoms: C_16  and  N_17 
REMARK    5  A    between atoms: N_17  and  C_18 
REMARK    6  A    between atoms: C_19  and  C_20 
ROOT
HETATM    1  C   UNL     1     -42.415  56.322 -56.235  1.00  0.00     0.253 C 
HETATM    2  N   UNL     1     -41.290  56.150 -55.465  1.00  0.00    -0.325 N 
HETATM    3  O   UNL     1     -43.178  55.431 -56.614  1.00  0.00    -0.271 OA
HETATM    4  H   UNL     1     -40.534  56.822 -55.543  1.00  0.00     0.169 HD
ENDROOT
BRANCH   1   5
HETATM    5  C   UNL     1     -42.662  57.745 -56.777  1.00  0.00     0.275 C 
HETATM    6  C   UNL     1     -43.516  58.634 -55.887  1.00  0.00     0.050 C 
BRANCH   5   7
HETATM    7  N   UNL     1     -43.223  57.648 -58.223  1.00  0.00    -0.059 N 
HETATM    8  H   UNL     1     -43.562  56.670 -58.254  1.00  0.00     0.280 HD
HETATM    9  C   UNL     1     -42.145  57.759 -59.259  1.00  0.00     0.271 C 
BRANCH   7  10
HETATM   10  C   UNL     1     -44.436  58.477 -58.587  1.00  0.00     0.274 C 
BRANCH  10  11
HETATM   11  C   UNL     1     -45.451  57.832 -59.494  1.00  0.00    -0.030 A 
HETATM   12  C   UNL     1     -46.412  58.603 -60.170  1.00  0.00     0.048 A 
HETATM   13  C   UNL     1     -47.324  57.957 -60.980  1.00  0.00     0.105 A 
HETATM   14  C   UNL     1     -47.337  56.592 -61.112  1.00  0.00     0.105 A 
HETATM   15  O   UNL     1     -48.290  58.560 -61.721  1.00  0.00    -0.323 OA
HETATM   16  O   UNL     1     -48.314  56.161 -61.951  1.00  0.00    -0.323 OA
HETATM   17  C   UNL     1     -46.441  55.794 -60.438  1.00  0.00     0.040 A 
HETATM   18  C   UNL     1     -48.914  57.414 -62.342  1.00  0.00     0.352 A 
HETATM   19  C   UNL     1     -45.493  56.422 -59.621  1.00  0.00     0.012 A 
ENDBRANCH  10  11
ENDBRANCH   7  10
ENDBRANCH   5   7
ENDBRANCH   1   5
BRANCH   2  20
HETATM   20  C   UNL     1     -40.985  55.001 -54.689  1.00  0.00     0.045 A 
HETATM   21  C   UNL     1     -41.451  54.931 -53.354  1.00  0.00     0.001 A 
HETATM   22  C   UNL     1     -41.226  53.751 -52.621  1.00  0.00     0.014 A 
HETATM   23  C   UNL     1     -40.553  52.669 -53.186  1.00  0.00     0.001 A 
HETATM   24  C   UNL     1     -40.087  52.751 -54.493  1.00  0.00     0.002 A 
HETATM   25  C   UNL     1     -40.301  53.909 -55.243  1.00  0.00     0.030 A 
BRANCH  21  26
HETATM   26  C   UNL     1     -42.097  56.069 -52.681  1.00  0.00    -0.024 A 
HETATM   27  C   UNL     1     -43.491  56.217 -52.682  1.00  0.00     0.012 A 
HETATM   28  C   UNL     1     -44.092  57.298 -52.030  1.00  0.00     0.001 A 
HETATM   29  C   UNL     1     -43.307  58.241 -51.369  1.00  0.00     0.000 A 
HETATM   30  C   UNL     1     -41.921  58.106 -51.355  1.00  0.00     0.001 A 
HETATM   31  C   UNL     1     -41.321  57.027 -52.005  1.00  0.00     0.012 A 
ENDBRANCH  21  26
ENDBRANCH   2  20
TORSDOF 6
ENDMDL
MODEL 10
REMARK VINA RESULT:      -7.9      2.411      6.357
REMARK  6 active torsions:
REMARK  status: ('A' for Active; 'I' for Inactive)
REMARK    1  A    between atoms: C_2  and  N_3 
REMARK    2  A    between atoms: C_2  and  C_16 
REMARK    3  A    between atoms: N_3  and  C_5 
REMARK    4  A    between atoms: C_5  and  C_6 
REMARK       I    between atoms: C_16  and  N_17 
REMARK    5  A    between atoms: N_17  and  C_18 
REMARK    6  A    between atoms: C_19  and  C_20 
ROOT
HETATM    1  C   UNL     1     -43.518  56.313 -54.555  1.00  0.00     0.253 C 
HETATM    2  N   UNL     1     -43.229  57.483 -53.897  1.00  0.00    -0.325 N 
HETATM    3  O   UNL     1     -44.480  55.574 -54.333  1.00  0.00    -0.271 OA
HETATM    4  H   UNL     1     -42.265  57.795 -53.847  1.00  0.00     0.169 HD
ENDROOT
BRANCH   1   5
HETATM    5  C   UNL     1     -42.467  55.823 -55.572  1.00  0.00     0.275 C 
HETATM    6  C   UNL     1     -42.984  54.837 -56.608  1.00  0.00     0.050 C 
BRANCH   5   7
HETATM    7  N   UNL     1     -41.233  55.274 -54.804  1.00  0.00    -0.059 N 
HETATM    8  H   UNL     1     -41.630  55.098 -53.863  1.00  0.00     0.280 HD
HETATM    9  C   UNL     1     -40.167  56.313 -54.628  1.00  0.00     0.271 C 
BRANCH   7  10
HETATM   10  C   UNL     1     -40.652  53.940 -55.222  1.00  0.00     0.274 C 
BRANCH  10  11
HETATM   11  C   UNL     1     -40.320  52.970 -54.119  1.00  0.00    -0.030 A 
HETATM   12  C   UNL     1     -40.138  51.603 -54.389  1.00  0.00     0.048 A 
HETATM   13  C   UNL     1     -39.847  50.757 -53.337  1.00  0.00     0.105 A 
HETATM   14  C   UNL     1     -39.766  51.209 -52.045  1.00  0.00     0.105 A 
HETATM   15  O   UNL     1     -39.612  49.423 -53.437  1.00  0.00    -0.323 OA
HETATM   16  O   UNL     1     -39.473  50.216 -51.165  1.00  0.00    -0.323 OA
HETATM   17  C   UNL     1     -39.976  52.531 -51.729  1.00  0.00     0.040 A 
HETATM   18  C   UNL     1     -39.369  49.082 -52.054  1.00  0.00     0.352 A 
HETATM   19  C   UNL     1     -40.259  53.416 -52.776  1.00  0.00     0.012 A 
ENDBRANCH  10  11
ENDBRANCH   7  10
ENDBRANCH   5   7
ENDBRANCH   1   5
BRANCH   2  20
HETATM   20  C   UNL     1     -44.134  58.228 -53.095  1.00  0.00     0.045 A 
HETATM   21  C   UNL     1     -44.142  58.020 -51.694  1.00  0.00     0.001 A 
HETATM   22  C   UNL     1     -44.974  58.827 -50.896  1.00  0.00     0.014 A 
HETATM   23  C   UNL     1     -45.785  59.809 -51.464  1.00  0.00     0.001 A 
HETATM   24  C   UNL     1     -45.782  59.997 -52.841  1.00  0.00     0.002 A 
HETATM   25  C   UNL     1     -44.962  59.212 -53.654  1.00  0.00     0.030 A 
BRANCH  21  26
HETATM   26  C   UNL     1     -43.367  56.948 -51.050  1.00  0.00    -0.024 A 
HETATM   27  C   UNL     1     -42.046  57.157 -50.631  1.00  0.00     0.012 A 
HETATM   28  C   UNL     1     -41.325  56.133 -50.011  1.00  0.00     0.001 A 
HETATM   29  C   UNL     1     -41.917  54.888 -49.802  1.00  0.00     0.000 A 
HETATM   30  C   UNL     1     -43.231  54.665 -50.209  1.00  0.00     0.001 A 
HETATM   31  C   UNL     1     -43.950  55.688 -50.827  1.00  0.00     0.012 A 
ENDBRANCH  21  26
ENDBRANCH   2  20
TORSDOF 6
ENDMDL
