MODEL 1
REMARK VINA RESULT:      -8.9      0.000      0.000
REMARK  6 active torsions:
REMARK  status: ('A' for Active; 'I' for Inactive)
REMARK    1  A    between atoms: C_2  and  C_4 
REMARK    2  A    between atoms: C_2  and  C_11 
REMARK    3  A    between atoms: C_2  and  O_3 
REMARK    4  A    between atoms: C_11  and  N_12 
REMARK       I    between atoms: N_12  and  C_13 
REMARK    5  A    between atoms: C_13  and  C_14 
REMARK    6  A    between atoms: C_18  and  C_19 
ROOT
HETATM    1  N   UNL     1     -42.173  56.923 -57.511  1.00  0.00    -0.352 N 
HETATM    2  C   UNL     1     -42.144  57.076 -56.144  1.00  0.00     0.272 C 
HETATM    3  O   UNL     1     -42.123  58.168 -55.582  1.00  0.00    -0.266 OA
HETATM    4  H   UNL     1     -42.070  55.969 -57.848  1.00  0.00     0.162 HD
ENDROOT
BRANCH   2   5
HETATM    5  C   UNL     1     -42.130  55.801 -55.412  1.00  0.00     0.146 A 
HETATM    6  N   UNL     1     -43.234  55.044 -55.260  1.00  0.00    -0.169 NA
HETATM    7  N   UNL     1     -42.809  53.993 -54.538  1.00  0.00    -0.277 N 
HETATM    8  H   UNL     1     -43.491  53.293 -54.273  1.00  0.00     0.189 HD
HETATM    9  C   UNL     1     -41.472  54.014 -54.229  1.00  0.00     0.063 A 
HETATM   10  C   UNL     1     -41.013  55.194 -54.785  1.00  0.00     0.071 A 
BRANCH   9  11
HETATM   11  C   UNL     1     -40.788  52.978 -53.453  1.00  0.00    -0.008 A 
HETATM   12  C   UNL     1     -40.291  51.813 -54.062  1.00  0.00     0.017 A 
HETATM   13  C   UNL     1     -39.641  50.835 -53.303  1.00  0.00     0.043 A 
HETATM   14  C   UNL     1     -39.483  51.017 -51.935  1.00  0.00     0.116 A 
HETATM   15  F   UNL     1     -38.860  50.078 -51.211  1.00  0.00    -0.206 F 
HETATM   16  C   UNL     1     -39.960  52.160 -51.310  1.00  0.00     0.043 A 
HETATM   17  C   UNL     1     -40.611  53.139 -52.068  1.00  0.00     0.017 A 
ENDBRANCH   9  11
ENDBRANCH   2   5
BRANCH   1  18
HETATM   18  C   UNL     1     -42.087  58.036 -58.438  1.00  0.00     0.165 C 
BRANCH  18  19
HETATM   19  C   UNL     1     -42.334  57.643 -59.927  1.00  0.00     0.099 C 
HETATM   20  C   UNL     1     -42.041  58.835 -60.859  1.00  0.00     0.053 C 
BRANCH  19  21
HETATM   21  C   UNL     1     -43.765  57.085 -60.065  1.00  0.00    -0.001 A 
HETATM   22  C   UNL     1     -44.928  57.879 -59.961  1.00  0.00     0.043 A 
HETATM   23 CL   UNL     1     -44.883  59.584 -59.652  1.00  0.00    -0.084 Cl
HETATM   24  C   UNL     1     -46.207  57.326 -60.123  1.00  0.00     0.024 A 
HETATM   25  C   UNL     1     -46.363  55.974 -60.406  1.00  0.00     0.002 A 
HETATM   26  C   UNL     1     -45.239  55.172 -60.533  1.00  0.00     0.001 A 
HETATM   27  C   UNL     1     -43.962  55.719 -60.371  1.00  0.00     0.012 A 
ENDBRANCH  19  21
BRANCH  19  28
HETATM   28  O   UNL     1     -41.362  56.659 -60.326  1.00  0.00    -0.384 OA
HETATM   29  H   UNL     1     -40.577  57.128 -60.657  1.00  0.00     0.211 HD
ENDBRANCH  19  28
ENDBRANCH  18  19
ENDBRANCH   1  18
TORSDOF 6
ENDMDL
MODEL 2
REMARK VINA RESULT:      -8.6      1.080      1.451
REMARK  6 active torsions:
REMARK  status: ('A' for Active; 'I' for Inactive)
REMARK    1  A    between atoms: C_2  and  C_4 
REMARK    2  A    between atoms: C_2  and  C_11 
REMARK    3  A    between atoms: C_2  and  O_3 
REMARK    4  A    between atoms: C_11  and  N_12 
REMARK       I    between atoms: N_12  and  C_13 
REMARK    5  A    between atoms: C_13  and  C_14 
REMARK    6  A    between atoms: C_18  and  C_19 
ROOT
HETATM    1  N   UNL     1     -42.196  56.847 -57.597  1.00  0.00    -0.352 N 
HETATM    2  C   UNL     1     -42.150  56.873 -56.222  1.00  0.00     0.272 C 
HETATM    3  O   UNL     1     -42.168  57.907 -55.560  1.00  0.00    -0.266 OA
HETATM    4  H   UNL     1     -42.056  55.934 -58.022  1.00  0.00     0.162 HD
ENDROOT
BRANCH   2   5
HETATM    5  C   UNL     1     -42.066  55.538 -55.612  1.00  0.00     0.146 A 
HETATM    6  N   UNL     1     -42.994  54.586 -55.829  1.00  0.00    -0.169 NA
HETATM    7  N   UNL     1     -42.564  53.542 -55.099  1.00  0.00    -0.277 N 
HETATM    8  H   UNL     1     -43.134  52.705 -55.087  1.00  0.00     0.189 HD
HETATM    9  C   UNL     1     -41.384  53.757 -54.432  1.00  0.00     0.063 A 
HETATM   10  C   UNL     1     -41.048  55.061 -54.748  1.00  0.00     0.071 A 
BRANCH   9  11
HETATM   11  C   UNL     1     -40.728  52.767 -53.577  1.00  0.00    -0.008 A 
HETATM   12  C   UNL     1     -40.284  51.536 -54.088  1.00  0.00     0.017 A 
HETATM   13  C   UNL     1     -39.660  50.603 -53.255  1.00  0.00     0.043 A 
HETATM   14  C   UNL     1     -39.473  50.896 -51.911  1.00  0.00     0.116 A 
HETATM   15  F   UNL     1     -38.874  50.000 -51.115  1.00  0.00    -0.206 F 
HETATM   16  C   UNL     1     -39.896  52.107 -51.382  1.00  0.00     0.043 A 
HETATM   17  C   UNL     1     -40.522  53.041 -52.214  1.00  0.00     0.017 A 
ENDBRANCH   9  11
ENDBRANCH   2   5
BRANCH   1  18
HETATM   18  C   UNL     1     -42.176  58.043 -58.417  1.00  0.00     0.165 C 
BRANCH  18  19
HETATM   19  C   UNL     1     -42.465  57.784 -59.927  1.00  0.00     0.099 C 
HETATM   20  C   UNL     1     -41.835  58.888 -60.797  1.00  0.00     0.053 C 
BRANCH  19  21
HETATM   21  C   UNL     1     -43.987  57.632 -60.124  1.00  0.00    -0.001 A 
HETATM   22  C   UNL     1     -44.663  56.393 -60.069  1.00  0.00     0.043 A 
HETATM   23 CL   UNL     1     -43.853  54.888 -59.784  1.00  0.00    -0.084 Cl
HETATM   24  C   UNL     1     -46.054  56.313 -60.227  1.00  0.00     0.024 A 
HETATM   25  C   UNL     1     -46.811  57.461 -60.431  1.00  0.00     0.002 A 
HETATM   26  C   UNL     1     -46.179  58.695 -60.470  1.00  0.00     0.001 A 
HETATM   27  C   UNL     1     -44.791  58.779 -60.315  1.00  0.00     0.012 A 
ENDBRANCH  19  21
BRANCH  19  28
HETATM   28  O   UNL     1     -41.775  56.592 -60.345  1.00  0.00    -0.384 OA
HETATM   29  H   UNL     1     -41.835  55.941 -59.625  1.00  0.00     0.211 HD
ENDBRANCH  19  28
ENDBRANCH  18  19
ENDBRANCH   1  18
TORSDOF 6
ENDMDL
MODEL 3
REMARK VINA RESULT:      -8.2      1.376      1.741
REMARK  6 active torsions:
REMARK  status: ('A' for Active; 'I' for Inactive)
REMARK    1  A    between atoms: C_2  and  C_4 
REMARK    2  A    between atoms: C_2  and  C_11 
REMARK    3  A    between atoms: C_2  and  O_3 
REMARK    4  A    between atoms: C_11  and  N_12 
REMARK       I    between atoms: N_12  and  C_13 
REMARK    5  A    between atoms: C_13  and  C_14 
REMARK    6  A    between atoms: C_18  and  C_19 
ROOT
HETATM    1  N   UNL     1     -43.115  57.237 -55.918  1.00  0.00    -0.352 N 
HETATM    2  C   UNL     1     -42.202  57.434 -54.908  1.00  0.00     0.272 C 
HETATM    3  O   UNL     1     -41.656  58.511 -54.684  1.00  0.00    -0.266 OA
HETATM    4  H   UNL     1     -43.402  56.273 -56.068  1.00  0.00     0.162 HD
ENDROOT
BRANCH   2   5
HETATM    5  C   UNL     1     -41.929  56.222 -54.121  1.00  0.00     0.146 A 
HETATM    6  N   UNL     1     -42.320  56.092 -52.838  1.00  0.00    -0.169 NA
HETATM    7  N   UNL     1     -41.878  54.872 -52.487  1.00  0.00    -0.277 N 
HETATM    8  H   UNL     1     -42.037  54.566 -51.535  1.00  0.00     0.189 HD
HETATM    9  C   UNL     1     -41.235  54.186 -53.488  1.00  0.00     0.063 A 
HETATM   10  C   UNL     1     -41.250  55.058 -54.561  1.00  0.00     0.071 A 
BRANCH   9  11
HETATM   11  C   UNL     1     -40.669  52.845 -53.337  1.00  0.00    -0.008 A 
HETATM   12  C   UNL     1     -40.043  52.443 -52.145  1.00  0.00     0.017 A 
HETATM   13  C   UNL     1     -39.508  51.157 -52.020  1.00  0.00     0.043 A 
HETATM   14  C   UNL     1     -39.599  50.268 -53.083  1.00  0.00     0.116 A 
HETATM   15  F   UNL     1     -39.086  49.036 -52.959  1.00  0.00    -0.206 F 
HETATM   16  C   UNL     1     -40.218  50.637 -54.268  1.00  0.00     0.043 A 
HETATM   17  C   UNL     1     -40.752  51.924 -54.394  1.00  0.00     0.017 A 
ENDBRANCH   9  11
ENDBRANCH   2   5
BRANCH   1  18
HETATM   18  C   UNL     1     -43.462  58.260 -56.887  1.00  0.00     0.165 C 
BRANCH  18  19
HETATM   19  C   UNL     1     -42.953  57.965 -58.332  1.00  0.00     0.099 C 
HETATM   20  C   UNL     1     -42.768  59.276 -59.119  1.00  0.00     0.053 C 
BRANCH  19  21
HETATM   21  C   UNL     1     -43.917  56.968 -59.006  1.00  0.00    -0.001 A 
HETATM   22  C   UNL     1     -45.291  57.223 -59.209  1.00  0.00     0.043 A 
HETATM   23 CL   UNL     1     -46.063  58.691 -58.709  1.00  0.00    -0.084 Cl
HETATM   24  C   UNL     1     -46.119  56.292 -59.854  1.00  0.00     0.024 A 
HETATM   25  C   UNL     1     -45.601  55.091 -60.326  1.00  0.00     0.002 A 
HETATM   26  C   UNL     1     -44.251  54.820 -60.159  1.00  0.00     0.001 A 
HETATM   27  C   UNL     1     -43.423  55.745 -59.515  1.00  0.00     0.012 A 
ENDBRANCH  19  21
BRANCH  19  28
HETATM   28  O   UNL     1     -41.622  57.423 -58.265  1.00  0.00    -0.384 OA
HETATM   29  H   UNL     1     -41.317  57.259 -59.174  1.00  0.00     0.211 HD
ENDBRANCH  19  28
ENDBRANCH  18  19
ENDBRANCH   1  18
TORSDOF 6
ENDMDL
MODEL 4
REMARK VINA RESULT:      -8.0      2.356      3.087
REMARK  6 active torsions:
REMARK  status: ('A' for Active; 'I' for Inactive)
REMARK    1  A    between atoms: C_2  and  C_4 
REMARK    2  A    between atoms: C_2  and  C_11 
REMARK    3  A    between atoms: C_2  and  O_3 
REMARK    4  A    between atoms: C_11  and  N_12 
REMARK       I    between atoms: N_12  and  C_13 
REMARK    5  A    between atoms: C_13  and  C_14 
REMARK    6  A    between atoms: C_18  and  C_19 
ROOT
HETATM    1  N   UNL     1     -42.336  58.364 -55.039  1.00  0.00    -0.352 N 
HETATM    2  C   UNL     1     -41.368  58.301 -54.063  1.00  0.00     0.272 C 
HETATM    3  O   UNL     1     -40.654  59.250 -53.751  1.00  0.00    -0.266 OA
HETATM    4  H   UNL     1     -42.775  57.478 -55.279  1.00  0.00     0.162 HD
ENDROOT
BRANCH   2   5
HETATM    5  C   UNL     1     -41.260  56.979 -53.429  1.00  0.00     0.146 A 
HETATM    6  N   UNL     1     -41.681  56.745 -52.170  1.00  0.00    -0.169 NA
HETATM    7  N   UNL     1     -41.400  55.446 -51.971  1.00  0.00    -0.277 N 
HETATM    8  H   UNL     1     -41.608  55.050 -51.063  1.00  0.00     0.189 HD
HETATM    9  C   UNL     1     -40.836  54.810 -53.049  1.00  0.00     0.063 A 
HETATM   10  C   UNL     1     -40.728  55.799 -54.009  1.00  0.00     0.071 A 
BRANCH   9  11
HETATM   11  C   UNL     1     -40.445  53.399 -53.063  1.00  0.00    -0.008 A 
HETATM   12  C   UNL     1     -39.965  52.759 -51.909  1.00  0.00     0.017 A 
HETATM   13  C   UNL     1     -39.597  51.411 -51.942  1.00  0.00     0.043 A 
HETATM   14  C   UNL     1     -39.710  50.697 -53.128  1.00  0.00     0.116 A 
HETATM   15  F   UNL     1     -39.357  49.404 -53.156  1.00  0.00    -0.206 F 
HETATM   16  C   UNL     1     -40.187  51.303 -54.281  1.00  0.00     0.043 A 
HETATM   17  C   UNL     1     -40.554  52.652 -54.248  1.00  0.00     0.017 A 
ENDBRANCH   9  11
ENDBRANCH   2   5
BRANCH   1  18
HETATM   18  C   UNL     1     -42.553  59.533 -55.870  1.00  0.00     0.165 C 
BRANCH  18  19
HETATM   19  C   UNL     1     -43.704  59.369 -56.910  1.00  0.00     0.099 C 
HETATM   20  C   UNL     1     -44.985  58.856 -56.225  1.00  0.00     0.053 C 
BRANCH  19  21
HETATM   21  C   UNL     1     -43.212  58.467 -58.060  1.00  0.00    -0.001 A 
HETATM   22  C   UNL     1     -42.314  58.897 -59.062  1.00  0.00     0.043 A 
HETATM   23 CL   UNL     1     -41.666  60.503 -59.123  1.00  0.00    -0.084 Cl
HETATM   24  C   UNL     1     -41.875  58.027 -60.071  1.00  0.00     0.024 A 
HETATM   25  C   UNL     1     -42.306  56.705 -60.103  1.00  0.00     0.002 A 
HETATM   26  C   UNL     1     -43.172  56.248 -59.122  1.00  0.00     0.001 A 
HETATM   27  C   UNL     1     -43.614  57.113 -58.115  1.00  0.00     0.012 A 
ENDBRANCH  19  21
BRANCH  19  28
HETATM   28  O   UNL     1     -44.085  60.666 -57.406  1.00  0.00    -0.384 OA
HETATM   29  H   UNL     1     -43.399  60.963 -58.028  1.00  0.00     0.211 HD
ENDBRANCH  19  28
ENDBRANCH  18  19
ENDBRANCH   1  18
TORSDOF 6
ENDMDL
MODEL 5
REMARK VINA RESULT:      -8.0      2.213      3.822
REMARK  6 active torsions:
REMARK  status: ('A' for Active; 'I' for Inactive)
REMARK    1  A    between atoms: C_2  and  C_4 
REMARK    2  A    between atoms: C_2  and  C_11 
REMARK    3  A    between atoms: C_2  and  O_3 
REMARK    4  A    between atoms: C_11  and  N_12 
REMARK       I    between atoms: N_12  and  C_13 
REMARK    5  A    between atoms: C_13  and  C_14 
REMARK    6  A    between atoms: C_18  and  C_19 
ROOT
HETATM    1  N   UNL     1     -41.960  57.441 -57.341  1.00  0.00    -0.352 N 
HETATM    2  C   UNL     1     -42.838  56.388 -57.228  1.00  0.00     0.272 C 
HETATM    3  O   UNL     1     -43.707  56.134 -58.058  1.00  0.00    -0.266 OA
HETATM    4  H   UNL     1     -41.369  57.609 -56.530  1.00  0.00     0.162 HD
ENDROOT
BRANCH   2   5
HETATM    5  C   UNL     1     -42.646  55.594 -56.005  1.00  0.00     0.146 A 
HETATM    6  N   UNL     1     -43.517  55.628 -54.978  1.00  0.00    -0.169 NA
HETATM    7  N   UNL     1     -42.984  54.790 -54.073  1.00  0.00    -0.277 N 
HETATM    8  H   UNL     1     -43.465  54.678 -53.189  1.00  0.00     0.189 HD
HETATM    9  C   UNL     1     -41.815  54.189 -54.468  1.00  0.00     0.063 A 
HETATM   10  C   UNL     1     -41.573  54.710 -55.726  1.00  0.00     0.071 A 
BRANCH   9  11
HETATM   11  C   UNL     1     -41.056  53.241 -53.650  1.00  0.00    -0.008 A 
HETATM   12  C   UNL     1     -40.454  52.104 -54.212  1.00  0.00     0.017 A 
HETATM   13  C   UNL     1     -39.734  51.210 -53.413  1.00  0.00     0.043 A 
HETATM   14  C   UNL     1     -39.610  51.451 -52.052  1.00  0.00     0.116 A 
HETATM   15  F   UNL     1     -38.918  50.594 -51.289  1.00  0.00    -0.206 F 
HETATM   16  C   UNL     1     -40.189  52.571 -51.472  1.00  0.00     0.043 A 
HETATM   17  C   UNL     1     -40.911  53.464 -52.270  1.00  0.00     0.017 A 
ENDBRANCH   9  11
ENDBRANCH   2   5
BRANCH   1  18
HETATM   18  C   UNL     1     -42.026  58.421 -58.409  1.00  0.00     0.165 C 
BRANCH  18  19
HETATM   19  C   UNL     1     -42.250  59.884 -57.916  1.00  0.00     0.099 C 
HETATM   20  C   UNL     1     -43.751  60.164 -57.711  1.00  0.00     0.053 C 
BRANCH  19  21
HETATM   21  C   UNL     1     -41.568  60.852 -58.904  1.00  0.00    -0.001 A 
HETATM   22  C   UNL     1     -41.879  60.914 -60.280  1.00  0.00     0.043 A 
HETATM   23 CL   UNL     1     -43.064  59.893 -61.027  1.00  0.00    -0.084 Cl
HETATM   24  C   UNL     1     -41.249  61.834 -61.131  1.00  0.00     0.024 A 
HETATM   25  C   UNL     1     -40.303  62.725 -60.634  1.00  0.00     0.002 A 
HETATM   26  C   UNL     1     -39.991  62.702 -59.283  1.00  0.00     0.001 A 
HETATM   27  C   UNL     1     -40.615  61.785 -58.432  1.00  0.00     0.012 A 
ENDBRANCH  19  21
BRANCH  19  28
HETATM   28  O   UNL     1     -41.698  60.030 -56.595  1.00  0.00    -0.384 OA
HETATM   29  H   UNL     1     -40.932  60.626 -56.653  1.00  0.00     0.211 HD
ENDBRANCH  19  28
ENDBRANCH  18  19
ENDBRANCH   1  18
TORSDOF 6
ENDMDL
MODEL 6
REMARK VINA RESULT:      -7.8      2.570      3.609
REMARK  6 active torsions:
REMARK  status: ('A' for Active; 'I' for Inactive)
REMARK    1  A    between atoms: C_2  and  C_4 
REMARK    2  A    between atoms: C_2  and  C_11 
REMARK    3  A    between atoms: C_2  and  O_3 
REMARK    4  A    between atoms: C_11  and  N_12 
REMARK       I    between atoms: N_12  and  C_13 
REMARK    5  A    between atoms: C_13  and  C_14 
REMARK    6  A    between atoms: C_18  and  C_19 
ROOT
HETATM    1  N   UNL     1     -42.235  58.012 -55.229  1.00  0.00    -0.352 N 
HETATM    2  C   UNL     1     -41.516  58.040 -54.056  1.00  0.00     0.272 C 
HETATM    3  O   UNL     1     -41.043  59.064 -53.572  1.00  0.00    -0.266 OA
HETATM    4  H   UNL     1     -42.469  57.086 -55.578  1.00  0.00     0.162 HD
ENDROOT
BRANCH   2   5
HETATM    5  C   UNL     1     -41.357  56.717 -53.435  1.00  0.00     0.146 A 
HETATM    6  N   UNL     1     -41.709  56.472 -52.157  1.00  0.00    -0.169 NA
HETATM    7  N   UNL     1     -41.400  55.176 -51.979  1.00  0.00    -0.277 N 
HETATM    8  H   UNL     1     -41.556  54.773 -51.063  1.00  0.00     0.189 HD
HETATM    9  C   UNL     1     -40.883  54.553 -53.087  1.00  0.00     0.063 A 
HETATM   10  C   UNL     1     -40.839  55.547 -54.047  1.00  0.00     0.071 A 
BRANCH   9  11
HETATM   11  C   UNL     1     -40.474  53.148 -53.128  1.00  0.00    -0.008 A 
HETATM   12  C   UNL     1     -40.624  52.374 -54.291  1.00  0.00     0.017 A 
HETATM   13  C   UNL     1     -40.228  51.033 -54.310  1.00  0.00     0.043 A 
HETATM   14  C   UNL     1     -39.678  50.462 -53.170  1.00  0.00     0.116 A 
HETATM   15  F   UNL     1     -39.299  49.177 -53.192  1.00  0.00    -0.206 F 
HETATM   16  C   UNL     1     -39.513  51.206 -52.011  1.00  0.00     0.043 A 
HETATM   17  C   UNL     1     -39.910  52.546 -51.990  1.00  0.00     0.017 A 
ENDBRANCH   9  11
ENDBRANCH   2   5
BRANCH   1  18
HETATM   18  C   UNL     1     -42.431  59.178 -56.070  1.00  0.00     0.165 C 
BRANCH  18  19
HETATM   19  C   UNL     1     -42.818  58.842 -57.542  1.00  0.00     0.099 C 
HETATM   20  C   UNL     1     -42.431  57.392 -57.888  1.00  0.00     0.053 C 
BRANCH  19  21
HETATM   21  C   UNL     1     -42.184  59.893 -58.477  1.00  0.00    -0.001 A 
HETATM   22  C   UNL     1     -42.407  59.937 -59.870  1.00  0.00     0.043 A 
HETATM   23 CL   UNL     1     -43.417  58.800 -60.701  1.00  0.00    -0.084 Cl
HETATM   24  C   UNL     1     -41.828  60.932 -60.672  1.00  0.00     0.024 A 
HETATM   25  C   UNL     1     -41.024  61.916 -60.108  1.00  0.00     0.002 A 
HETATM   26  C   UNL     1     -40.802  61.911 -58.738  1.00  0.00     0.001 A 
HETATM   27  C   UNL     1     -41.376  60.920 -57.936  1.00  0.00     0.012 A 
ENDBRANCH  19  21
BRANCH  19  28
HETATM   28  O   UNL     1     -44.252  58.846 -57.670  1.00  0.00    -0.384 OA
HETATM   29  H   UNL     1     -44.508  58.086 -58.221  1.00  0.00     0.211 HD
ENDBRANCH  19  28
ENDBRANCH  18  19
ENDBRANCH   1  18
TORSDOF 6
ENDMDL
MODEL 7
REMARK VINA RESULT:      -7.7      5.968      9.213
REMARK  6 active torsions:
REMARK  status: ('A' for Active; 'I' for Inactive)
REMARK    1  A    between atoms: C_2  and  C_4 
REMARK    2  A    between atoms: C_2  and  C_11 
REMARK    3  A    between atoms: C_2  and  O_3 
REMARK    4  A    between atoms: C_11  and  N_12 
REMARK       I    between atoms: N_12  and  C_13 
REMARK    5  A    between atoms: C_13  and  C_14 
REMARK    6  A    between atoms: C_18  and  C_19 
ROOT
HETATM    1  N   UNL     1     -42.901  54.656 -52.968  1.00  0.00    -0.352 N 
HETATM    2  C   UNL     1     -43.477  55.785 -53.504  1.00  0.00     0.272 C 
HETATM    3  O   UNL     1     -43.615  55.971 -54.710  1.00  0.00    -0.266 OA
HETATM    4  H   UNL     1     -42.742  54.680 -51.964  1.00  0.00     0.162 HD
ENDROOT
BRANCH   2   5
HETATM    5  C   UNL     1     -43.906  56.761 -52.492  1.00  0.00     0.146 A 
HETATM    6  N   UNL     1     -43.973  56.458 -51.181  1.00  0.00    -0.169 NA
HETATM    7  N   UNL     1     -44.409  57.594 -50.609  1.00  0.00    -0.277 N 
HETATM    8  H   UNL     1     -44.565  57.591 -49.608  1.00  0.00     0.189 HD
HETATM    9  C   UNL     1     -44.609  58.635 -51.481  1.00  0.00     0.063 A 
HETATM   10  C   UNL     1     -44.293  58.106 -52.719  1.00  0.00     0.071 A 
BRANCH   9  11
HETATM   11  C   UNL     1     -45.081  59.963 -51.086  1.00  0.00    -0.008 A 
HETATM   12  C   UNL     1     -46.244  60.523 -51.641  1.00  0.00     0.017 A 
HETATM   13  C   UNL     1     -46.679  61.793 -51.251  1.00  0.00     0.043 A 
HETATM   14  C   UNL     1     -45.956  62.507 -50.304  1.00  0.00     0.116 A 
HETATM   15  F   UNL     1     -46.376  63.724 -49.932  1.00  0.00    -0.206 F 
HETATM   16  C   UNL     1     -44.808  61.975 -49.736  1.00  0.00     0.043 A 
HETATM   17  C   UNL     1     -44.372  60.705 -50.126  1.00  0.00     0.017 A 
ENDBRANCH   9  11
ENDBRANCH   2   5
BRANCH   1  18
HETATM   18  C   UNL     1     -42.310  53.605 -53.775  1.00  0.00     0.165 C 
BRANCH  18  19
HETATM   19  C   UNL     1     -40.751  53.594 -53.762  1.00  0.00     0.099 C 
HETATM   20  C   UNL     1     -40.194  54.075 -55.115  1.00  0.00     0.053 C 
BRANCH  19  21
HETATM   21  C   UNL     1     -40.265  52.187 -53.356  1.00  0.00    -0.001 A 
HETATM   22  C   UNL     1     -39.962  51.818 -52.028  1.00  0.00     0.043 A 
HETATM   23 CL   UNL     1     -40.088  52.913 -50.691  1.00  0.00    -0.084 Cl
HETATM   24  C   UNL     1     -39.551  50.515 -51.708  1.00  0.00     0.024 A 
HETATM   25  C   UNL     1     -39.444  49.543 -52.697  1.00  0.00     0.002 A 
HETATM   26  C   UNL     1     -39.755  49.871 -54.009  1.00  0.00     0.001 A 
HETATM   27  C   UNL     1     -40.163  51.169 -54.332  1.00  0.00     0.012 A 
ENDBRANCH  19  21
BRANCH  19  28
HETATM   28  O   UNL     1     -40.276  54.585 -52.832  1.00  0.00    -0.384 OA
HETATM   29  H   UNL     1     -39.684  55.189 -53.312  1.00  0.00     0.211 HD
ENDBRANCH  19  28
ENDBRANCH  18  19
ENDBRANCH   1  18
TORSDOF 6
ENDMDL
MODEL 8
REMARK VINA RESULT:      -7.7      4.841      9.118
REMARK  6 active torsions:
REMARK  status: ('A' for Active; 'I' for Inactive)
REMARK    1  A    between atoms: C_2  and  C_4 
REMARK    2  A    between atoms: C_2  and  C_11 
REMARK    3  A    between atoms: C_2  and  O_3 
REMARK    4  A    between atoms: C_11  and  N_12 
REMARK       I    between atoms: N_12  and  C_13 
REMARK    5  A    between atoms: C_13  and  C_14 
REMARK    6  A    between atoms: C_18  and  C_19 
ROOT
HETATM    1  N   UNL     1     -42.808  55.557 -54.514  1.00  0.00    -0.352 N 
HETATM    2  C   UNL     1     -43.611  56.527 -55.069  1.00  0.00     0.272 C 
HETATM    3  O   UNL     1     -44.695  56.863 -54.600  1.00  0.00    -0.266 OA
HETATM    4  H   UNL     1     -41.995  55.294 -55.065  1.00  0.00     0.162 HD
ENDROOT
BRANCH   2   5
HETATM    5  C   UNL     1     -43.052  57.122 -56.292  1.00  0.00     0.146 A 
HETATM    6  N   UNL     1     -42.641  56.375 -57.336  1.00  0.00    -0.169 NA
HETATM    7  N   UNL     1     -42.196  57.279 -58.225  1.00  0.00    -0.277 N 
HETATM    8  H   UNL     1     -41.806  56.936 -59.094  1.00  0.00     0.189 HD
HETATM    9  C   UNL     1     -42.317  58.586 -57.823  1.00  0.00     0.063 A 
HETATM   10  C   UNL     1     -42.866  58.503 -56.557  1.00  0.00     0.071 A 
BRANCH   9  11
HETATM   11  C   UNL     1     -41.899  59.738 -58.625  1.00  0.00    -0.008 A 
HETATM   12  C   UNL     1     -42.162  59.807 -60.003  1.00  0.00     0.017 A 
HETATM   13  C   UNL     1     -41.754  60.915 -60.751  1.00  0.00     0.043 A 
HETATM   14  C   UNL     1     -41.086  61.959 -60.126  1.00  0.00     0.116 A 
HETATM   15  F   UNL     1     -40.697  63.020 -60.846  1.00  0.00    -0.206 F 
HETATM   16  C   UNL     1     -40.818  61.919 -58.765  1.00  0.00     0.043 A 
HETATM   17  C   UNL     1     -41.225  60.810 -58.016  1.00  0.00     0.017 A 
ENDBRANCH   9  11
ENDBRANCH   2   5
BRANCH   1  18
HETATM   18  C   UNL     1     -43.200  54.761 -53.367  1.00  0.00     0.165 C 
BRANCH  18  19
HETATM   19  C   UNL     1     -42.094  54.631 -52.276  1.00  0.00     0.099 C 
HETATM   20  C   UNL     1     -41.360  55.972 -52.084  1.00  0.00     0.053 C 
BRANCH  19  21
HETATM   21  C   UNL     1     -41.160  53.461 -52.649  1.00  0.00    -0.001 A 
HETATM   22  C   UNL     1     -40.181  52.933 -51.779  1.00  0.00     0.043 A 
HETATM   23 CL   UNL     1     -39.904  53.551 -50.184  1.00  0.00    -0.084 Cl
HETATM   24  C   UNL     1     -39.377  51.848 -52.157  1.00  0.00     0.024 A 
HETATM   25  C   UNL     1     -39.533  51.251 -53.403  1.00  0.00     0.002 A 
HETATM   26  C   UNL     1     -40.500  51.735 -54.272  1.00  0.00     0.001 A 
HETATM   27  C   UNL     1     -41.303  52.817 -53.900  1.00  0.00     0.012 A 
ENDBRANCH  19  21
BRANCH  19  28
HETATM   28  O   UNL     1     -42.713  54.401 -50.996  1.00  0.00    -0.384 OA
HETATM   29  H   UNL     1     -42.009  54.228 -50.348  1.00  0.00     0.211 HD
ENDBRANCH  19  28
ENDBRANCH  18  19
ENDBRANCH   1  18
TORSDOF 6
ENDMDL
MODEL 9
REMARK VINA RESULT:      -7.7      4.794      8.897
REMARK  6 active torsions:
REMARK  status: ('A' for Active; 'I' for Inactive)
REMARK    1  A    between atoms: C_2  and  C_4 
REMARK    2  A    between atoms: C_2  and  C_11 
REMARK    3  A    between atoms: C_2  and  O_3 
REMARK    4  A    between atoms: C_11  and  N_12 
REMARK       I    between atoms: N_12  and  C_13 
REMARK    5  A    between atoms: C_13  and  C_14 
REMARK    6  A    between atoms: C_18  and  C_19 
ROOT
HETATM    1  N   UNL     1     -41.873  57.047 -52.715  1.00  0.00    -0.352 N 
HETATM    2  C   UNL     1     -42.450  58.295 -52.676  1.00  0.00     0.272 C 
HETATM    3  O   UNL     1     -43.037  58.743 -51.695  1.00  0.00    -0.266 OA
HETATM    4  H   UNL     1     -41.522  56.754 -53.623  1.00  0.00     0.162 HD
ENDROOT
BRANCH   2   5
HETATM    5  C   UNL     1     -42.307  59.046 -53.932  1.00  0.00     0.146 A 
HETATM    6  N   UNL     1     -42.181  60.387 -53.961  1.00  0.00    -0.169 NA
HETATM    7  N   UNL     1     -42.089  60.675 -55.271  1.00  0.00    -0.277 N 
HETATM    8  H   UNL     1     -42.015  61.650 -55.538  1.00  0.00     0.189 HD
HETATM    9  C   UNL     1     -42.126  59.583 -56.102  1.00  0.00     0.063 A 
HETATM   10  C   UNL     1     -42.278  58.509 -55.245  1.00  0.00     0.071 A 
BRANCH   9  11
HETATM   11  C   UNL     1     -42.044  59.654 -57.562  1.00  0.00    -0.008 A 
HETATM   12  C   UNL     1     -41.806  60.870 -58.225  1.00  0.00     0.017 A 
HETATM   13  C   UNL     1     -41.732  60.917 -59.620  1.00  0.00     0.043 A 
HETATM   14  C   UNL     1     -41.891  59.752 -60.357  1.00  0.00     0.116 A 
HETATM   15  F   UNL     1     -41.818  59.800 -61.694  1.00  0.00    -0.206 F 
HETATM   16  C   UNL     1     -42.121  58.537 -59.727  1.00  0.00     0.043 A 
HETATM   17  C   UNL     1     -42.197  58.489 -58.332  1.00  0.00     0.017 A 
ENDBRANCH   9  11
ENDBRANCH   2   5
BRANCH   1  18
HETATM   18  C   UNL     1     -41.976  56.088 -51.631  1.00  0.00     0.165 C 
BRANCH  18  19
HETATM   19  C   UNL     1     -42.700  54.763 -52.021  1.00  0.00     0.099 C 
HETATM   20  C   UNL     1     -43.597  54.275 -50.868  1.00  0.00     0.053 C 
BRANCH  19  21
HETATM   21  C   UNL     1     -41.644  53.730 -52.466  1.00  0.00    -0.001 A 
HETATM   22  C   UNL     1     -40.704  53.146 -51.589  1.00  0.00     0.043 A 
HETATM   23 CL   UNL     1     -40.619  53.532 -49.901  1.00  0.00    -0.084 Cl
HETATM   24  C   UNL     1     -39.783  52.189 -52.039  1.00  0.00     0.024 A 
HETATM   25  C   UNL     1     -39.780  51.778 -53.367  1.00  0.00     0.002 A 
HETATM   26  C   UNL     1     -40.704  52.320 -54.249  1.00  0.00     0.001 A 
HETATM   27  C   UNL     1     -41.623  53.276 -53.804  1.00  0.00     0.012 A 
ENDBRANCH  19  21
BRANCH  19  28
HETATM   28  O   UNL     1     -43.634  55.027 -53.084  1.00  0.00    -0.384 OA
HETATM   29  H   UNL     1     -43.636  54.259 -53.681  1.00  0.00     0.211 HD
ENDBRANCH  19  28
ENDBRANCH  18  19
ENDBRANCH   1  18
TORSDOF 6
ENDMDL
MODEL 10
REMARK VINA RESULT:      -7.6      4.412      9.308
REMARK  6 active torsions:
REMARK  status: ('A' for Active; 'I' for Inactive)
REMARK    1  A    between atoms: C_2  and  C_4 
REMARK    2  A    between atoms: C_2  and  C_11 
REMARK    3  A    between atoms: C_2  and  O_3 
REMARK    4  A    between atoms: C_11  and  N_12 
REMARK       I    between atoms: N_12  and  C_13 
REMARK    5  A    between atoms: C_13  and  C_14 
REMARK    6  A    between atoms: C_18  and  C_19 
ROOT
HETATM    1  N   UNL     1     -41.733  55.553 -55.902  1.00  0.00    -0.352 N 
HETATM    2  C   UNL     1     -42.329  56.703 -56.367  1.00  0.00     0.272 C 
HETATM    3  O   UNL     1     -42.090  57.821 -55.920  1.00  0.00    -0.266 OA
HETATM    4  H   UNL     1     -42.105  54.684 -56.278  1.00  0.00     0.162 HD
ENDROOT
BRANCH   2   5
HETATM    5  C   UNL     1     -43.294  56.466 -57.451  1.00  0.00     0.146 A 
HETATM    6  N   UNL     1     -43.394  55.279 -58.081  1.00  0.00    -0.169 NA
HETATM    7  N   UNL     1     -44.363  55.477 -58.992  1.00  0.00    -0.277 N 
HETATM    8  H   UNL     1     -44.593  54.711 -59.613  1.00  0.00     0.189 HD
HETATM    9  C   UNL     1     -44.919  56.732 -58.973  1.00  0.00     0.063 A 
HETATM   10  C   UNL     1     -44.226  57.396 -57.978  1.00  0.00     0.071 A 
BRANCH   9  11
HETATM   11  C   UNL     1     -45.986  57.175 -59.872  1.00  0.00    -0.008 A 
HETATM   12  C   UNL     1     -46.318  58.533 -60.002  1.00  0.00     0.017 A 
HETATM   13  C   UNL     1     -47.341  58.937 -60.866  1.00  0.00     0.043 A 
HETATM   14  C   UNL     1     -48.033  57.986 -61.604  1.00  0.00     0.116 A 
HETATM   15  F   UNL     1     -49.013  58.376 -62.431  1.00  0.00    -0.206 F 
HETATM   16  C   UNL     1     -47.721  56.638 -61.498  1.00  0.00     0.043 A 
HETATM   17  C   UNL     1     -46.699  56.234 -60.634  1.00  0.00     0.017 A 
ENDBRANCH   9  11
ENDBRANCH   2   5
BRANCH   1  18
HETATM   18  C   UNL     1     -40.827  55.528 -54.769  1.00  0.00     0.165 C 
BRANCH  18  19
HETATM   19  C   UNL     1     -41.477  55.018 -53.447  1.00  0.00     0.099 C 
HETATM   20  C   UNL     1     -41.468  56.125 -52.375  1.00  0.00     0.053 C 
BRANCH  19  21
HETATM   21  C   UNL     1     -40.762  53.724 -53.007  1.00  0.00    -0.001 A 
HETATM   22  C   UNL     1     -40.655  53.308 -51.662  1.00  0.00     0.043 A 
HETATM   23 CL   UNL     1     -41.307  54.216 -50.338  1.00  0.00    -0.084 Cl
HETATM   24  C   UNL     1     -40.018  52.106 -51.318  1.00  0.00     0.024 A 
HETATM   25  C   UNL     1     -39.485  51.281 -52.301  1.00  0.00     0.002 A 
HETATM   26  C   UNL     1     -39.592  51.653 -53.634  1.00  0.00     0.001 A 
HETATM   27  C   UNL     1     -40.223  52.851 -53.980  1.00  0.00     0.012 A 
ENDBRANCH  19  21
BRANCH  19  28
HETATM   28  O   UNL     1     -42.879  54.777 -53.668  1.00  0.00    -0.384 OA
HETATM   29  H   UNL     1     -43.341  54.892 -52.820  1.00  0.00     0.211 HD
ENDBRANCH  19  28
ENDBRANCH  18  19
ENDBRANCH   1  18
TORSDOF 6
ENDMDL
