MODEL 1
REMARK VINA RESULT:      -8.6      0.000      0.000
REMARK  6 active torsions:
REMARK  status: ('A' for Active; 'I' for Inactive)
REMARK    1  A    between atoms: C_4  and  C_5 
REMARK    2  A    between atoms: C_7  and  N_8 
REMARK       I    between atoms: N_8  and  C_9 
REMARK    3  A    between atoms: C_9  and  C_10 
REMARK    4  A    between atoms: C_10  and  N_11 
REMARK    5  A    between atoms: C_10  and  C_15 
REMARK       I    between atoms: N_11  and  C_12 
REMARK       I    between atoms: C_12  and  N_13 
REMARK    6  A    between atoms: C_15  and  C_16 
ROOT
HETATM    1  N   UNL     1     -41.851  56.942 -54.790  1.00  0.00    -0.325 N 
HETATM    2  C   UNL     1     -43.060  57.036 -55.450  1.00  0.00     0.245 C 
HETATM    3  O   UNL     1     -44.140  56.604 -55.047  1.00  0.00    -0.271 OA
HETATM    4  H   UNL     1     -41.090  57.501 -55.174  1.00  0.00     0.169 HD
ENDROOT
BRANCH   2   5
HETATM    5  C   UNL     1     -43.000  57.794 -56.798  1.00  0.00     0.182 C 
BRANCH   5   6
HETATM    6  N   UNL     1     -42.102  58.952 -56.687  1.00  0.00    -0.334 N 
HETATM    7  C   UNL     1     -42.267  60.092 -57.407  1.00  0.00     0.292 C 
HETATM    8  N   UNL     1     -41.357  61.043 -57.089  1.00  0.00    -0.254 NA
HETATM    9  O   UNL     1     -43.125  60.269 -58.260  1.00  0.00    -0.254 OA
HETATM   10  H   UNL     1     -40.421  60.722 -56.883  1.00  0.00     0.128 HD
HETATM   11  H   UNL     1     -41.392  61.852 -57.697  1.00  0.00     0.128 HD
HETATM   12  H   UNL     1     -41.596  59.054 -55.820  1.00  0.00     0.164 HD
ENDBRANCH   5   6
BRANCH   5  13
HETATM   13  C   UNL     1     -42.702  56.907 -58.023  1.00  0.00     0.073 C 
BRANCH  13  14
HETATM   14  C   UNL     1     -43.854  56.450 -58.893  1.00  0.00    -0.056 A 
HETATM   15  C   UNL     1     -43.834  55.293 -59.683  1.00  0.00     0.007 A 
HETATM   16  C   UNL     1     -44.937  54.951 -60.471  1.00  0.00     0.001 A 
HETATM   17  C   UNL     1     -46.079  55.745 -60.469  1.00  0.00     0.000 A 
HETATM   18  C   UNL     1     -46.125  56.886 -59.674  1.00  0.00     0.001 A 
HETATM   19  C   UNL     1     -45.022  57.233 -58.893  1.00  0.00     0.007 A 
ENDBRANCH  13  14
ENDBRANCH   5  13
ENDBRANCH   2   5
BRANCH   1  20
HETATM   20  C   UNL     1     -41.561  56.233 -53.608  1.00  0.00     0.035 A 
HETATM   21  C   UNL     1     -41.067  54.925 -53.577  1.00  0.00     0.045 A 
HETATM   22  C   UNL     1     -40.791  54.281 -52.358  1.00  0.00     0.019 A 
HETATM   23  C   UNL     1     -40.993  54.985 -51.163  1.00  0.00     0.016 A 
HETATM   24  C   UNL     1     -41.483  56.289 -51.181  1.00  0.00     0.003 A 
HETATM   25  C   UNL     1     -41.776  56.905 -52.398  1.00  0.00     0.029 A 
BRANCH  22  26
HETATM   26  C   UNL     1     -40.318  52.900 -52.308  1.00  0.00     0.180 A 
HETATM   27  N   UNL     1     -40.071  52.138 -51.257  1.00  0.00    -0.226 NA
HETATM   28  C   UNL     1     -39.698  50.926 -51.796  1.00  0.00     0.063 A 
HETATM   29  C   UNL     1     -39.330  49.786 -50.934  1.00  0.00     0.073 C 
HETATM   30  C   UNL     1     -39.749  51.000 -53.171  1.00  0.00     0.076 A 
HETATM   31  O   UNL     1     -40.137  52.264 -53.509  1.00  0.00    -0.294 OA
HETATM   32  C   UNL     1     -39.490  50.058 -54.273  1.00  0.00     0.079 C 
ENDBRANCH  22  26
ENDBRANCH   1  20
TORSDOF 6
ENDMDL
MODEL 2
REMARK VINA RESULT:      -8.4      2.544      8.793
REMARK  6 active torsions:
REMARK  status: ('A' for Active; 'I' for Inactive)
REMARK    1  A    between atoms: C_4  and  C_5 
REMARK    2  A    between atoms: C_7  and  N_8 
REMARK       I    between atoms: N_8  and  C_9 
REMARK    3  A    between atoms: C_9  and  C_10 
REMARK    4  A    between atoms: C_10  and  N_11 
REMARK    5  A    between atoms: C_10  and  C_15 
REMARK       I    between atoms: N_11  and  C_12 
REMARK       I    between atoms: C_12  and  N_13 
REMARK    6  A    between atoms: C_15  and  C_16 
ROOT
HETATM    1  N   UNL     1     -42.962  55.978 -56.025  1.00  0.00    -0.325 N 
HETATM    2  C   UNL     1     -43.525  56.628 -54.945  1.00  0.00     0.245 C 
HETATM    3  O   UNL     1     -44.188  57.665 -54.990  1.00  0.00    -0.271 OA
HETATM    4  H   UNL     1     -42.596  55.044 -55.840  1.00  0.00     0.169 HD
ENDROOT
BRANCH   2   5
HETATM    5  C   UNL     1     -43.302  55.928 -53.584  1.00  0.00     0.182 C 
BRANCH   5   6
HETATM    6  N   UNL     1     -44.240  56.456 -52.583  1.00  0.00    -0.334 N 
HETATM    7  C   UNL     1     -43.852  56.892 -51.357  1.00  0.00     0.292 C 
HETATM    8  N   UNL     1     -44.881  57.393 -50.635  1.00  0.00    -0.254 NA
HETATM    9  O   UNL     1     -42.711  56.843 -50.920  1.00  0.00    -0.254 OA
HETATM   10  H   UNL     1     -45.771  56.925 -50.731  1.00  0.00     0.128 HD
HETATM   11  H   UNL     1     -44.632  57.612 -49.678  1.00  0.00     0.128 HD
HETATM   12  H   UNL     1     -45.103  56.846 -52.932  1.00  0.00     0.164 HD
ENDBRANCH   5   6
BRANCH   5  13
HETATM   13  C   UNL     1     -43.282  54.388 -53.647  1.00  0.00     0.073 C 
BRANCH  13  14
HETATM   14  C   UNL     1     -42.034  53.653 -53.201  1.00  0.00    -0.056 A 
HETATM   15  C   UNL     1     -41.517  53.698 -51.900  1.00  0.00     0.007 A 
HETATM   16  C   UNL     1     -40.349  53.001 -51.575  1.00  0.00     0.001 A 
HETATM   17  C   UNL     1     -39.693  52.237 -52.536  1.00  0.00     0.000 A 
HETATM   18  C   UNL     1     -40.205  52.164 -53.827  1.00  0.00     0.001 A 
HETATM   19  C   UNL     1     -41.366  52.865 -54.155  1.00  0.00     0.007 A 
ENDBRANCH  13  14
ENDBRANCH   5  13
ENDBRANCH   2   5
BRANCH   1  20
HETATM   20  C   UNL     1     -42.902  56.411 -57.364  1.00  0.00     0.035 A 
HETATM   21  C   UNL     1     -42.460  57.677 -57.761  1.00  0.00     0.045 A 
HETATM   22  C   UNL     1     -42.417  58.039 -59.119  1.00  0.00     0.019 A 
HETATM   23  C   UNL     1     -42.802  57.095 -60.080  1.00  0.00     0.016 A 
HETATM   24  C   UNL     1     -43.243  55.830 -59.697  1.00  0.00     0.003 A 
HETATM   25  C   UNL     1     -43.302  55.495 -58.344  1.00  0.00     0.029 A 
BRANCH  22  26
HETATM   26  C   UNL     1     -42.001  59.372 -59.547  1.00  0.00     0.180 A 
HETATM   27  N   UNL     1     -42.005  59.902 -60.757  1.00  0.00    -0.226 NA
HETATM   28  C   UNL     1     -41.556  61.190 -60.567  1.00  0.00     0.063 A 
HETATM   29  C   UNL     1     -41.411  62.126 -61.699  1.00  0.00     0.073 C 
HETATM   30  C   UNL     1     -41.307  61.396 -59.227  1.00  0.00     0.076 A 
HETATM   31  O   UNL     1     -41.581  60.233 -58.566  1.00  0.00    -0.294 OA
HETATM   32  C   UNL     1     -40.840  62.535 -58.420  1.00  0.00     0.079 C 
ENDBRANCH  22  26
ENDBRANCH   1  20
TORSDOF 6
ENDMDL
MODEL 3
REMARK VINA RESULT:      -8.4      2.416      8.849
REMARK  6 active torsions:
REMARK  status: ('A' for Active; 'I' for Inactive)
REMARK    1  A    between atoms: C_4  and  C_5 
REMARK    2  A    between atoms: C_7  and  N_8 
REMARK       I    between atoms: N_8  and  C_9 
REMARK    3  A    between atoms: C_9  and  C_10 
REMARK    4  A    between atoms: C_10  and  N_11 
REMARK    5  A    between atoms: C_10  and  C_15 
REMARK       I    between atoms: N_11  and  C_12 
REMARK       I    between atoms: C_12  and  N_13 
REMARK    6  A    between atoms: C_15  and  C_16 
ROOT
HETATM    1  N   UNL     1     -42.778  56.063 -56.045  1.00  0.00    -0.325 N 
HETATM    2  C   UNL     1     -43.344  56.585 -54.899  1.00  0.00     0.245 C 
HETATM    3  O   UNL     1     -44.017  57.613 -54.827  1.00  0.00    -0.271 OA
HETATM    4  H   UNL     1     -42.402  55.118 -55.965  1.00  0.00     0.169 HD
ENDROOT
BRANCH   2   5
HETATM    5  C   UNL     1     -43.107  55.742 -53.623  1.00  0.00     0.182 C 
BRANCH   5   6
HETATM    6  N   UNL     1     -44.116  56.071 -52.606  1.00  0.00    -0.334 N 
HETATM    7  C   UNL     1     -43.804  56.587 -51.389  1.00  0.00     0.292 C 
HETATM    8  N   UNL     1     -44.901  56.869 -50.648  1.00  0.00    -0.254 NA
HETATM    9  O   UNL     1     -42.669  56.781 -50.975  1.00  0.00    -0.254 OA
HETATM   10  H   UNL     1     -45.676  56.224 -50.724  1.00  0.00     0.128 HD
HETATM   11  H   UNL     1     -44.684  57.142 -49.697  1.00  0.00     0.128 HD
HETATM   12  H   UNL     1     -45.048  56.269 -52.938  1.00  0.00     0.164 HD
ENDBRANCH   5   6
BRANCH   5  13
HETATM   13  C   UNL     1     -42.962  54.227 -53.869  1.00  0.00     0.073 C 
BRANCH  13  14
HETATM   14  C   UNL     1     -41.782  53.497 -53.262  1.00  0.00    -0.056 A 
HETATM   15  C   UNL     1     -41.388  53.613 -51.922  1.00  0.00     0.007 A 
HETATM   16  C   UNL     1     -40.275  52.914 -51.445  1.00  0.00     0.001 A 
HETATM   17  C   UNL     1     -39.551  52.079 -52.290  1.00  0.00     0.000 A 
HETATM   18  C   UNL     1     -39.940  51.936 -53.618  1.00  0.00     0.001 A 
HETATM   19  C   UNL     1     -41.047  52.637 -54.097  1.00  0.00     0.007 A 
ENDBRANCH  13  14
ENDBRANCH   5  13
ENDBRANCH   2   5
BRANCH   1  20
HETATM   20  C   UNL     1     -42.728  56.641 -57.329  1.00  0.00     0.035 A 
HETATM   21  C   UNL     1     -42.282  57.941 -57.588  1.00  0.00     0.045 A 
HETATM   22  C   UNL     1     -42.251  58.450 -58.898  1.00  0.00     0.019 A 
HETATM   23  C   UNL     1     -42.650  57.620 -59.954  1.00  0.00     0.016 A 
HETATM   24  C   UNL     1     -43.094  56.322 -59.708  1.00  0.00     0.003 A 
HETATM   25  C   UNL     1     -43.143  55.840 -58.399  1.00  0.00     0.029 A 
BRANCH  22  26
HETATM   26  C   UNL     1     -41.830  59.820 -59.180  1.00  0.00     0.180 A 
HETATM   27  N   UNL     1     -41.388  60.747 -58.349  1.00  0.00    -0.226 NA
HETATM   28  C   UNL     1     -41.098  61.822 -59.161  1.00  0.00     0.063 A 
HETATM   29  C   UNL     1     -40.573  63.084 -58.603  1.00  0.00     0.073 C 
HETATM   30  C   UNL     1     -41.366  61.492 -60.472  1.00  0.00     0.076 A 
HETATM   31  O   UNL     1     -41.845  60.214 -60.493  1.00  0.00    -0.294 OA
HETATM   32  C   UNL     1     -41.250  62.189 -61.764  1.00  0.00     0.079 C 
ENDBRANCH  22  26
ENDBRANCH   1  20
TORSDOF 6
ENDMDL
MODEL 4
REMARK VINA RESULT:      -8.3      2.324      7.919
REMARK  6 active torsions:
REMARK  status: ('A' for Active; 'I' for Inactive)
REMARK    1  A    between atoms: C_4  and  C_5 
REMARK    2  A    between atoms: C_7  and  N_8 
REMARK       I    between atoms: N_8  and  C_9 
REMARK    3  A    between atoms: C_9  and  C_10 
REMARK    4  A    between atoms: C_10  and  N_11 
REMARK    5  A    between atoms: C_10  and  C_15 
REMARK       I    between atoms: N_11  and  C_12 
REMARK       I    between atoms: C_12  and  N_13 
REMARK    6  A    between atoms: C_15  and  C_16 
ROOT
HETATM    1  N   UNL     1     -41.625  57.238 -53.822  1.00  0.00    -0.325 N 
HETATM    2  C   UNL     1     -42.314  56.714 -52.747  1.00  0.00     0.245 C 
HETATM    3  O   UNL     1     -43.536  56.589 -52.661  1.00  0.00    -0.271 OA
HETATM    4  H   UNL     1     -40.613  57.110 -53.807  1.00  0.00     0.169 HD
ENDROOT
BRANCH   2   5
HETATM    5  C   UNL     1     -41.417  56.222 -51.585  1.00  0.00     0.182 C 
BRANCH   5   6
HETATM    6  N   UNL     1     -41.502  57.154 -50.452  1.00  0.00    -0.334 N 
HETATM    7  C   UNL     1     -40.898  58.371 -50.444  1.00  0.00     0.292 C 
HETATM    8  N   UNL     1     -41.170  59.077 -49.322  1.00  0.00    -0.254 NA
HETATM    9  O   UNL     1     -40.177  58.806 -51.330  1.00  0.00    -0.254 OA
HETATM   10  H   UNL     1     -41.230  58.553 -48.460  1.00  0.00     0.128 HD
HETATM   11  H   UNL     1     -40.635  59.934 -49.246  1.00  0.00     0.128 HD
HETATM   12  H   UNL     1     -42.303  57.061 -49.846  1.00  0.00     0.164 HD
ENDBRANCH   5   6
BRANCH   5  13
HETATM   13  C   UNL     1     -41.635  54.751 -51.182  1.00  0.00     0.073 C 
BRANCH  13  14
HETATM   14  C   UNL     1     -40.965  53.662 -51.994  1.00  0.00    -0.056 A 
HETATM   15  C   UNL     1     -41.142  53.487 -53.373  1.00  0.00     0.007 A 
HETATM   16  C   UNL     1     -40.496  52.444 -54.046  1.00  0.00     0.001 A 
HETATM   17  C   UNL     1     -39.654  51.576 -53.358  1.00  0.00     0.000 A 
HETATM   18  C   UNL     1     -39.451  51.748 -51.993  1.00  0.00     0.001 A 
HETATM   19  C   UNL     1     -40.100  52.783 -51.319  1.00  0.00     0.007 A 
ENDBRANCH  13  14
ENDBRANCH   5  13
ENDBRANCH   2   5
BRANCH   1  20
HETATM   20  C   UNL     1     -42.152  57.856 -54.973  1.00  0.00     0.035 A 
HETATM   21  C   UNL     1     -42.853  57.180 -55.976  1.00  0.00     0.045 A 
HETATM   22  C   UNL     1     -43.361  57.864 -57.094  1.00  0.00     0.019 A 
HETATM   23  C   UNL     1     -43.176  59.250 -57.178  1.00  0.00     0.016 A 
HETATM   24  C   UNL     1     -42.480  59.935 -56.184  1.00  0.00     0.003 A 
HETATM   25  C   UNL     1     -41.961  59.238 -55.092  1.00  0.00     0.029 A 
BRANCH  22  26
HETATM   26  C   UNL     1     -44.057  57.165 -58.172  1.00  0.00     0.180 A 
HETATM   27  N   UNL     1     -43.752  56.023 -58.762  1.00  0.00    -0.226 NA
HETATM   28  C   UNL     1     -44.772  55.824 -59.666  1.00  0.00     0.063 A 
HETATM   29  C   UNL     1     -44.799  54.636 -60.542  1.00  0.00     0.073 C 
HETATM   30  C   UNL     1     -45.675  56.861 -59.575  1.00  0.00     0.076 A 
HETATM   31  O   UNL     1     -45.220  57.731 -58.626  1.00  0.00    -0.294 OA
HETATM   32  C   UNL     1     -46.942  57.199 -60.246  1.00  0.00     0.079 C 
ENDBRANCH  22  26
ENDBRANCH   1  20
TORSDOF 6
ENDMDL
MODEL 5
REMARK VINA RESULT:      -8.0      2.963      4.982
REMARK  6 active torsions:
REMARK  status: ('A' for Active; 'I' for Inactive)
REMARK    1  A    between atoms: C_4  and  C_5 
REMARK    2  A    between atoms: C_7  and  N_8 
REMARK       I    between atoms: N_8  and  C_9 
REMARK    3  A    between atoms: C_9  and  C_10 
REMARK    4  A    between atoms: C_10  and  N_11 
REMARK    5  A    between atoms: C_10  and  C_15 
REMARK       I    between atoms: N_11  and  C_12 
REMARK       I    between atoms: C_12  and  N_13 
REMARK    6  A    between atoms: C_15  and  C_16 
ROOT
HETATM    1  N   UNL     1     -41.937  57.613 -53.622  1.00  0.00    -0.325 N 
HETATM    2  C   UNL     1     -41.332  58.832 -53.858  1.00  0.00     0.245 C 
HETATM    3  O   UNL     1     -40.282  59.228 -53.352  1.00  0.00    -0.271 OA
HETATM    4  H   UNL     1     -42.704  57.369 -54.249  1.00  0.00     0.169 HD
ENDROOT
BRANCH   2   5
HETATM    5  C   UNL     1     -42.065  59.727 -54.886  1.00  0.00     0.182 C 
BRANCH   5   6
HETATM    6  N   UNL     1     -42.236  59.003 -56.154  1.00  0.00    -0.334 N 
HETATM    7  C   UNL     1     -41.778  59.472 -57.344  1.00  0.00     0.292 C 
HETATM    8  N   UNL     1     -41.994  58.605 -58.361  1.00  0.00    -0.254 NA
HETATM    9  O   UNL     1     -41.235  60.555 -57.514  1.00  0.00    -0.254 OA
HETATM   10  H   UNL     1     -42.862  58.087 -58.337  1.00  0.00     0.128 HD
HETATM   11  H   UNL     1     -41.767  58.987 -59.270  1.00  0.00     0.128 HD
HETATM   12  H   UNL     1     -42.351  58.003 -56.095  1.00  0.00     0.164 HD
ENDBRANCH   5   6
BRANCH   5  13
HETATM   13  C   UNL     1     -43.368  60.366 -54.369  1.00  0.00     0.073 C 
BRANCH  13  14
HETATM   14  C   UNL     1     -43.540  60.576 -52.879  1.00  0.00    -0.056 A 
HETATM   15  C   UNL     1     -42.903  61.587 -52.147  1.00  0.00     0.007 A 
HETATM   16  C   UNL     1     -43.105  61.702 -50.768  1.00  0.00     0.001 A 
HETATM   17  C   UNL     1     -43.956  60.824 -50.104  1.00  0.00     0.000 A 
HETATM   18  C   UNL     1     -44.613  59.828 -50.819  1.00  0.00     0.001 A 
HETATM   19  C   UNL     1     -44.407  59.707 -52.194  1.00  0.00     0.007 A 
ENDBRANCH  13  14
ENDBRANCH   5  13
ENDBRANCH   2   5
BRANCH   1  20
HETATM   20  C   UNL     1     -41.577  56.634 -52.676  1.00  0.00     0.035 A 
HETATM   21  C   UNL     1     -41.160  55.340 -53.005  1.00  0.00     0.045 A 
HETATM   22  C   UNL     1     -40.805  54.416 -52.008  1.00  0.00     0.019 A 
HETATM   23  C   UNL     1     -40.849  54.821 -50.667  1.00  0.00     0.016 A 
HETATM   24  C   UNL     1     -41.261  56.108 -50.327  1.00  0.00     0.003 A 
HETATM   25  C   UNL     1     -41.634  57.006 -51.328  1.00  0.00     0.029 A 
BRANCH  22  26
HETATM   26  C   UNL     1     -40.410  53.047 -52.333  1.00  0.00     0.180 A 
HETATM   27  N   UNL     1     -40.239  52.485 -53.516  1.00  0.00    -0.226 NA
HETATM   28  C   UNL     1     -39.825  51.204 -53.228  1.00  0.00     0.063 A 
HETATM   29  C   UNL     1     -39.526  50.235 -54.301  1.00  0.00     0.073 C 
HETATM   30  C   UNL     1     -39.746  51.044 -51.861  1.00  0.00     0.076 A 
HETATM   31  O   UNL     1     -40.128  52.218 -51.279  1.00  0.00    -0.294 OA
HETATM   32  C   UNL     1     -39.360  49.942 -50.964  1.00  0.00     0.079 C 
ENDBRANCH  22  26
ENDBRANCH   1  20
TORSDOF 6
ENDMDL
MODEL 6
REMARK VINA RESULT:      -7.9      2.492      3.792
REMARK  6 active torsions:
REMARK  status: ('A' for Active; 'I' for Inactive)
REMARK    1  A    between atoms: C_4  and  C_5 
REMARK    2  A    between atoms: C_7  and  N_8 
REMARK       I    between atoms: N_8  and  C_9 
REMARK    3  A    between atoms: C_9  and  C_10 
REMARK    4  A    between atoms: C_10  and  N_11 
REMARK    5  A    between atoms: C_10  and  C_15 
REMARK       I    between atoms: N_11  and  C_12 
REMARK       I    between atoms: C_12  and  N_13 
REMARK    6  A    between atoms: C_15  and  C_16 
ROOT
HETATM    1  N   UNL     1     -42.323  56.626 -56.415  1.00  0.00    -0.325 N 
HETATM    2  C   UNL     1     -43.544  57.231 -56.641  1.00  0.00     0.245 C 
HETATM    3  O   UNL     1     -44.373  57.530 -55.781  1.00  0.00    -0.271 OA
HETATM    4  H   UNL     1     -41.684  56.607 -57.210  1.00  0.00     0.169 HD
ENDROOT
BRANCH   2   5
HETATM    5  C   UNL     1     -43.830  57.573 -58.123  1.00  0.00     0.182 C 
BRANCH   5   6
HETATM    6  N   UNL     1     -44.837  56.652 -58.669  1.00  0.00    -0.334 N 
HETATM    7  C   UNL     1     -44.584  55.795 -59.692  1.00  0.00     0.292 C 
HETATM    8  N   UNL     1     -45.642  55.002 -59.979  1.00  0.00    -0.254 NA
HETATM    9  O   UNL     1     -43.531  55.729 -60.312  1.00  0.00    -0.254 OA
HETATM   10  H   UNL     1     -46.557  55.426 -59.907  1.00  0.00     0.128 HD
HETATM   11  H   UNL     1     -45.511  54.443 -60.813  1.00  0.00     0.128 HD
HETATM   12  H   UNL     1     -45.589  56.384 -58.052  1.00  0.00     0.164 HD
ENDBRANCH   5   6
BRANCH   5  13
HETATM   13  C   UNL     1     -44.151  59.056 -58.391  1.00  0.00     0.073 C 
BRANCH  13  14
HETATM   14  C   UNL     1     -43.217  59.859 -59.273  1.00  0.00    -0.056 A 
HETATM   15  C   UNL     1     -42.720  61.127 -58.945  1.00  0.00     0.007 A 
HETATM   16  C   UNL     1     -41.873  61.809 -59.824  1.00  0.00     0.001 A 
HETATM   17  C   UNL     1     -41.496  61.229 -61.032  1.00  0.00     0.000 A 
HETATM   18  C   UNL     1     -41.963  59.961 -61.364  1.00  0.00     0.001 A 
HETATM   19  C   UNL     1     -42.814  59.283 -60.491  1.00  0.00     0.007 A 
ENDBRANCH  13  14
ENDBRANCH   5  13
ENDBRANCH   2   5
BRANCH   1  20
HETATM   20  C   UNL     1     -41.823  56.106 -55.206  1.00  0.00     0.035 A 
HETATM   21  C   UNL     1     -41.377  54.791 -55.042  1.00  0.00     0.045 A 
HETATM   22  C   UNL     1     -40.880  54.342 -53.806  1.00  0.00     0.019 A 
HETATM   23  C   UNL     1     -40.811  55.247 -52.738  1.00  0.00     0.016 A 
HETATM   24  C   UNL     1     -41.251  56.560 -52.890  1.00  0.00     0.003 A 
HETATM   25  C   UNL     1     -41.765  56.983 -54.117  1.00  0.00     0.029 A 
BRANCH  22  26
HETATM   26  C   UNL     1     -40.452  52.960 -53.606  1.00  0.00     0.180 A 
HETATM   27  N   UNL     1     -40.223  52.017 -54.502  1.00  0.00    -0.226 NA
HETATM   28  C   UNL     1     -39.802  50.936 -53.760  1.00  0.00     0.063 A 
HETATM   29  C   UNL     1     -39.446  49.656 -54.404  1.00  0.00     0.073 C 
HETATM   30  C   UNL     1     -39.778  51.277 -52.425  1.00  0.00     0.076 A 
HETATM   31  O   UNL     1     -40.201  52.570 -52.316  1.00  0.00    -0.294 OA
HETATM   32  C   UNL     1     -39.414  50.580 -51.180  1.00  0.00     0.079 C 
ENDBRANCH  22  26
ENDBRANCH   1  20
TORSDOF 6
ENDMDL
MODEL 7
REMARK VINA RESULT:      -7.9      2.606      4.098
REMARK  6 active torsions:
REMARK  status: ('A' for Active; 'I' for Inactive)
REMARK    1  A    between atoms: C_4  and  C_5 
REMARK    2  A    between atoms: C_7  and  N_8 
REMARK       I    between atoms: N_8  and  C_9 
REMARK    3  A    between atoms: C_9  and  C_10 
REMARK    4  A    between atoms: C_10  and  N_11 
REMARK    5  A    between atoms: C_10  and  C_15 
REMARK       I    between atoms: N_11  and  C_12 
REMARK       I    between atoms: C_12  and  N_13 
REMARK    6  A    between atoms: C_15  and  C_16 
ROOT
HETATM    1  N   UNL     1     -43.526  56.197 -56.372  1.00  0.00    -0.325 N 
HETATM    2  C   UNL     1     -43.253  57.064 -57.412  1.00  0.00     0.245 C 
HETATM    3  O   UNL     1     -42.175  57.619 -57.628  1.00  0.00    -0.271 OA
HETATM    4  H   UNL     1     -44.409  55.691 -56.437  1.00  0.00     0.169 HD
ENDROOT
BRANCH   2   5
HETATM    5  C   UNL     1     -44.435  57.298 -58.383  1.00  0.00     0.182 C 
BRANCH   5   6
HETATM    6  N   UNL     1     -44.880  56.018 -58.954  1.00  0.00    -0.334 N 
HETATM    7  C   UNL     1     -44.344  55.480 -60.079  1.00  0.00     0.292 C 
HETATM    8  N   UNL     1     -44.868  54.268 -60.375  1.00  0.00    -0.254 NA
HETATM    9  O   UNL     1     -43.487  56.008 -60.775  1.00  0.00    -0.254 OA
HETATM   10  H   UNL     1     -45.855  54.146 -60.194  1.00  0.00     0.128 HD
HETATM   11  H   UNL     1     -44.566  53.907 -61.272  1.00  0.00     0.128 HD
HETATM   12  H   UNL     1     -45.310  55.363 -58.319  1.00  0.00     0.164 HD
ENDBRANCH   5   6
BRANCH   5  13
HETATM   13  C   UNL     1     -45.588  58.141 -57.803  1.00  0.00     0.073 C 
BRANCH  13  14
HETATM   14  C   UNL     1     -45.267  59.223 -56.793  1.00  0.00    -0.056 A 
HETATM   15  C   UNL     1     -45.394  59.069 -55.406  1.00  0.00     0.007 A 
HETATM   16  C   UNL     1     -45.090  60.126 -54.542  1.00  0.00     0.001 A 
HETATM   17  C   UNL     1     -44.640  61.342 -55.047  1.00  0.00     0.000 A 
HETATM   18  C   UNL     1     -44.488  61.505 -56.420  1.00  0.00     0.001 A 
HETATM   19  C   UNL     1     -44.797  60.454 -57.284  1.00  0.00     0.007 A 
ENDBRANCH  13  14
ENDBRANCH   5  13
ENDBRANCH   2   5
BRANCH   1  20
HETATM   20  C   UNL     1     -42.702  55.866 -55.280  1.00  0.00     0.035 A 
HETATM   21  C   UNL     1     -42.131  54.605 -55.080  1.00  0.00     0.045 A 
HETATM   22  C   UNL     1     -41.309  54.348 -53.969  1.00  0.00     0.019 A 
HETATM   23  C   UNL     1     -41.045  55.390 -53.070  1.00  0.00     0.016 A 
HETATM   24  C   UNL     1     -41.607  56.650 -53.259  1.00  0.00     0.003 A 
HETATM   25  C   UNL     1     -42.441  56.883 -54.354  1.00  0.00     0.029 A 
BRANCH  22  26
HETATM   26  C   UNL     1     -40.741  53.024 -53.723  1.00  0.00     0.180 A 
HETATM   27  N   UNL     1     -40.432  52.073 -54.586  1.00  0.00    -0.226 NA
HETATM   28  C   UNL     1     -39.894  51.070 -53.810  1.00  0.00     0.063 A 
HETATM   29  C   UNL     1     -39.420  49.808 -54.409  1.00  0.00     0.073 C 
HETATM   30  C   UNL     1     -39.884  51.467 -52.490  1.00  0.00     0.076 A 
HETATM   31  O   UNL     1     -40.434  52.715 -52.423  1.00  0.00    -0.294 OA
HETATM   32  C   UNL     1     -39.433  50.862 -51.225  1.00  0.00     0.079 C 
ENDBRANCH  22  26
ENDBRANCH   1  20
TORSDOF 6
ENDMDL
MODEL 8
REMARK VINA RESULT:      -7.9     15.066     17.383
REMARK  6 active torsions:
REMARK  status: ('A' for Active; 'I' for Inactive)
REMARK    1  A    between atoms: C_4  and  C_5 
REMARK    2  A    between atoms: C_7  and  N_8 
REMARK       I    between atoms: N_8  and  C_9 
REMARK    3  A    between atoms: C_9  and  C_10 
REMARK    4  A    between atoms: C_10  and  N_11 
REMARK    5  A    between atoms: C_10  and  C_15 
REMARK       I    between atoms: N_11  and  C_12 
REMARK       I    between atoms: C_12  and  N_13 
REMARK    6  A    between atoms: C_15  and  C_16 
ROOT
HETATM    1  N   UNL     1     -35.152  40.371 -53.087  1.00  0.00    -0.325 N 
HETATM    2  C   UNL     1     -35.846  41.535 -53.353  1.00  0.00     0.245 C 
HETATM    3  O   UNL     1     -35.592  42.649 -52.896  1.00  0.00    -0.271 OA
HETATM    4  H   UNL     1     -35.381  39.572 -53.678  1.00  0.00     0.169 HD
ENDROOT
BRANCH   2   5
HETATM    5  C   UNL     1     -37.019  41.372 -54.349  1.00  0.00     0.182 C 
BRANCH   5   6
HETATM    6  N   UNL     1     -38.299  41.592 -53.662  1.00  0.00    -0.334 N 
HETATM    7  C   UNL     1     -38.744  40.805 -52.648  1.00  0.00     0.292 C 
HETATM    8  N   UNL     1     -39.916  41.240 -52.129  1.00  0.00    -0.254 NA
HETATM    9  O   UNL     1     -38.178  39.803 -52.232  1.00  0.00    -0.254 OA
HETATM   10  H   UNL     1     -40.584  41.624 -52.782  1.00  0.00     0.128 HD
HETATM   11  H   UNL     1     -40.319  40.600 -51.455  1.00  0.00     0.128 HD
HETATM   12  H   UNL     1     -38.668  42.531 -53.678  1.00  0.00     0.164 HD
ENDBRANCH   5   6
BRANCH   5  13
HETATM   13  C   UNL     1     -36.877  42.187 -55.649  1.00  0.00     0.073 C 
BRANCH  13  14
HETATM   14  C   UNL     1     -37.233  41.529 -56.967  1.00  0.00    -0.056 A 
HETATM   15  C   UNL     1     -37.931  40.319 -57.081  1.00  0.00     0.007 A 
HETATM   16  C   UNL     1     -38.207  39.773 -58.338  1.00  0.00     0.001 A 
HETATM   17  C   UNL     1     -37.807  40.432 -59.496  1.00  0.00     0.000 A 
HETATM   18  C   UNL     1     -37.133  41.644 -59.402  1.00  0.00     0.001 A 
HETATM   19  C   UNL     1     -36.851  42.188 -58.149  1.00  0.00     0.007 A 
ENDBRANCH  13  14
ENDBRANCH   5  13
ENDBRANCH   2   5
BRANCH   1  20
HETATM   20  C   UNL     1     -34.114  40.173 -52.156  1.00  0.00     0.035 A 
HETATM   21  C   UNL     1     -34.278  39.547 -50.916  1.00  0.00     0.045 A 
HETATM   22  C   UNL     1     -33.193  39.375 -50.040  1.00  0.00     0.019 A 
HETATM   23  C   UNL     1     -31.926  39.819 -50.441  1.00  0.00     0.016 A 
HETATM   24  C   UNL     1     -31.749  40.442 -51.674  1.00  0.00     0.003 A 
HETATM   25  C   UNL     1     -32.841  40.628 -52.522  1.00  0.00     0.029 A 
BRANCH  22  26
HETATM   26  C   UNL     1     -33.357  38.763 -48.723  1.00  0.00     0.180 A 
HETATM   27  N   UNL     1     -34.426  38.198 -48.191  1.00  0.00    -0.226 NA
HETATM   28  C   UNL     1     -34.000  37.755 -46.959  1.00  0.00     0.063 A 
HETATM   29  C   UNL     1     -34.917  37.059 -46.035  1.00  0.00     0.073 C 
HETATM   30  C   UNL     1     -32.666  38.061 -46.798  1.00  0.00     0.076 A 
HETATM   31  O   UNL     1     -32.248  38.715 -47.921  1.00  0.00    -0.294 OA
HETATM   32  C   UNL     1     -31.670  37.841 -45.736  1.00  0.00     0.079 C 
ENDBRANCH  22  26
ENDBRANCH   1  20
TORSDOF 6
ENDMDL
MODEL 9
REMARK VINA RESULT:      -7.7      2.133      2.780
REMARK  6 active torsions:
REMARK  status: ('A' for Active; 'I' for Inactive)
REMARK    1  A    between atoms: C_4  and  C_5 
REMARK    2  A    between atoms: C_7  and  N_8 
REMARK       I    between atoms: N_8  and  C_9 
REMARK    3  A    between atoms: C_9  and  C_10 
REMARK    4  A    between atoms: C_10  and  N_11 
REMARK    5  A    between atoms: C_10  and  C_15 
REMARK       I    between atoms: N_11  and  C_12 
REMARK       I    between atoms: C_12  and  N_13 
REMARK    6  A    between atoms: C_15  and  C_16 
ROOT
HETATM    1  N   UNL     1     -42.694  57.070 -53.961  1.00  0.00    -0.325 N 
HETATM    2  C   UNL     1     -43.987  56.963 -54.434  1.00  0.00     0.245 C 
HETATM    3  O   UNL     1     -44.851  56.193 -54.014  1.00  0.00    -0.271 OA
HETATM    4  H   UNL     1     -42.163  57.873 -54.297  1.00  0.00     0.169 HD
ENDROOT
BRANCH   2   5
HETATM    5  C   UNL     1     -44.339  57.949 -55.574  1.00  0.00     0.182 C 
BRANCH   5   6
HETATM    6  N   UNL     1     -45.335  58.925 -55.109  1.00  0.00    -0.334 N 
HETATM    7  C   UNL     1     -45.118  59.771 -54.070  1.00  0.00     0.292 C 
HETATM    8  N   UNL     1     -46.152  60.620 -53.867  1.00  0.00    -0.254 NA
HETATM    9  O   UNL     1     -44.116  59.784 -53.369  1.00  0.00    -0.254 OA
HETATM   10  H   UNL     1     -47.080  60.246 -54.011  1.00  0.00     0.128 HD
HETATM   11  H   UNL     1     -46.058  61.176 -53.026  1.00  0.00     0.128 HD
HETATM   12  H   UNL     1     -46.021  59.229 -55.783  1.00  0.00     0.164 HD
ENDBRANCH   5   6
BRANCH   5  13
HETATM   13  C   UNL     1     -43.122  58.601 -56.260  1.00  0.00     0.073 C 
BRANCH  13  14
HETATM   14  C   UNL     1     -42.790  58.212 -57.686  1.00  0.00    -0.056 A 
HETATM   15  C   UNL     1     -42.897  56.909 -58.192  1.00  0.00     0.007 A 
HETATM   16  C   UNL     1     -42.556  56.632 -59.520  1.00  0.00     0.001 A 
HETATM   17  C   UNL     1     -42.122  57.650 -60.364  1.00  0.00     0.000 A 
HETATM   18  C   UNL     1     -42.031  58.952 -59.884  1.00  0.00     0.001 A 
HETATM   19  C   UNL     1     -42.364  59.229 -58.557  1.00  0.00     0.007 A 
ENDBRANCH  13  14
ENDBRANCH   5  13
ENDBRANCH   2   5
BRANCH   1  20
HETATM   20  C   UNL     1     -42.048  56.254 -53.012  1.00  0.00     0.035 A 
HETATM   21  C   UNL     1     -41.568  54.968 -53.278  1.00  0.00     0.045 A 
HETATM   22  C   UNL     1     -40.923  54.213 -52.283  1.00  0.00     0.019 A 
HETATM   23  C   UNL     1     -40.741  54.783 -51.016  1.00  0.00     0.016 A 
HETATM   24  C   UNL     1     -41.214  56.065 -50.739  1.00  0.00     0.003 A 
HETATM   25  C   UNL     1     -41.874  56.791 -51.731  1.00  0.00     0.029 A 
BRANCH  22  26
HETATM   26  C   UNL     1     -40.456  52.852 -52.533  1.00  0.00     0.180 A 
HETATM   27  N   UNL     1     -40.230  52.243 -53.684  1.00  0.00    -0.226 NA
HETATM   28  C   UNL     1     -39.762  50.998 -53.324  1.00  0.00     0.063 A 
HETATM   29  C   UNL     1     -39.393  49.995 -54.342  1.00  0.00     0.073 C 
HETATM   30  C   UNL     1     -39.708  50.907 -51.951  1.00  0.00     0.076 A 
HETATM   31  O   UNL     1     -40.160  52.088 -51.434  1.00  0.00    -0.294 OA
HETATM   32  C   UNL     1     -39.292  49.869 -50.993  1.00  0.00     0.079 C 
ENDBRANCH  22  26
ENDBRANCH   1  20
TORSDOF 6
ENDMDL
MODEL 10
REMARK VINA RESULT:      -7.5      1.819      2.029
REMARK  6 active torsions:
REMARK  status: ('A' for Active; 'I' for Inactive)
REMARK    1  A    between atoms: C_4  and  C_5 
REMARK    2  A    between atoms: C_7  and  N_8 
REMARK       I    between atoms: N_8  and  C_9 
REMARK    3  A    between atoms: C_9  and  C_10 
REMARK    4  A    between atoms: C_10  and  N_11 
REMARK    5  A    between atoms: C_10  and  C_15 
REMARK       I    between atoms: N_11  and  C_12 
REMARK       I    between atoms: C_12  and  N_13 
REMARK    6  A    between atoms: C_15  and  C_16 
ROOT
HETATM    1  N   UNL     1     -42.123  57.486 -54.005  1.00  0.00    -0.325 N 
HETATM    2  C   UNL     1     -41.664  58.742 -54.352  1.00  0.00     0.245 C 
HETATM    3  O   UNL     1     -40.723  59.338 -53.829  1.00  0.00    -0.271 OA
HETATM    4  H   UNL     1     -42.794  57.065 -54.648  1.00  0.00     0.169 HD
ENDROOT
BRANCH   2   5
HETATM    5  C   UNL     1     -42.415  59.398 -55.535  1.00  0.00     0.182 C 
BRANCH   5   6
HETATM    6  N   UNL     1     -42.238  60.856 -55.500  1.00  0.00    -0.334 N 
HETATM    7  C   UNL     1     -43.247  61.734 -55.739  1.00  0.00     0.292 C 
HETATM    8  N   UNL     1     -42.861  63.022 -55.587  1.00  0.00    -0.254 NA
HETATM    9  O   UNL     1     -44.385  61.428 -56.066  1.00  0.00    -0.254 OA
HETATM   10  H   UNL     1     -41.926  63.253 -55.892  1.00  0.00     0.128 HD
HETATM   11  H   UNL     1     -43.566  63.690 -55.876  1.00  0.00     0.128 HD
HETATM   12  H   UNL     1     -41.479  61.208 -54.936  1.00  0.00     0.164 HD
ENDBRANCH   5   6
BRANCH   5  13
HETATM   13  C   UNL     1     -42.111  58.780 -56.914  1.00  0.00     0.073 C 
BRANCH  13  14
HETATM   14  C   UNL     1     -43.250  58.567 -57.888  1.00  0.00    -0.056 A 
HETATM   15  C   UNL     1     -43.146  58.745 -59.274  1.00  0.00     0.007 A 
HETATM   16  C   UNL     1     -44.253  58.542 -60.103  1.00  0.00     0.001 A 
HETATM   17  C   UNL     1     -45.473  58.141 -59.565  1.00  0.00     0.000 A 
HETATM   18  C   UNL     1     -45.589  57.939 -58.194  1.00  0.00     0.001 A 
HETATM   19  C   UNL     1     -44.486  58.148 -57.365  1.00  0.00     0.007 A 
ENDBRANCH  13  14
ENDBRANCH   5  13
ENDBRANCH   2   5
BRANCH   1  20
HETATM   20  C   UNL     1     -41.721  56.685 -52.919  1.00  0.00     0.035 A 
HETATM   21  C   UNL     1     -41.244  55.376 -53.042  1.00  0.00     0.045 A 
HETATM   22  C   UNL     1     -40.851  54.637 -51.913  1.00  0.00     0.019 A 
HETATM   23  C   UNL     1     -40.918  55.245 -50.652  1.00  0.00     0.016 A 
HETATM   24  C   UNL     1     -41.391  56.549 -50.517  1.00  0.00     0.003 A 
HETATM   25  C   UNL     1     -41.801  57.261 -51.645  1.00  0.00     0.029 A 
BRANCH  22  26
HETATM   26  C   UNL     1     -40.392  53.254 -52.021  1.00  0.00     0.180 A 
HETATM   27  N   UNL     1     -40.097  52.394 -51.063  1.00  0.00    -0.226 NA
HETATM   28  C   UNL     1     -39.769  51.236 -51.734  1.00  0.00     0.063 A 
HETATM   29  C   UNL     1     -39.368  50.016 -51.006  1.00  0.00     0.073 C 
HETATM   30  C   UNL     1     -39.896  51.441 -53.091  1.00  0.00     0.076 A 
HETATM   31  O   UNL     1     -40.286  52.735 -53.285  1.00  0.00    -0.294 OA
HETATM   32  C   UNL     1     -39.709  50.607 -54.290  1.00  0.00     0.079 C 
ENDBRANCH  22  26
ENDBRANCH   1  20
TORSDOF 6
ENDMDL
