MODEL 1
REMARK VINA RESULT:      -8.1      0.000      0.000
REMARK  4 active torsions:
REMARK  status: ('A' for Active; 'I' for Inactive)
REMARK    1  A    between atoms: C_7  and  C_8 
REMARK    2  A    between atoms: C_8  and  N_9 
REMARK    3  A    between atoms: N_15  and  C_17 
REMARK    4  A    between atoms: C_21  and  C_22 
ROOT
HETATM    1  N   UNL     1     -42.153  55.467 -56.284  1.00  0.00    -0.067 N 
HETATM    2  H   UNL     1     -41.594  55.048 -57.042  1.00  0.00     0.280 HD
HETATM    3  C   UNL     1     -41.175  55.794 -55.194  1.00  0.00     0.236 C 
HETATM    4  C   UNL     1     -41.901  56.249 -53.930  1.00  0.00     0.039 C 
HETATM    5  C   UNL     1     -42.977  55.258 -53.405  1.00  0.00    -0.013 C 
HETATM    6  C   UNL     1     -42.349  53.990 -52.772  1.00  0.00     0.245 C 
HETATM    7  N   UNL     1     -41.665  54.310 -51.465  1.00  0.00    -0.065 N 
HETATM    8  H   UNL     1     -40.932  55.016 -51.615  1.00  0.00     0.280 HD
HETATM    9  C   UNL     1     -42.629  54.892 -50.433  1.00  0.00     0.244 C 
HETATM   10  C   UNL     1     -43.236  56.207 -50.955  1.00  0.00     0.045 C 
HETATM   11  C   UNL     1     -43.892  55.931 -52.335  1.00  0.00     0.022 C 
HETATM   12  C   UNL     1     -43.892  54.862 -54.607  1.00  0.00     0.039 C 
HETATM   13  C   UNL     1     -43.155  54.430 -55.874  1.00  0.00     0.236 C 
ENDROOT
BRANCH   7  14
HETATM   14  C   UNL     1     -40.976  53.098 -50.902  1.00  0.00     0.188 A 
HETATM   15  C   UNL     1     -39.480  53.171 -50.769  1.00  0.00     0.035 A 
HETATM   16  C   UNL     1     -40.348  53.239 -49.545  1.00  0.00     0.035 A 
ENDBRANCH   7  14
BRANCH  10  17
HETATM   17  C   UNL     1     -42.330  57.435 -50.949  1.00  0.00    -0.052 A 
HETATM   18  C   UNL     1     -40.991  57.415 -50.523  1.00  0.00     0.007 A 
HETATM   19  C   UNL     1     -40.208  58.575 -50.549  1.00  0.00     0.001 A 
HETATM   20  C   UNL     1     -40.752  59.782 -50.973  1.00  0.00     0.000 A 
HETATM   21  C   UNL     1     -42.089  59.838 -51.349  1.00  0.00     0.001 A 
HETATM   22  C   UNL     1     -42.870  58.681 -51.323  1.00  0.00     0.007 A 
ENDBRANCH  10  17
BRANCH   1  23
HETATM   23  C   UNL     1     -42.769  56.680 -56.982  1.00  0.00     0.277 C 
BRANCH  23  24
HETATM   24  C   UNL     1     -43.184  56.370 -58.372  1.00  0.00     0.011 A 
HETATM   25  C   UNL     1     -42.655  56.915 -59.577  1.00  0.00     0.060 A 
HETATM   26  C   UNL     1     -41.614  57.959 -59.755  1.00  0.00     0.073 C 
HETATM   27  N   UNL     1     -43.193  56.333 -60.649  1.00  0.00    -0.178 NA
HETATM   28  N   UNL     1     -44.135  55.515 -60.164  1.00  0.00    -0.284 N 
HETATM   29  C   UNL     1     -44.964  54.752 -61.069  1.00  0.00     0.179 C 
HETATM   30  C   UNL     1     -44.151  55.476 -58.797  1.00  0.00     0.122 A 
ENDBRANCH  23  24
ENDBRANCH   1  23
TORSDOF 4
ENDMDL
MODEL 2
REMARK VINA RESULT:      -7.9      0.855      1.682
REMARK  4 active torsions:
REMARK  status: ('A' for Active; 'I' for Inactive)
REMARK    1  A    between atoms: C_7  and  C_8 
REMARK    2  A    between atoms: C_8  and  N_9 
REMARK    3  A    between atoms: N_15  and  C_17 
REMARK    4  A    between atoms: C_21  and  C_22 
ROOT
HETATM    1  N   UNL     1     -42.337  55.416 -56.237  1.00  0.00    -0.067 N 
HETATM    2  H   UNL     1     -41.817  55.163 -57.091  1.00  0.00     0.280 HD
HETATM    3  C   UNL     1     -41.309  55.954 -55.283  1.00  0.00     0.236 C 
HETATM    4  C   UNL     1     -41.919  56.191 -53.903  1.00  0.00     0.039 C 
HETATM    5  C   UNL     1     -42.630  54.955 -53.285  1.00  0.00    -0.013 C 
HETATM    6  C   UNL     1     -41.625  53.869 -52.823  1.00  0.00     0.245 C 
HETATM    7  N   UNL     1     -40.844  54.322 -51.613  1.00  0.00    -0.065 N 
HETATM    8  H   UNL     1     -40.335  55.190 -51.828  1.00  0.00     0.280 HD
HETATM    9  C   UNL     1     -41.748  54.628 -50.421  1.00  0.00     0.244 C 
HETATM   10  C   UNL     1     -42.728  55.762 -50.774  1.00  0.00     0.045 C 
HETATM   11  C   UNL     1     -43.503  55.360 -52.057  1.00  0.00     0.022 C 
HETATM   12  C   UNL     1     -43.597  54.368 -54.362  1.00  0.00     0.039 C 
HETATM   13  C   UNL     1     -42.983  54.157 -55.745  1.00  0.00     0.236 C 
ENDROOT
BRANCH   7  14
HETATM   14  C   UNL     1     -39.805  53.307 -51.226  1.00  0.00     0.188 A 
HETATM   15  C   UNL     1     -40.302  52.048 -50.571  1.00  0.00     0.035 A 
HETATM   16  C   UNL     1     -39.801  52.012 -51.987  1.00  0.00     0.035 A 
ENDBRANCH   7  14
BRANCH  10  17
HETATM   17  C   UNL     1     -42.154  57.175 -50.829  1.00  0.00    -0.052 A 
HETATM   18  C   UNL     1     -40.838  57.500 -50.458  1.00  0.00     0.007 A 
HETATM   19  C   UNL     1     -40.368  58.816 -50.540  1.00  0.00     0.001 A 
HETATM   20  C   UNL     1     -41.209  59.837 -50.965  1.00  0.00     0.000 A 
HETATM   21  C   UNL     1     -42.530  59.551 -51.287  1.00  0.00     0.001 A 
HETATM   22  C   UNL     1     -42.999  58.239 -51.206  1.00  0.00     0.007 A 
ENDBRANCH  10  17
BRANCH   1  23
HETATM   23  C   UNL     1     -43.327  56.454 -56.768  1.00  0.00     0.277 C 
BRANCH  23  24
HETATM   24  C   UNL     1     -43.028  56.841 -58.168  1.00  0.00     0.011 A 
HETATM   25  C   UNL     1     -43.374  56.137 -59.356  1.00  0.00     0.060 A 
HETATM   26  C   UNL     1     -44.058  54.826 -59.502  1.00  0.00     0.073 C 
HETATM   27  N   UNL     1     -43.038  56.828 -60.445  1.00  0.00    -0.178 NA
HETATM   28  N   UNL     1     -42.381  57.901 -59.986  1.00  0.00    -0.284 N 
HETATM   29  C   UNL     1     -41.820  58.855 -60.915  1.00  0.00     0.179 C 
HETATM   30  C   UNL     1     -42.373  57.973 -58.621  1.00  0.00     0.122 A 
ENDBRANCH  23  24
ENDBRANCH   1  23
TORSDOF 4
ENDMDL
MODEL 3
REMARK VINA RESULT:      -7.6      3.562      7.484
REMARK  4 active torsions:
REMARK  status: ('A' for Active; 'I' for Inactive)
REMARK    1  A    between atoms: C_7  and  C_8 
REMARK    2  A    between atoms: C_8  and  N_9 
REMARK    3  A    between atoms: N_15  and  C_17 
REMARK    4  A    between atoms: C_21  and  C_22 
ROOT
HETATM    1  N   UNL     1     -42.890  60.015 -51.332  1.00  0.00    -0.067 N 
HETATM    2  H   UNL     1     -42.614  60.893 -51.796  1.00  0.00     0.280 HD
HETATM    3  C   UNL     1     -41.883  58.992 -51.770  1.00  0.00     0.236 C 
HETATM    4  C   UNL     1     -42.286  57.596 -51.302  1.00  0.00     0.039 C 
HETATM    5  C   UNL     1     -43.716  57.156 -51.724  1.00  0.00    -0.013 C 
HETATM    6  C   UNL     1     -43.810  56.842 -53.240  1.00  0.00     0.245 C 
HETATM    7  N   UNL     1     -43.061  55.578 -53.587  1.00  0.00    -0.065 N 
HETATM    8  H   UNL     1     -42.073  55.669 -53.317  1.00  0.00     0.280 HD
HETATM    9  C   UNL     1     -43.606  54.359 -52.845  1.00  0.00     0.244 C 
HETATM   10  C   UNL     1     -43.471  54.558 -51.324  1.00  0.00     0.045 C 
HETATM   11  C   UNL     1     -44.172  55.887 -50.938  1.00  0.00     0.022 C 
HETATM   12  C   UNL     1     -44.702  58.307 -51.352  1.00  0.00     0.039 C 
HETATM   13  C   UNL     1     -44.277  59.703 -51.804  1.00  0.00     0.236 C 
ENDROOT
BRANCH   7  14
HETATM   14  C   UNL     1     -43.075  55.329 -55.069  1.00  0.00     0.188 A 
HETATM   15  C   UNL     1     -41.804  54.804 -55.678  1.00  0.00     0.035 A 
HETATM   16  C   UNL     1     -42.993  53.899 -55.521  1.00  0.00     0.035 A 
ENDBRANCH   7  14
BRANCH  10  17
HETATM   17  C   UNL     1     -42.071  54.417 -50.733  1.00  0.00    -0.052 A 
HETATM   18  C   UNL     1     -40.979  53.872 -51.431  1.00  0.00     0.007 A 
HETATM   19  C   UNL     1     -39.716  53.778 -50.835  1.00  0.00     0.001 A 
HETATM   20  C   UNL     1     -39.523  54.198 -49.524  1.00  0.00     0.000 A 
HETATM   21  C   UNL     1     -40.598  54.690 -48.796  1.00  0.00     0.001 A 
HETATM   22  C   UNL     1     -41.859  54.786 -49.389  1.00  0.00     0.007 A 
ENDBRANCH  10  17
BRANCH   1  23
HETATM   23  C   UNL     1     -42.812  60.404 -49.854  1.00  0.00     0.277 C 
BRANCH  23  24
HETATM   24  C   UNL     1     -43.857  61.388 -49.483  1.00  0.00     0.011 A 
HETATM   25  C   UNL     1     -43.901  62.773 -49.813  1.00  0.00     0.060 A 
HETATM   26  C   UNL     1     -42.904  63.593 -50.548  1.00  0.00     0.073 C 
HETATM   27  N   UNL     1     -45.039  63.334 -49.403  1.00  0.00    -0.178 NA
HETATM   28  N   UNL     1     -45.672  62.373 -48.718  1.00  0.00    -0.284 N 
HETATM   29  C   UNL     1     -46.936  62.656 -48.078  1.00  0.00     0.179 C 
HETATM   30  C   UNL     1     -45.018  61.173 -48.760  1.00  0.00     0.122 A 
ENDBRANCH  23  24
ENDBRANCH   1  23
TORSDOF 4
ENDMDL
MODEL 4
REMARK VINA RESULT:      -7.1      2.427      4.702
REMARK  4 active torsions:
REMARK  status: ('A' for Active; 'I' for Inactive)
REMARK    1  A    between atoms: C_7  and  C_8 
REMARK    2  A    between atoms: C_8  and  N_9 
REMARK    3  A    between atoms: N_15  and  C_17 
REMARK    4  A    between atoms: C_21  and  C_22 
ROOT
HETATM    1  N   UNL     1     -44.368  58.377 -56.964  1.00  0.00    -0.067 N 
HETATM    2  H   UNL     1     -45.204  58.749 -57.440  1.00  0.00     0.280 HD
HETATM    3  C   UNL     1     -44.818  58.018 -55.578  1.00  0.00     0.236 C 
HETATM    4  C   UNL     1     -43.627  57.629 -54.704  1.00  0.00     0.039 C 
HETATM    5  C   UNL     1     -42.493  58.689 -54.641  1.00  0.00    -0.013 C 
HETATM    6  C   UNL     1     -42.895  59.932 -53.807  1.00  0.00     0.245 C 
HETATM    7  N   UNL     1     -42.990  59.601 -52.337  1.00  0.00    -0.065 N 
HETATM    8  H   UNL     1     -43.680  58.852 -52.190  1.00  0.00     0.280 HD
HETATM    9  C   UNL     1     -41.666  59.094 -51.771  1.00  0.00     0.244 C 
HETATM   10  C   UNL     1     -41.236  57.805 -52.495  1.00  0.00     0.045 C 
HETATM   11  C   UNL     1     -41.193  58.090 -54.020  1.00  0.00     0.022 C 
HETATM   12  C   UNL     1     -42.149  59.112 -56.105  1.00  0.00     0.039 C 
HETATM   13  C   UNL     1     -43.349  59.476 -56.978  1.00  0.00     0.236 C 
ENDROOT
BRANCH   7  14
HETATM   14  C   UNL     1     -43.473  60.783 -51.545  1.00  0.00     0.188 A 
HETATM   15  C   UNL     1     -44.501  60.511 -50.482  1.00  0.00     0.035 A 
HETATM   16  C   UNL     1     -43.087  60.835 -50.094  1.00  0.00     0.035 A 
ENDBRANCH   7  14
BRANCH  10  17
HETATM   17  C   UNL     1     -41.992  56.529 -52.136  1.00  0.00    -0.052 A 
HETATM   18  C   UNL     1     -42.982  56.460 -51.141  1.00  0.00     0.007 A 
HETATM   19  C   UNL     1     -43.646  55.260 -50.865  1.00  0.00     0.001 A 
HETATM   20  C   UNL     1     -43.318  54.099 -51.556  1.00  0.00     0.000 A 
HETATM   21  C   UNL     1     -42.307  54.129 -52.508  1.00  0.00     0.001 A 
HETATM   22  C   UNL     1     -41.644  55.327 -52.784  1.00  0.00     0.007 A 
ENDBRANCH  10  17
BRANCH   1  23
HETATM   23  C   UNL     1     -44.005  57.186 -57.853  1.00  0.00     0.277 C 
BRANCH  23  24
HETATM   24  C   UNL     1     -44.965  57.014 -58.970  1.00  0.00     0.011 A 
HETATM   25  C   UNL     1     -45.157  55.859 -59.779  1.00  0.00     0.060 A 
HETATM   26  C   UNL     1     -44.421  54.568 -59.759  1.00  0.00     0.073 C 
HETATM   27  N   UNL     1     -46.177  56.020 -60.623  1.00  0.00    -0.178 NA
HETATM   28  N   UNL     1     -46.567  57.290 -60.456  1.00  0.00    -0.284 N 
HETATM   29  C   UNL     1     -47.638  57.828 -61.264  1.00  0.00     0.179 C 
HETATM   30  C   UNL     1     -45.890  57.925 -59.451  1.00  0.00     0.122 A 
ENDBRANCH  23  24
ENDBRANCH   1  23
TORSDOF 4
ENDMDL
MODEL 5
REMARK VINA RESULT:      -7.1      2.265      4.440
REMARK  4 active torsions:
REMARK  status: ('A' for Active; 'I' for Inactive)
REMARK    1  A    between atoms: C_7  and  C_8 
REMARK    2  A    between atoms: C_8  and  N_9 
REMARK    3  A    between atoms: N_15  and  C_17 
REMARK    4  A    between atoms: C_21  and  C_22 
ROOT
HETATM    1  N   UNL     1     -43.304  58.691 -56.769  1.00  0.00    -0.067 N 
HETATM    2  H   UNL     1     -44.032  58.902 -57.469  1.00  0.00     0.280 HD
HETATM    3  C   UNL     1     -44.019  58.020 -55.633  1.00  0.00     0.236 C 
HETATM    4  C   UNL     1     -43.083  57.823 -54.442  1.00  0.00     0.039 C 
HETATM    5  C   UNL     1     -42.382  59.118 -53.945  1.00  0.00    -0.013 C 
HETATM    6  C   UNL     1     -43.361  60.072 -53.213  1.00  0.00     0.245 C 
HETATM    7  N   UNL     1     -43.787  59.507 -51.880  1.00  0.00    -0.065 N 
HETATM    8  H   UNL     1     -44.237  58.591 -52.014  1.00  0.00     0.280 HD
HETATM    9  C   UNL     1     -42.603  59.279 -50.943  1.00  0.00     0.244 C 
HETATM   10  C   UNL     1     -41.618  58.272 -51.564  1.00  0.00     0.045 C 
HETATM   11  C   UNL     1     -41.210  58.787 -52.970  1.00  0.00     0.022 C 
HETATM   12  C   UNL     1     -41.760  59.834 -55.185  1.00  0.00     0.039 C 
HETATM   13  C   UNL     1     -42.698  60.004 -56.379  1.00  0.00     0.236 C 
ENDROOT
BRANCH   7  14
HETATM   14  C   UNL     1     -44.808  60.388 -51.218  1.00  0.00     0.188 A 
HETATM   15  C   UNL     1     -46.241  59.942 -51.300  1.00  0.00     0.035 A 
HETATM   16  C   UNL     1     -45.495  59.840 -50.000  1.00  0.00     0.035 A 
ENDBRANCH   7  14
BRANCH  10  17
HETATM   17  C   UNL     1     -42.037  56.804 -51.554  1.00  0.00    -0.052 A 
HETATM   18  C   UNL     1     -41.316  55.781 -52.194  1.00  0.00     0.007 A 
HETATM   19  C   UNL     1     -41.748  54.451 -52.141  1.00  0.00     0.001 A 
HETATM   20  C   UNL     1     -42.921  54.119 -51.473  1.00  0.00     0.000 A 
HETATM   21  C   UNL     1     -43.679  55.119 -50.877  1.00  0.00     0.001 A 
HETATM   22  C   UNL     1     -43.248  56.446 -50.930  1.00  0.00     0.007 A 
ENDBRANCH  10  17
BRANCH   1  23
HETATM   23  C   UNL     1     -42.361  57.785 -57.562  1.00  0.00     0.277 C 
BRANCH  23  24
HETATM   24  C   UNL     1     -43.066  57.066 -58.651  1.00  0.00     0.011 A 
HETATM   25  C   UNL     1     -43.256  57.497 -59.994  1.00  0.00     0.060 A 
HETATM   26  C   UNL     1     -42.860  58.780 -60.631  1.00  0.00     0.073 C 
HETATM   27  N   UNL     1     -43.845  56.553 -60.729  1.00  0.00    -0.178 NA
HETATM   28  N   UNL     1     -44.143  55.576 -59.863  1.00  0.00    -0.284 N 
HETATM   29  C   UNL     1     -44.847  54.399 -60.317  1.00  0.00     0.179 C 
HETATM   30  C   UNL     1     -43.668  55.821 -58.604  1.00  0.00     0.122 A 
ENDBRANCH  23  24
ENDBRANCH   1  23
TORSDOF 4
ENDMDL
MODEL 6
REMARK VINA RESULT:      -7.0      2.620      8.129
REMARK  4 active torsions:
REMARK  status: ('A' for Active; 'I' for Inactive)
REMARK    1  A    between atoms: C_7  and  C_8 
REMARK    2  A    between atoms: C_8  and  N_9 
REMARK    3  A    between atoms: N_15  and  C_17 
REMARK    4  A    between atoms: C_21  and  C_22 
ROOT
HETATM    1  N   UNL     1     -42.287  56.526 -54.081  1.00  0.00    -0.067 N 
HETATM    2  H   UNL     1     -41.366  56.437 -53.627  1.00  0.00     0.280 HD
HETATM    3  C   UNL     1     -42.000  56.806 -55.527  1.00  0.00     0.236 C 
HETATM    4  C   UNL     1     -43.284  57.149 -56.281  1.00  0.00     0.039 C 
HETATM    5  C   UNL     1     -44.110  58.311 -55.663  1.00  0.00    -0.013 C 
HETATM    6  C   UNL     1     -43.436  59.690 -55.877  1.00  0.00     0.245 C 
HETATM    7  N   UNL     1     -43.487  60.108 -57.326  1.00  0.00    -0.065 N 
HETATM    8  H   UNL     1     -43.019  59.404 -57.912  1.00  0.00     0.280 HD
HETATM    9  C   UNL     1     -44.918  60.227 -57.845  1.00  0.00     0.244 C 
HETATM   10  C   UNL     1     -45.635  58.868 -57.744  1.00  0.00     0.045 C 
HETATM   11  C   UNL     1     -45.544  58.373 -56.276  1.00  0.00     0.022 C 
HETATM   12  C   UNL     1     -44.276  58.024 -54.137  1.00  0.00     0.039 C 
HETATM   13  C   UNL     1     -42.989  57.660 -53.398  1.00  0.00     0.236 C 
ENDROOT
BRANCH   7  14
HETATM   14  C   UNL     1     -42.750  61.399 -57.545  1.00  0.00     0.188 A 
HETATM   15  C   UNL     1     -41.467  61.321 -58.325  1.00  0.00     0.035 A 
HETATM   16  C   UNL     1     -42.693  61.922 -58.951  1.00  0.00     0.035 A 
ENDBRANCH   7  14
BRANCH  10  17
HETATM   17  C   UNL     1     -45.246  57.806 -58.769  1.00  0.00    -0.052 A 
HETATM   18  C   UNL     1     -43.992  57.752 -59.400  1.00  0.00     0.007 A 
HETATM   19  C   UNL     1     -43.692  56.746 -60.326  1.00  0.00     0.001 A 
HETATM   20  C   UNL     1     -44.646  55.793 -60.662  1.00  0.00     0.000 A 
HETATM   21  C   UNL     1     -45.911  55.856 -60.092  1.00  0.00     0.001 A 
HETATM   22  C   UNL     1     -46.210  56.859 -59.167  1.00  0.00     0.007 A 
ENDBRANCH  10  17
BRANCH   1  23
HETATM   23  C   UNL     1     -42.908  55.156 -53.802  1.00  0.00     0.277 C 
BRANCH  23  24
HETATM   24  C   UNL     1     -41.979  54.266 -53.063  1.00  0.00     0.011 A 
HETATM   25  C   UNL     1     -40.832  53.594 -53.572  1.00  0.00     0.060 A 
HETATM   26  C   UNL     1     -40.307  53.558 -54.962  1.00  0.00     0.073 C 
HETATM   27  N   UNL     1     -40.171  52.960 -52.604  1.00  0.00    -0.178 NA
HETATM   28  N   UNL     1     -40.928  53.112 -51.510  1.00  0.00    -0.284 N 
HETATM   29  C   UNL     1     -40.530  52.497 -50.264  1.00  0.00     0.179 C 
HETATM   30  C   UNL     1     -42.014  53.916 -51.724  1.00  0.00     0.122 A 
ENDBRANCH  23  24
ENDBRANCH   1  23
TORSDOF 4
ENDMDL
MODEL 7
REMARK VINA RESULT:      -6.9      2.760      7.970
REMARK  4 active torsions:
REMARK  status: ('A' for Active; 'I' for Inactive)
REMARK    1  A    between atoms: C_7  and  C_8 
REMARK    2  A    between atoms: C_8  and  N_9 
REMARK    3  A    between atoms: N_15  and  C_17 
REMARK    4  A    between atoms: C_21  and  C_22 
ROOT
HETATM    1  N   UNL     1     -42.827  57.888 -53.290  1.00  0.00    -0.067 N 
HETATM    2  H   UNL     1     -42.114  57.904 -52.545  1.00  0.00     0.280 HD
HETATM    3  C   UNL     1     -42.061  57.870 -54.581  1.00  0.00     0.236 C 
HETATM    4  C   UNL     1     -43.000  58.038 -55.773  1.00  0.00     0.039 C 
HETATM    5  C   UNL     1     -43.914  59.294 -55.709  1.00  0.00    -0.013 C 
HETATM    6  C   UNL     1     -43.126  60.607 -55.950  1.00  0.00     0.245 C 
HETATM    7  N   UNL     1     -42.669  60.720 -57.384  1.00  0.00    -0.065 N 
HETATM    8  H   UNL     1     -42.077  59.915 -57.629  1.00  0.00     0.280 HD
HETATM    9  C   UNL     1     -43.839  60.716 -58.366  1.00  0.00     0.244 C 
HETATM   10  C   UNL     1     -44.629  59.400 -58.248  1.00  0.00     0.045 C 
HETATM   11  C   UNL     1     -45.058  59.215 -56.768  1.00  0.00     0.022 C 
HETATM   12  C   UNL     1     -44.592  59.324 -54.303  1.00  0.00     0.039 C 
HETATM   13  C   UNL     1     -43.646  59.131 -53.118  1.00  0.00     0.236 C 
ENDROOT
BRANCH   7  14
HETATM   14  C   UNL     1     -41.826  61.946 -57.590  1.00  0.00     0.188 A 
HETATM   15  C   UNL     1     -40.610  61.791 -58.462  1.00  0.00     0.035 A 
HETATM   16  C   UNL     1     -41.810  62.538 -58.970  1.00  0.00     0.035 A 
ENDBRANCH   7  14
BRANCH  10  17
HETATM   17  C   UNL     1     -43.986  58.154 -58.853  1.00  0.00    -0.052 A 
HETATM   18  C   UNL     1     -42.732  58.151 -59.486  1.00  0.00     0.007 A 
HETATM   19  C   UNL     1     -42.192  56.972 -60.014  1.00  0.00     0.001 A 
HETATM   20  C   UNL     1     -42.905  55.781 -59.948  1.00  0.00     0.000 A 
HETATM   21  C   UNL     1     -44.171  55.769 -59.375  1.00  0.00     0.001 A 
HETATM   22  C   UNL     1     -44.709  56.944 -58.847  1.00  0.00     0.007 A 
ENDBRANCH  10  17
BRANCH   1  23
HETATM   23  C   UNL     1     -43.585  56.599 -52.973  1.00  0.00     0.277 C 
BRANCH  23  24
HETATM   24  C   UNL     1     -42.686  55.419 -52.941  1.00  0.00     0.011 A 
HETATM   25  C   UNL     1     -42.518  54.429 -53.950  1.00  0.00     0.060 A 
HETATM   26  C   UNL     1     -43.227  54.284 -55.248  1.00  0.00     0.073 C 
HETATM   27  N   UNL     1     -41.551  53.569 -53.630  1.00  0.00    -0.178 NA
HETATM   28  N   UNL     1     -41.176  53.914 -52.391  1.00  0.00    -0.284 N 
HETATM   29  C   UNL     1     -40.164  53.146 -51.703  1.00  0.00     0.179 C 
HETATM   30  C   UNL     1     -41.808  55.040 -51.941  1.00  0.00     0.122 A 
ENDBRANCH  23  24
ENDBRANCH   1  23
TORSDOF 4
ENDMDL
MODEL 8
REMARK VINA RESULT:      -6.9      2.614      3.535
REMARK  4 active torsions:
REMARK  status: ('A' for Active; 'I' for Inactive)
REMARK    1  A    between atoms: C_7  and  C_8 
REMARK    2  A    between atoms: C_8  and  N_9 
REMARK    3  A    between atoms: N_15  and  C_17 
REMARK    4  A    between atoms: C_21  and  C_22 
ROOT
HETATM    1  N   UNL     1     -43.136  58.379 -56.829  1.00  0.00    -0.067 N 
HETATM    2  H   UNL     1     -42.718  58.147 -57.743  1.00  0.00     0.280 HD
HETATM    3  C   UNL     1     -42.089  58.037 -55.809  1.00  0.00     0.236 C 
HETATM    4  C   UNL     1     -42.651  58.156 -54.394  1.00  0.00     0.039 C 
HETATM    5  C   UNL     1     -43.942  57.331 -54.135  1.00  0.00    -0.013 C 
HETATM    6  C   UNL     1     -43.662  55.808 -54.060  1.00  0.00     0.245 C 
HETATM    7  N   UNL     1     -42.898  55.450 -52.809  1.00  0.00    -0.065 N 
HETATM    8  H   UNL     1     -42.007  55.963 -52.781  1.00  0.00     0.280 HD
HETATM    9  C   UNL     1     -43.658  55.825 -51.539  1.00  0.00     0.244 C 
HETATM   10  C   UNL     1     -43.905  57.344 -51.495  1.00  0.00     0.045 C 
HETATM   11  C   UNL     1     -44.631  57.762 -52.802  1.00  0.00     0.022 C 
HETATM   12  C   UNL     1     -44.947  57.637 -55.290  1.00  0.00     0.039 C 
HETATM   13  C   UNL     1     -44.369  57.538 -56.701  1.00  0.00     0.236 C 
ENDROOT
BRANCH   7  14
HETATM   14  C   UNL     1     -42.546  53.989 -52.787  1.00  0.00     0.188 A 
HETATM   15  C   UNL     1     -41.117  53.634 -53.089  1.00  0.00     0.035 A 
HETATM   16  C   UNL     1     -41.639  53.522 -51.685  1.00  0.00     0.035 A 
ENDBRANCH   7  14
BRANCH  10  17
HETATM   17  C   UNL     1     -42.706  58.227 -51.158  1.00  0.00    -0.052 A 
HETATM   18  C   UNL     1     -41.410  57.733 -50.932  1.00  0.00     0.007 A 
HETATM   19  C   UNL     1     -40.350  58.596 -50.635  1.00  0.00     0.001 A 
HETATM   20  C   UNL     1     -40.565  59.965 -50.530  1.00  0.00     0.000 A 
HETATM   21  C   UNL     1     -41.847  60.473 -50.696  1.00  0.00     0.001 A 
HETATM   22  C   UNL     1     -42.906  59.612 -50.993  1.00  0.00     0.007 A 
ENDBRANCH  10  17
BRANCH   1  23
HETATM   23  C   UNL     1     -43.419  59.874 -56.984  1.00  0.00     0.277 C 
BRANCH  23  24
HETATM   24  C   UNL     1     -42.514  60.512 -57.971  1.00  0.00     0.011 A 
HETATM   25  C   UNL     1     -42.528  60.359 -59.386  1.00  0.00     0.060 A 
HETATM   26  C   UNL     1     -43.395  59.494 -60.227  1.00  0.00     0.073 C 
HETATM   27  N   UNL     1     -41.638  61.162 -59.970  1.00  0.00    -0.178 NA
HETATM   28  N   UNL     1     -40.974  61.737 -58.959  1.00  0.00    -0.284 N 
HETATM   29  C   UNL     1     -39.883  62.643 -59.234  1.00  0.00     0.179 C 
HETATM   30  C   UNL     1     -41.482  61.403 -57.734  1.00  0.00     0.122 A 
ENDBRANCH  23  24
ENDBRANCH   1  23
TORSDOF 4
ENDMDL
MODEL 9
REMARK VINA RESULT:      -6.8      2.901      8.104
REMARK  4 active torsions:
REMARK  status: ('A' for Active; 'I' for Inactive)
REMARK    1  A    between atoms: C_7  and  C_8 
REMARK    2  A    between atoms: C_8  and  N_9 
REMARK    3  A    between atoms: N_15  and  C_17 
REMARK    4  A    between atoms: C_21  and  C_22 
ROOT
HETATM    1  N   UNL     1     -42.290  56.813 -53.185  1.00  0.00    -0.067 N 
HETATM    2  H   UNL     1     -41.582  56.954 -52.448  1.00  0.00     0.280 HD
HETATM    3  C   UNL     1     -41.755  57.519 -54.397  1.00  0.00     0.236 C 
HETATM    4  C   UNL     1     -42.798  57.550 -55.512  1.00  0.00     0.039 C 
HETATM    5  C   UNL     1     -44.171  58.152 -55.103  1.00  0.00    -0.013 C 
HETATM    6  C   UNL     1     -44.105  59.690 -54.913  1.00  0.00     0.245 C 
HETATM    7  N   UNL     1     -43.919  60.399 -56.233  1.00  0.00    -0.065 N 
HETATM    8  H   UNL     1     -43.057  60.073 -56.689  1.00  0.00     0.280 HD
HETATM    9  C   UNL     1     -45.062  60.119 -57.207  1.00  0.00     0.244 C 
HETATM   10  C   UNL     1     -45.142  58.613 -57.514  1.00  0.00     0.045 C 
HETATM   11  C   UNL     1     -45.265  57.843 -56.172  1.00  0.00     0.022 C 
HETATM   12  C   UNL     1     -44.619  57.466 -53.775  1.00  0.00     0.039 C 
HETATM   13  C   UNL     1     -43.561  57.419 -52.673  1.00  0.00     0.236 C 
ENDROOT
BRANCH   7  14
HETATM   14  C   UNL     1     -43.761  61.880 -56.035  1.00  0.00     0.188 A 
HETATM   15  C   UNL     1     -42.881  62.603 -57.017  1.00  0.00     0.035 A 
HETATM   16  C   UNL     1     -44.372  62.777 -57.073  1.00  0.00     0.035 A 
ENDBRANCH   7  14
BRANCH  10  17
HETATM   17  C   UNL     1     -44.076  58.042 -58.445  1.00  0.00    -0.052 A 
HETATM   18  C   UNL     1     -43.961  56.677 -58.759  1.00  0.00     0.007 A 
HETATM   19  C   UNL     1     -42.965  56.217 -59.628  1.00  0.00     0.001 A 
HETATM   20  C   UNL     1     -42.047  57.104 -60.178  1.00  0.00     0.000 A 
HETATM   21  C   UNL     1     -42.106  58.450 -59.842  1.00  0.00     0.001 A 
HETATM   22  C   UNL     1     -43.100  58.910 -58.975  1.00  0.00     0.007 A 
ENDBRANCH  10  17
BRANCH   1  23
HETATM   23  C   UNL     1     -42.331  55.288 -53.294  1.00  0.00     0.277 C 
BRANCH  23  24
HETATM   24  C   UNL     1     -41.471  54.635 -52.277  1.00  0.00     0.011 A 
HETATM   25  C   UNL     1     -40.594  53.529 -52.464  1.00  0.00     0.060 A 
HETATM   26  C   UNL     1     -40.359  52.716 -53.685  1.00  0.00     0.073 C 
HETATM   27  N   UNL     1     -39.897  53.270 -51.358  1.00  0.00    -0.178 NA
HETATM   28  N   UNL     1     -40.390  54.105 -50.434  1.00  0.00    -0.284 N 
HETATM   29  C   UNL     1     -39.891  54.058 -49.078  1.00  0.00     0.179 C 
HETATM   30  C   UNL     1     -41.319  54.969 -50.943  1.00  0.00     0.122 A 
ENDBRANCH  23  24
ENDBRANCH   1  23
TORSDOF 4
ENDMDL
MODEL 10
REMARK VINA RESULT:      -6.8      3.212      7.943
REMARK  4 active torsions:
REMARK  status: ('A' for Active; 'I' for Inactive)
REMARK    1  A    between atoms: C_7  and  C_8 
REMARK    2  A    between atoms: C_8  and  N_9 
REMARK    3  A    between atoms: N_15  and  C_17 
REMARK    4  A    between atoms: C_21  and  C_22 
ROOT
HETATM    1  N   UNL     1     -42.037  60.014 -52.738  1.00  0.00    -0.067 N 
HETATM    2  H   UNL     1     -41.496  60.884 -52.620  1.00  0.00     0.280 HD
HETATM    3  C   UNL     1     -41.123  59.065 -53.457  1.00  0.00     0.236 C 
HETATM    4  C   UNL     1     -41.868  57.796 -53.865  1.00  0.00     0.039 C 
HETATM    5  C   UNL     1     -43.155  58.038 -54.702  1.00  0.00    -0.013 C 
HETATM    6  C   UNL     1     -42.839  58.500 -56.147  1.00  0.00     0.245 C 
HETATM    7  N   UNL     1     -42.234  57.383 -56.962  1.00  0.00    -0.065 N 
HETATM    8  H   UNL     1     -41.371  57.047 -56.513  1.00  0.00     0.280 HD
HETATM    9  C   UNL     1     -43.165  56.178 -57.074  1.00  0.00     0.244 C 
HETATM   10  C   UNL     1     -43.464  55.604 -55.676  1.00  0.00     0.045 C 
HETATM   11  C   UNL     1     -44.025  56.745 -54.787  1.00  0.00     0.022 C 
HETATM   12  C   UNL     1     -44.009  59.119 -53.967  1.00  0.00     0.039 C 
HETATM   13  C   UNL     1     -43.249  60.374 -53.542  1.00  0.00     0.236 C 
ENDROOT
BRANCH   7  14
HETATM   14  C   UNL     1     -41.841  57.861 -58.331  1.00  0.00     0.188 A 
HETATM   15  C   UNL     1     -42.951  58.350 -59.221  1.00  0.00     0.035 A 
HETATM   16  C   UNL     1     -41.990  59.329 -58.610  1.00  0.00     0.035 A 
ENDBRANCH   7  14
BRANCH  10  17
HETATM   17  C   UNL     1     -42.348  54.806 -55.007  1.00  0.00    -0.052 A 
HETATM   18  C   UNL     1     -41.127  54.496 -55.629  1.00  0.00     0.007 A 
HETATM   19  C   UNL     1     -40.139  53.767 -54.958  1.00  0.00     0.001 A 
HETATM   20  C   UNL     1     -40.360  53.308 -53.665  1.00  0.00     0.000 A 
HETATM   21  C   UNL     1     -41.579  53.556 -53.047  1.00  0.00     0.001 A 
HETATM   22  C   UNL     1     -42.565  54.284 -53.716  1.00  0.00     0.007 A 
ENDBRANCH  10  17
BRANCH   1  23
HETATM   23  C   UNL     1     -42.346  59.637 -51.288  1.00  0.00     0.277 C 
BRANCH  23  24
HETATM   24  C   UNL     1     -43.259  60.611 -50.643  1.00  0.00     0.011 A 
HETATM   25  C   UNL     1     -44.628  60.422 -50.301  1.00  0.00     0.060 A 
HETATM   26  C   UNL     1     -45.502  59.247 -50.549  1.00  0.00     0.073 C 
HETATM   27  N   UNL     1     -45.113  61.473 -49.639  1.00  0.00    -0.178 NA
HETATM   28  N   UNL     1     -44.124  62.377 -49.652  1.00  0.00    -0.284 N 
HETATM   29  C   UNL     1     -44.328  63.678 -49.057  1.00  0.00     0.179 C 
HETATM   30  C   UNL     1     -42.975  61.897 -50.217  1.00  0.00     0.122 A 
ENDBRANCH  23  24
ENDBRANCH   1  23
TORSDOF 4
ENDMDL
