MODEL 1
REMARK VINA RESULT:      -9.2      0.000      0.000
REMARK  2 active torsions:
REMARK  status: ('A' for Active; 'I' for Inactive)
REMARK    1  A    between atoms: C_4  and  N_5 
REMARK       I    between atoms: N_5  and  C_6 
REMARK    2  A    between atoms: C_6  and  C_7 
ROOT
HETATM    1  N   UNL     1     -41.417  54.708 -55.184  1.00  0.00    -0.319 N 
HETATM    2  C   UNL     1     -42.636  54.675 -55.821  1.00  0.00     0.280 C 
HETATM    3  O   UNL     1     -43.569  53.910 -55.629  1.00  0.00    -0.265 OA
HETATM    4  H   UNL     1     -40.830  55.530 -55.333  1.00  0.00     0.169 HD
ENDROOT
BRANCH   2   5
HETATM    5  C   UNL     1     -42.804  55.781 -56.843  1.00  0.00     0.195 C 
HETATM    6  N   UNL     1     -43.156  55.428 -58.054  1.00  0.00    -0.165 NA
HETATM    7  N   UNL     1     -43.302  56.391 -59.012  1.00  0.00    -0.277 N 
HETATM    8  C   UNL     1     -42.735  57.669 -58.862  1.00  0.00     0.064 A 
HETATM    9  H   UNL     1     -43.353  56.055 -59.975  1.00  0.00     0.189 HD
HETATM   10  C   UNL     1     -42.367  58.143 -57.604  1.00  0.00     0.045 A 
HETATM   11  C   UNL     1     -42.641  58.545 -59.948  1.00  0.00     0.032 A 
HETATM   12  C   UNL     1     -42.558  57.223 -56.485  1.00  0.00     0.220 C 
HETATM   13  C   UNL     1     -41.872  59.436 -57.412  1.00  0.00     0.018 A 
HETATM   14  O   UNL     1     -42.548  57.596 -55.323  1.00  0.00    -0.285 OA
HETATM   15  C   UNL     1     -41.749  60.284 -58.510  1.00  0.00     0.001 A 
HETATM   16  C   UNL     1     -42.138  59.841 -59.775  1.00  0.00     0.002 A 
ENDBRANCH   2   5
BRANCH   1  17
HETATM   17  C   UNL     1     -40.899  53.783 -54.247  1.00  0.00     0.065 A 
HETATM   18  C   UNL     1     -40.450  52.507 -54.612  1.00  0.00     0.038 A 
HETATM   19  C   UNL     1     -39.912  51.640 -53.656  1.00  0.00    -0.059 A 
HETATM   20  C   UNL     1     -39.450  50.269 -54.056  1.00  0.00     0.048 C 
HETATM   21  C   UNL     1     -39.860  52.050 -52.322  1.00  0.00     0.020 A 
HETATM   22  C   UNL     1     -40.308  53.328 -51.949  1.00  0.00    -0.005 A 
HETATM   23  C   UNL     1     -40.827  54.218 -52.914  1.00  0.00     0.093 A 
HETATM   24  C   UNL     1     -40.254  53.754 -50.614  1.00  0.00     0.015 A 
HETATM   25  N   UNL     1     -41.259  55.459 -52.578  1.00  0.00    -0.258 NA
HETATM   26  C   UNL     1     -41.191  55.831 -51.280  1.00  0.00     0.117 A 
HETATM   27  C   UNL     1     -40.703  55.023 -50.272  1.00  0.00     0.020 A 
ENDBRANCH   1  17
TORSDOF 2
ENDMDL
MODEL 2
REMARK VINA RESULT:      -8.9      1.257      2.925
REMARK  2 active torsions:
REMARK  status: ('A' for Active; 'I' for Inactive)
REMARK    1  A    between atoms: C_4  and  N_5 
REMARK       I    between atoms: N_5  and  C_6 
REMARK    2  A    between atoms: C_6  and  C_7 
ROOT
HETATM    1  N   UNL     1     -41.400  54.545 -54.142  1.00  0.00    -0.319 N 
HETATM    2  C   UNL     1     -42.657  55.078 -54.324  1.00  0.00     0.280 C 
HETATM    3  O   UNL     1     -43.542  55.227 -53.496  1.00  0.00    -0.265 OA
HETATM    4  H   UNL     1     -40.721  54.673 -54.893  1.00  0.00     0.169 HD
ENDROOT
BRANCH   2   5
HETATM    5  C   UNL     1     -42.895  55.572 -55.736  1.00  0.00     0.195 C 
HETATM    6  N   UNL     1     -43.304  54.694 -56.616  1.00  0.00    -0.165 NA
HETATM    7  N   UNL     1     -43.515  55.092 -57.906  1.00  0.00    -0.277 N 
HETATM    8  C   UNL     1     -42.961  56.282 -58.408  1.00  0.00     0.064 A 
HETATM    9  H   UNL     1     -43.610  54.341 -58.592  1.00  0.00     0.189 HD
HETATM   10  C   UNL     1     -42.534  57.290 -57.544  1.00  0.00     0.045 A 
HETATM   11  C   UNL     1     -42.937  56.541 -59.783  1.00  0.00     0.032 A 
HETATM   12  C   UNL     1     -42.653  57.010 -56.116  1.00  0.00     0.220 C 
HETATM   13  C   UNL     1     -42.051  58.515 -58.012  1.00  0.00     0.018 A 
HETATM   14  O   UNL     1     -42.588  57.887 -55.269  1.00  0.00    -0.285 OA
HETATM   15  C   UNL     1     -41.998  58.743 -59.385  1.00  0.00     0.001 A 
HETATM   16  C   UNL     1     -42.445  57.759 -60.269  1.00  0.00     0.002 A 
ENDBRANCH   2   5
BRANCH   1  17
HETATM   17  C   UNL     1     -40.880  53.919 -52.985  1.00  0.00     0.065 A 
HETATM   18  C   UNL     1     -40.789  54.570 -51.748  1.00  0.00     0.038 A 
HETATM   19  C   UNL     1     -40.301  53.900 -50.623  1.00  0.00    -0.059 A 
HETATM   20  C   UNL     1     -40.192  54.613 -49.307  1.00  0.00     0.048 C 
HETATM   21  C   UNL     1     -39.870  52.578 -50.757  1.00  0.00     0.020 A 
HETATM   22  C   UNL     1     -39.957  51.918 -51.994  1.00  0.00    -0.005 A 
HETATM   23  C   UNL     1     -40.475  52.582 -53.127  1.00  0.00     0.093 A 
HETATM   24  C   UNL     1     -39.535  50.589 -52.138  1.00  0.00     0.015 A 
HETATM   25  N   UNL     1     -40.576  51.963 -54.329  1.00  0.00    -0.258 NA
HETATM   26  C   UNL     1     -40.157  50.682 -54.427  1.00  0.00     0.117 A 
HETATM   27  C   UNL     1     -39.634  49.960 -53.373  1.00  0.00     0.020 A 
ENDBRANCH   1  17
TORSDOF 2
ENDMDL
MODEL 3
REMARK VINA RESULT:      -8.5      1.891      3.479
REMARK  2 active torsions:
REMARK  status: ('A' for Active; 'I' for Inactive)
REMARK    1  A    between atoms: C_4  and  N_5 
REMARK       I    between atoms: N_5  and  C_6 
REMARK    2  A    between atoms: C_6  and  C_7 
ROOT
HETATM    1  N   UNL     1     -41.566  55.248 -53.474  1.00  0.00    -0.319 N 
HETATM    2  C   UNL     1     -42.779  55.888 -53.589  1.00  0.00     0.280 C 
HETATM    3  O   UNL     1     -43.651  56.012 -52.744  1.00  0.00    -0.265 OA
HETATM    4  H   UNL     1     -40.878  55.405 -54.212  1.00  0.00     0.169 HD
ENDROOT
BRANCH   2   5
HETATM    5  C   UNL     1     -42.979  56.546 -54.939  1.00  0.00     0.195 C 
HETATM    6  N   UNL     1     -43.454  57.766 -54.945  1.00  0.00    -0.165 NA
HETATM    7  N   UNL     1     -43.667  58.391 -56.141  1.00  0.00    -0.277 N 
HETATM    8  C   UNL     1     -43.759  57.668 -57.343  1.00  0.00     0.064 A 
HETATM    9  H   UNL     1     -44.240  59.235 -56.104  1.00  0.00     0.189 HD
HETATM   10  C   UNL     1     -43.244  56.375 -57.439  1.00  0.00     0.045 A 
HETATM   11  C   UNL     1     -44.254  58.266 -58.506  1.00  0.00     0.032 A 
HETATM   12  C   UNL     1     -42.662  55.820 -56.220  1.00  0.00     0.220 C 
HETATM   13  C   UNL     1     -43.251  55.659 -58.640  1.00  0.00     0.018 A 
HETATM   14  O   UNL     1     -41.936  54.838 -56.230  1.00  0.00    -0.285 OA
HETATM   15  C   UNL     1     -43.783  56.255 -59.780  1.00  0.00     0.001 A 
HETATM   16  C   UNL     1     -44.278  57.558 -59.715  1.00  0.00     0.002 A 
ENDBRANCH   2   5
BRANCH   1  17
HETATM   17  C   UNL     1     -41.093  54.465 -52.394  1.00  0.00     0.065 A 
HETATM   18  C   UNL     1     -41.133  54.907 -51.065  1.00  0.00     0.038 A 
HETATM   19  C   UNL     1     -40.688  54.084 -50.026  1.00  0.00    -0.059 A 
HETATM   20  C   UNL     1     -40.719  54.574 -48.608  1.00  0.00     0.048 C 
HETATM   21  C   UNL     1     -40.169  52.825 -50.335  1.00  0.00     0.020 A 
HETATM   22  C   UNL     1     -40.126  52.375 -51.665  1.00  0.00    -0.005 A 
HETATM   23  C   UNL     1     -40.599  53.191 -52.715  1.00  0.00     0.093 A 
HETATM   24  C   UNL     1     -39.614  51.110 -51.986  1.00  0.00     0.015 A 
HETATM   25  N   UNL     1     -40.574  52.775 -54.005  1.00  0.00    -0.258 NA
HETATM   26  C   UNL     1     -40.072  51.549 -54.273  1.00  0.00     0.117 A 
HETATM   27  C   UNL     1     -39.584  50.689 -53.310  1.00  0.00     0.020 A 
ENDBRANCH   1  17
TORSDOF 2
ENDMDL
MODEL 4
REMARK VINA RESULT:      -8.4      1.352      7.929
REMARK  2 active torsions:
REMARK  status: ('A' for Active; 'I' for Inactive)
REMARK    1  A    between atoms: C_4  and  N_5 
REMARK       I    between atoms: N_5  and  C_6 
REMARK    2  A    between atoms: C_6  and  C_7 
ROOT
HETATM    1  N   UNL     1     -42.200  56.703 -55.950  1.00  0.00    -0.319 N 
HETATM    2  C   UNL     1     -42.792  56.627 -54.709  1.00  0.00     0.280 C 
HETATM    3  O   UNL     1     -43.735  57.273 -54.280  1.00  0.00    -0.265 OA
HETATM    4  H   UNL     1     -41.552  55.959 -56.209  1.00  0.00     0.169 HD
ENDROOT
BRANCH   2   5
HETATM    5  C   UNL     1     -42.189  55.552 -53.827  1.00  0.00     0.195 C 
HETATM    6  N   UNL     1     -41.823  55.904 -52.621  1.00  0.00    -0.165 NA
HETATM    7  N   UNL     1     -41.258  54.971 -51.798  1.00  0.00    -0.277 N 
HETATM    8  C   UNL     1     -40.714  53.778 -52.303  1.00  0.00     0.064 A 
HETATM    9  H   UNL     1     -40.790  55.338 -50.968  1.00  0.00     0.189 HD
HETATM   10  C   UNL     1     -41.076  53.306 -53.564  1.00  0.00     0.045 A 
HETATM   11  C   UNL     1     -39.893  52.969 -51.510  1.00  0.00     0.032 A 
HETATM   12  C   UNL     1     -42.000  54.143 -54.326  1.00  0.00     0.220 C 
HETATM   13  C   UNL     1     -40.612  52.086 -54.063  1.00  0.00     0.018 A 
HETATM   14  O   UNL     1     -42.611  53.727 -55.297  1.00  0.00    -0.285 OA
HETATM   15  C   UNL     1     -39.766  51.310 -53.276  1.00  0.00     0.001 A 
HETATM   16  C   UNL     1     -39.411  51.748 -51.999  1.00  0.00     0.002 A 
ENDBRANCH   2   5
BRANCH   1  17
HETATM   17  C   UNL     1     -42.455  57.640 -56.979  1.00  0.00     0.065 A 
HETATM   18  C   UNL     1     -42.112  58.995 -56.870  1.00  0.00     0.038 A 
HETATM   19  C   UNL     1     -42.350  59.877 -57.928  1.00  0.00    -0.059 A 
HETATM   20  C   UNL     1     -41.994  61.329 -57.794  1.00  0.00     0.048 C 
HETATM   21  C   UNL     1     -42.968  59.397 -59.085  1.00  0.00     0.020 A 
HETATM   22  C   UNL     1     -43.314  58.041 -59.201  1.00  0.00    -0.005 A 
HETATM   23  C   UNL     1     -43.051  57.140 -58.147  1.00  0.00     0.093 A 
HETATM   24  C   UNL     1     -43.928  57.546 -60.360  1.00  0.00     0.015 A 
HETATM   25  N   UNL     1     -43.371  55.825 -58.239  1.00  0.00    -0.258 NA
HETATM   26  C   UNL     1     -43.963  55.388 -59.373  1.00  0.00     0.117 A 
HETATM   27  C   UNL     1     -44.260  56.200 -60.449  1.00  0.00     0.020 A 
ENDBRANCH   1  17
TORSDOF 2
ENDMDL
MODEL 5
REMARK VINA RESULT:      -8.4      1.593      1.917
REMARK  2 active torsions:
REMARK  status: ('A' for Active; 'I' for Inactive)
REMARK    1  A    between atoms: C_4  and  N_5 
REMARK       I    between atoms: N_5  and  C_6 
REMARK    2  A    between atoms: C_6  and  C_7 
ROOT
HETATM    1  N   UNL     1     -41.257  54.847 -54.591  1.00  0.00    -0.319 N 
HETATM    2  C   UNL     1     -42.541  55.093 -55.022  1.00  0.00     0.280 C 
HETATM    3  O   UNL     1     -43.559  54.474 -54.757  1.00  0.00    -0.265 OA
HETATM    4  H   UNL     1     -40.558  55.573 -54.752  1.00  0.00     0.169 HD
ENDROOT
BRANCH   2   5
HETATM    5  C   UNL     1     -42.650  56.329 -55.891  1.00  0.00     0.195 C 
HETATM    6  N   UNL     1     -42.289  57.469 -55.358  1.00  0.00    -0.165 NA
HETATM    7  N   UNL     1     -42.387  58.612 -56.100  1.00  0.00    -0.277 N 
HETATM    8  C   UNL     1     -43.198  58.676 -57.247  1.00  0.00     0.064 A 
HETATM    9  H   UNL     1     -42.313  59.487 -55.578  1.00  0.00     0.189 HD
HETATM   10  C   UNL     1     -43.598  57.513 -57.904  1.00  0.00     0.045 A 
HETATM   11  C   UNL     1     -43.519  59.905 -57.832  1.00  0.00     0.032 A 
HETATM   12  C   UNL     1     -43.171  56.252 -57.303  1.00  0.00     0.220 C 
HETATM   13  C   UNL     1     -44.338  57.546 -59.089  1.00  0.00     0.018 A 
HETATM   14  O   UNL     1     -43.204  55.194 -57.910  1.00  0.00    -0.285 OA
HETATM   15  C   UNL     1     -44.683  58.778 -59.638  1.00  0.00     0.001 A 
HETATM   16  C   UNL     1     -44.270  59.956 -59.014  1.00  0.00     0.002 A 
ENDBRANCH   2   5
BRANCH   1  17
HETATM   17  C   UNL     1     -40.786  53.740 -53.845  1.00  0.00     0.065 A 
HETATM   18  C   UNL     1     -40.426  52.524 -54.440  1.00  0.00     0.038 A 
HETATM   19  C   UNL     1     -39.932  51.470 -53.666  1.00  0.00    -0.059 A 
HETATM   20  C   UNL     1     -39.565  50.166 -54.312  1.00  0.00     0.048 C 
HETATM   21  C   UNL     1     -39.835  51.634 -52.283  1.00  0.00     0.020 A 
HETATM   22  C   UNL     1     -40.194  52.850 -51.678  1.00  0.00    -0.005 A 
HETATM   23  C   UNL     1     -40.667  53.927 -52.458  1.00  0.00     0.093 A 
HETATM   24  C   UNL     1     -40.093  53.028 -50.292  1.00  0.00     0.015 A 
HETATM   25  N   UNL     1     -41.013  55.112 -51.898  1.00  0.00    -0.258 NA
HETATM   26  C   UNL     1     -40.903  55.244 -50.557  1.00  0.00     0.117 A 
HETATM   27  C   UNL     1     -40.454  54.242 -49.720  1.00  0.00     0.020 A 
ENDBRANCH   1  17
TORSDOF 2
ENDMDL
MODEL 6
REMARK VINA RESULT:      -8.2      1.459      1.938
REMARK  2 active torsions:
REMARK  status: ('A' for Active; 'I' for Inactive)
REMARK    1  A    between atoms: C_4  and  N_5 
REMARK       I    between atoms: N_5  and  C_6 
REMARK    2  A    between atoms: C_6  and  C_7 
ROOT
HETATM    1  N   UNL     1     -41.925  56.038 -55.983  1.00  0.00    -0.319 N 
HETATM    2  C   UNL     1     -42.703  55.844 -57.101  1.00  0.00     0.280 C 
HETATM    3  O   UNL     1     -43.413  54.888 -57.372  1.00  0.00    -0.265 OA
HETATM    4  H   UNL     1     -41.549  56.974 -55.827  1.00  0.00     0.169 HD
ENDROOT
BRANCH   2   5
HETATM    5  C   UNL     1     -42.676  57.020 -58.057  1.00  0.00     0.195 C 
HETATM    6  N   UNL     1     -42.846  56.762 -59.329  1.00  0.00    -0.165 NA
HETATM    7  N   UNL     1     -42.812  57.790 -60.228  1.00  0.00    -0.277 N 
HETATM    8  C   UNL     1     -42.236  59.031 -59.904  1.00  0.00     0.064 A 
HETATM    9  H   UNL     1     -42.722  57.519 -61.208  1.00  0.00     0.189 HD
HETATM   10  C   UNL     1     -42.053  59.407 -58.573  1.00  0.00     0.045 A 
HETATM   11  C   UNL     1     -41.947  59.971 -60.898  1.00  0.00     0.032 A 
HETATM   12  C   UNL     1     -42.444  58.425 -57.565  1.00  0.00     0.220 C 
HETATM   13  C   UNL     1     -41.554  60.663 -58.218  1.00  0.00     0.018 A 
HETATM   14  O   UNL     1     -42.604  58.721 -56.391  1.00  0.00    -0.285 OA
HETATM   15  C   UNL     1     -41.236  61.574 -59.221  1.00  0.00     0.001 A 
HETATM   16  C   UNL     1     -41.437  61.231 -60.559  1.00  0.00     0.002 A 
ENDBRANCH   2   5
BRANCH   1  17
HETATM   17  C   UNL     1     -41.654  55.121 -54.940  1.00  0.00     0.065 A 
HETATM   18  C   UNL     1     -40.837  53.996 -55.115  1.00  0.00     0.038 A 
HETATM   19  C   UNL     1     -40.569  53.136 -54.046  1.00  0.00    -0.059 A 
HETATM   20  C   UNL     1     -39.705  51.926 -54.249  1.00  0.00     0.048 C 
HETATM   21  C   UNL     1     -41.157  53.394 -52.806  1.00  0.00     0.020 A 
HETATM   22  C   UNL     1     -41.978  54.519 -52.623  1.00  0.00    -0.005 A 
HETATM   23  C   UNL     1     -42.230  55.406 -53.692  1.00  0.00     0.093 A 
HETATM   24  C   UNL     1     -42.567  54.792 -51.381  1.00  0.00     0.015 A 
HETATM   25  N   UNL     1     -43.013  56.501 -53.537  1.00  0.00    -0.258 NA
HETATM   26  C   UNL     1     -43.564  56.728 -52.324  1.00  0.00     0.117 A 
HETATM   27  C   UNL     1     -43.375  55.912 -51.227  1.00  0.00     0.020 A 
ENDBRANCH   1  17
TORSDOF 2
ENDMDL
MODEL 7
REMARK VINA RESULT:      -8.2      1.959      2.162
REMARK  2 active torsions:
REMARK  status: ('A' for Active; 'I' for Inactive)
REMARK    1  A    between atoms: C_4  and  N_5 
REMARK       I    between atoms: N_5  and  C_6 
REMARK    2  A    between atoms: C_6  and  C_7 
ROOT
HETATM    1  N   UNL     1     -41.957  54.070 -54.517  1.00  0.00    -0.319 N 
HETATM    2  C   UNL     1     -41.550  55.265 -55.067  1.00  0.00     0.280 C 
HETATM    3  O   UNL     1     -40.422  55.732 -55.112  1.00  0.00    -0.265 OA
HETATM    4  H   UNL     1     -42.900  53.748 -54.736  1.00  0.00     0.169 HD
ENDROOT
BRANCH   2   5
HETATM    5  C   UNL     1     -42.678  56.030 -55.728  1.00  0.00     0.195 C 
HETATM    6  N   UNL     1     -42.879  55.816 -57.004  1.00  0.00    -0.165 NA
HETATM    7  N   UNL     1     -43.874  56.498 -57.645  1.00  0.00    -0.277 N 
HETATM    8  C   UNL     1     -44.429  57.671 -57.103  1.00  0.00     0.064 A 
HETATM    9  H   UNL     1     -43.845  56.470 -58.665  1.00  0.00     0.189 HD
HETATM   10  C   UNL     1     -44.298  57.960 -55.745  1.00  0.00     0.045 A 
HETATM   11  C   UNL     1     -45.231  58.513 -57.880  1.00  0.00     0.032 A 
HETATM   12  C   UNL     1     -43.520  57.010 -54.954  1.00  0.00     0.220 C 
HETATM   13  C   UNL     1     -44.903  59.077 -55.162  1.00  0.00     0.018 A 
HETATM   14  O   UNL     1     -43.563  56.985 -53.734  1.00  0.00    -0.285 OA
HETATM   15  C   UNL     1     -45.667  59.927 -55.957  1.00  0.00     0.001 A 
HETATM   16  C   UNL     1     -45.836  59.642 -57.313  1.00  0.00     0.002 A 
ENDBRANCH   2   5
BRANCH   1  17
HETATM   17  C   UNL     1     -41.190  53.157 -53.756  1.00  0.00     0.065 A 
HETATM   18  C   UNL     1     -40.663  51.976 -54.297  1.00  0.00     0.038 A 
HETATM   19  C   UNL     1     -39.880  51.121 -53.515  1.00  0.00    -0.059 A 
HETATM   20  C   UNL     1     -39.335  49.851 -54.100  1.00  0.00     0.048 C 
HETATM   21  C   UNL     1     -39.660  51.442 -52.174  1.00  0.00     0.020 A 
HETATM   22  C   UNL     1     -40.185  52.623 -51.625  1.00  0.00    -0.005 A 
HETATM   23  C   UNL     1     -40.953  53.504 -52.417  1.00  0.00     0.093 A 
HETATM   24  C   UNL     1     -39.963  52.960 -50.282  1.00  0.00     0.015 A 
HETATM   25  N   UNL     1     -41.464  54.653 -51.910  1.00  0.00    -0.258 NA
HETATM   26  C   UNL     1     -41.229  54.941 -50.610  1.00  0.00     0.117 A 
HETATM   27  C   UNL     1     -40.494  54.135 -49.764  1.00  0.00     0.020 A 
ENDBRANCH   1  17
TORSDOF 2
ENDMDL
MODEL 8
REMARK VINA RESULT:      -8.1      2.347      7.892
REMARK  2 active torsions:
REMARK  status: ('A' for Active; 'I' for Inactive)
REMARK    1  A    between atoms: C_4  and  N_5 
REMARK       I    between atoms: N_5  and  C_6 
REMARK    2  A    between atoms: C_6  and  C_7 
ROOT
HETATM    1  N   UNL     1     -43.096  56.106 -53.665  1.00  0.00    -0.319 N 
HETATM    2  C   UNL     1     -41.789  56.052 -53.239  1.00  0.00     0.280 C 
HETATM    3  O   UNL     1     -40.997  56.973 -53.110  1.00  0.00    -0.265 OA
HETATM    4  H   UNL     1     -43.671  55.274 -53.530  1.00  0.00     0.169 HD
ENDROOT
BRANCH   2   5
HETATM    5  C   UNL     1     -41.348  54.657 -52.845  1.00  0.00     0.195 C 
HETATM    6  N   UNL     1     -40.838  54.505 -51.650  1.00  0.00    -0.165 NA
HETATM    7  N   UNL     1     -40.411  53.267 -51.259  1.00  0.00    -0.277 N 
HETATM    8  C   UNL     1     -40.147  52.252 -52.195  1.00  0.00     0.064 A 
HETATM    9  H   UNL     1     -39.824  53.244 -50.425  1.00  0.00     0.189 HD
HETATM   10  C   UNL     1     -40.682  52.311 -53.482  1.00  0.00     0.045 A 
HETATM   11  C   UNL     1     -39.449  51.098 -51.826  1.00  0.00     0.032 A 
HETATM   12  C   UNL     1     -41.474  53.497 -53.798  1.00  0.00     0.220 C 
HETATM   13  C   UNL     1     -40.502  51.281 -54.409  1.00  0.00     0.018 A 
HETATM   14  O   UNL     1     -42.221  53.546 -54.763  1.00  0.00    -0.285 OA
HETATM   15  C   UNL     1     -39.771  50.156 -54.039  1.00  0.00     0.001 A 
HETATM   16  C   UNL     1     -39.250  50.061 -52.747  1.00  0.00     0.002 A 
ENDBRANCH   2   5
BRANCH   1  17
HETATM   17  C   UNL     1     -43.797  57.220 -54.184  1.00  0.00     0.065 A 
HETATM   18  C   UNL     1     -44.391  58.189 -53.364  1.00  0.00     0.038 A 
HETATM   19  C   UNL     1     -45.044  59.293 -53.922  1.00  0.00    -0.059 A 
HETATM   20  C   UNL     1     -45.691  60.315 -53.035  1.00  0.00     0.048 C 
HETATM   21  C   UNL     1     -45.126  59.399 -55.312  1.00  0.00     0.020 A 
HETATM   22  C   UNL     1     -44.533  58.432 -56.141  1.00  0.00    -0.005 A 
HETATM   23  C   UNL     1     -43.849  57.330 -55.583  1.00  0.00     0.093 A 
HETATM   24  C   UNL     1     -44.602  58.533 -57.537  1.00  0.00     0.015 A 
HETATM   25  N   UNL     1     -43.263  56.388 -56.362  1.00  0.00    -0.258 NA
HETATM   26  C   UNL     1     -43.354  56.520 -57.704  1.00  0.00     0.117 A 
HETATM   27  C   UNL     1     -44.006  57.563 -58.333  1.00  0.00     0.020 A 
ENDBRANCH   1  17
TORSDOF 2
ENDMDL
MODEL 9
REMARK VINA RESULT:      -8.0      2.144      8.144
REMARK  2 active torsions:
REMARK  status: ('A' for Active; 'I' for Inactive)
REMARK    1  A    between atoms: C_4  and  N_5 
REMARK       I    between atoms: N_5  and  C_6 
REMARK    2  A    between atoms: C_6  and  C_7 
ROOT
HETATM    1  N   UNL     1     -42.125  57.920 -54.690  1.00  0.00    -0.319 N 
HETATM    2  C   UNL     1     -41.275  58.258 -53.661  1.00  0.00     0.280 C 
HETATM    3  O   UNL     1     -40.493  59.194 -53.602  1.00  0.00    -0.265 OA
HETATM    4  H   UNL     1     -42.846  57.224 -54.496  1.00  0.00     0.169 HD
ENDROOT
BRANCH   2   5
HETATM    5  C   UNL     1     -41.409  57.349 -52.455  1.00  0.00     0.195 C 
HETATM    6  N   UNL     1     -41.577  57.921 -51.290  1.00  0.00    -0.165 NA
HETATM    7  N   UNL     1     -41.685  57.141 -50.174  1.00  0.00    -0.277 N 
HETATM    8  C   UNL     1     -41.251  55.803 -50.168  1.00  0.00     0.064 A 
HETATM    9  H   UNL     1     -41.587  57.627 -49.282  1.00  0.00     0.189 HD
HETATM   10  C   UNL     1     -41.082  55.102 -51.361  1.00  0.00     0.045 A 
HETATM   11  C   UNL     1     -41.098  55.103 -48.967  1.00  0.00     0.032 A 
HETATM   12  C   UNL     1     -41.332  55.851 -52.591  1.00  0.00     0.220 C 
HETATM   13  C   UNL     1     -40.726  53.751 -51.386  1.00  0.00     0.018 A 
HETATM   14  O   UNL     1     -41.497  55.302 -53.669  1.00  0.00    -0.285 OA
HETATM   15  C   UNL     1     -40.540  53.078 -50.182  1.00  0.00     0.001 A 
HETATM   16  C   UNL     1     -40.731  53.751 -48.974  1.00  0.00     0.002 A 
ENDBRANCH   2   5
BRANCH   1  17
HETATM   17  C   UNL     1     -42.201  58.495 -55.980  1.00  0.00     0.065 A 
HETATM   18  C   UNL     1     -41.969  59.856 -56.217  1.00  0.00     0.038 A 
HETATM   19  C   UNL     1     -42.020  60.373 -57.514  1.00  0.00    -0.059 A 
HETATM   20  C   UNL     1     -41.786  61.836 -57.754  1.00  0.00     0.048 C 
HETATM   21  C   UNL     1     -42.341  59.519 -58.571  1.00  0.00     0.020 A 
HETATM   22  C   UNL     1     -42.576  58.153 -58.342  1.00  0.00    -0.005 A 
HETATM   23  C   UNL     1     -42.498  57.620 -57.037  1.00  0.00     0.093 A 
HETATM   24  C   UNL     1     -42.891  57.285 -59.396  1.00  0.00     0.015 A 
HETATM   25  N   UNL     1     -42.714  56.304 -56.793  1.00  0.00    -0.258 NA
HETATM   26  C   UNL     1     -43.017  55.500 -57.836  1.00  0.00     0.117 A 
HETATM   27  C   UNL     1     -43.118  55.938 -59.142  1.00  0.00     0.020 A 
ENDBRANCH   1  17
TORSDOF 2
ENDMDL
MODEL 10
REMARK VINA RESULT:      -8.0      2.982      7.854
REMARK  2 active torsions:
REMARK  status: ('A' for Active; 'I' for Inactive)
REMARK    1  A    between atoms: C_4  and  N_5 
REMARK       I    between atoms: N_5  and  C_6 
REMARK    2  A    between atoms: C_6  and  C_7 
ROOT
HETATM    1  N   UNL     1     -42.791  55.771 -53.012  1.00  0.00    -0.319 N 
HETATM    2  C   UNL     1     -41.534  55.651 -52.466  1.00  0.00     0.280 C 
HETATM    3  O   UNL     1     -40.944  56.439 -51.743  1.00  0.00    -0.265 OA
HETATM    4  H   UNL     1     -43.204  54.938 -53.432  1.00  0.00     0.169 HD
ENDROOT
BRANCH   2   5
HETATM    5  C   UNL     1     -40.865  54.331 -52.795  1.00  0.00     0.195 C 
HETATM    6  N   UNL     1     -40.799  53.993 -54.058  1.00  0.00    -0.165 NA
HETATM    7  N   UNL     1     -40.220  52.803 -54.399  1.00  0.00    -0.277 N 
HETATM    8  C   UNL     1     -40.041  51.776 -53.457  1.00  0.00     0.064 A 
HETATM    9  H   UNL     1     -40.393  52.484 -55.354  1.00  0.00     0.189 HD
HETATM   10  C   UNL     1     -40.057  52.051 -52.090  1.00  0.00     0.045 A 
HETATM   11  C   UNL     1     -39.719  50.477 -53.862  1.00  0.00     0.032 A 
HETATM   12  C   UNL     1     -40.317  53.438 -51.713  1.00  0.00     0.220 C 
HETATM   13  C   UNL     1     -39.806  51.066 -51.131  1.00  0.00     0.018 A 
HETATM   14  O   UNL     1     -40.083  53.867 -50.594  1.00  0.00    -0.285 OA
HETATM   15  C   UNL     1     -39.524  49.768 -51.550  1.00  0.00     0.001 A 
HETATM   16  C   UNL     1     -39.475  49.475 -52.913  1.00  0.00     0.002 A 
ENDBRANCH   2   5
BRANCH   1  17
HETATM   17  C   UNL     1     -43.651  56.894 -52.978  1.00  0.00     0.065 A 
HETATM   18  C   UNL     1     -44.123  57.450 -51.781  1.00  0.00     0.038 A 
HETATM   19  C   UNL     1     -44.942  58.582 -51.795  1.00  0.00    -0.059 A 
HETATM   20  C   UNL     1     -45.455  59.159 -50.508  1.00  0.00     0.048 C 
HETATM   21  C   UNL     1     -45.314  59.134 -53.023  1.00  0.00     0.020 A 
HETATM   22  C   UNL     1     -44.845  58.582 -54.227  1.00  0.00    -0.005 A 
HETATM   23  C   UNL     1     -43.996  57.455 -54.218  1.00  0.00     0.093 A 
HETATM   24  C   UNL     1     -45.206  59.132 -55.465  1.00  0.00     0.015 A 
HETATM   25  N   UNL     1     -43.525  56.910 -55.366  1.00  0.00    -0.258 NA
HETATM   26  C   UNL     1     -43.897  57.468 -56.540  1.00  0.00     0.117 A 
HETATM   27  C   UNL     1     -44.727  58.567 -56.641  1.00  0.00     0.020 A 
ENDBRANCH   1  17
TORSDOF 2
ENDMDL
