MODEL 1
REMARK VINA RESULT:      -9.2      0.000      0.000
REMARK  8 active torsions:
REMARK  status: ('A' for Active; 'I' for Inactive)
REMARK    1  A    between atoms: C_7  and  C_8 
REMARK       I    between atoms: C_8  and  N_9 
REMARK    2  A    between atoms: N_9  and  N_10 
REMARK    3  A    between atoms: N_10  and  C_11 
REMARK    4  A    between atoms: C_11  and  N_12 
REMARK    5  A    between atoms: N_12  and  C_13 
REMARK    6  A    between atoms: N_15  and  C_16 
REMARK    7  A    between atoms: C_16  and  C_17 
REMARK    8  A    between atoms: C_29  and  C_30 
ROOT
HETATM    1  C   UNL     1     -41.475  56.458 -54.608  1.00  0.00     0.290 C 
HETATM    2  N   UNL     1     -41.524  57.674 -53.956  1.00  0.00    -0.262 N 
HETATM    3  O   UNL     1     -40.927  55.448 -54.175  1.00  0.00    -0.264 OA
HETATM    4  H   UNL     1     -42.121  58.400 -54.352  1.00  0.00     0.190 HD
ENDROOT
BRANCH   2   5
HETATM    5  N   UNL     1     -41.138  57.789 -52.623  1.00  0.00    -0.273 N 
HETATM    6  H   UNL     1     -40.142  57.930 -52.425  1.00  0.00     0.189 HD
BRANCH   5   7
HETATM    7  C   UNL     1     -42.044  58.046 -51.627  1.00  0.00     0.192 C 
HETATM    8  S   UNL     1     -42.597  59.575 -51.211  1.00  0.00    -0.039 SA
BRANCH   7   9
HETATM    9  N   UNL     1     -42.515  56.978 -50.916  1.00  0.00    -0.315 N 
HETATM   10  H   UNL     1     -43.153  57.200 -50.165  1.00  0.00     0.170 HD
BRANCH   9  11
HETATM   11  C   UNL     1     -42.139  55.656 -51.040  1.00  0.00     0.151 A 
HETATM   12  N   UNL     1     -40.883  55.216 -50.914  1.00  0.00    -0.154 NA
HETATM   13  N   UNL     1     -40.981  53.878 -51.064  1.00  0.00    -0.275 N 
HETATM   14  C   UNL     1     -42.257  53.459 -51.305  1.00  0.00     0.116 A 
HETATM   15  C   UNL     1     -43.033  54.594 -51.303  1.00  0.00     0.071 A 
BRANCH  13  16
HETATM   16  C   UNL     1     -39.782  53.051 -51.029  1.00  0.00     0.192 C 
BRANCH  16  17
HETATM   17  C   UNL     1     -39.832  51.960 -52.061  1.00  0.00     0.000 A 
HETATM   18  C   UNL     1     -39.701  50.623 -51.680  1.00  0.00     0.124 A 
HETATM   19  F   UNL     1     -39.544  50.313 -50.386  1.00  0.00    -0.205 F 
HETATM   20  C   UNL     1     -39.734  49.595 -52.618  1.00  0.00     0.043 A 
HETATM   21  C   UNL     1     -39.898  49.900 -53.968  1.00  0.00     0.003 A 
HETATM   22  C   UNL     1     -40.021  51.231 -54.371  1.00  0.00     0.001 A 
HETATM   23  C   UNL     1     -39.984  52.258 -53.424  1.00  0.00     0.012 A 
ENDBRANCH  16  17
ENDBRANCH  13  16
ENDBRANCH   9  11
ENDBRANCH   7   9
ENDBRANCH   5   7
ENDBRANCH   2   5
BRANCH   1  24
HETATM   24  C   UNL     1     -42.173  56.503 -55.904  1.00  0.00     0.150 A 
HETATM   25  N   UNL     1     -42.423  57.676 -56.531  1.00  0.00    -0.165 NA
HETATM   26  N   UNL     1     -43.047  57.301 -57.658  1.00  0.00    -0.240 N 
HETATM   27  C   UNL     1     -43.305  55.962 -57.738  1.00  0.00     0.123 A 
HETATM   28  C   UNL     1     -43.472  58.265 -58.655  1.00  0.00     0.221 C 
HETATM   29  N   UNL     1     -44.047  55.446 -58.742  1.00  0.00    -0.371 N 
HETATM   30  C   UNL     1     -42.696  55.403 -56.643  1.00  0.00     0.089 A 
HETATM   31  C   UNL     1     -44.532  56.277 -59.842  1.00  0.00     0.081 C 
HETATM   32  H   UNL     1     -44.097  54.437 -58.879  1.00  0.00     0.161 HD
HETATM   33  C   UNL     1     -45.856  55.710 -60.350  1.00  0.00     0.032 C 
HETATM   34  C   UNL     1     -44.722  57.731 -59.372  1.00  0.00     0.061 C 
BRANCH  28  35
HETATM   35  C   UNL     1     -42.332  58.554 -59.605  1.00  0.00     0.409 C 
HETATM   36  F   UNL     1     -41.487  57.508 -59.739  1.00  0.00    -0.169 F 
HETATM   37  F   UNL     1     -42.738  58.911 -60.843  1.00  0.00    -0.169 F 
HETATM   38  F   UNL     1     -41.589  59.588 -59.130  1.00  0.00    -0.169 F 
ENDBRANCH  28  35
ENDBRANCH   1  24
TORSDOF 8
ENDMDL
MODEL 2
REMARK VINA RESULT:      -9.0      1.350      1.672
REMARK  8 active torsions:
REMARK  status: ('A' for Active; 'I' for Inactive)
REMARK    1  A    between atoms: C_7  and  C_8 
REMARK       I    between atoms: C_8  and  N_9 
REMARK    2  A    between atoms: N_9  and  N_10 
REMARK    3  A    between atoms: N_10  and  C_11 
REMARK    4  A    between atoms: C_11  and  N_12 
REMARK    5  A    between atoms: N_12  and  C_13 
REMARK    6  A    between atoms: N_15  and  C_16 
REMARK    7  A    between atoms: C_16  and  C_17 
REMARK    8  A    between atoms: C_29  and  C_30 
ROOT
HETATM    1  C   UNL     1     -41.781  56.887 -54.337  1.00  0.00     0.290 C 
HETATM    2  N   UNL     1     -41.612  58.042 -53.599  1.00  0.00    -0.262 N 
HETATM    3  O   UNL     1     -41.235  55.813 -54.099  1.00  0.00    -0.264 OA
HETATM    4  H   UNL     1     -42.219  58.833 -53.812  1.00  0.00     0.190 HD
ENDROOT
BRANCH   2   5
HETATM    5  N   UNL     1     -40.967  58.015 -52.364  1.00  0.00    -0.273 N 
HETATM    6  H   UNL     1     -39.942  58.013 -52.360  1.00  0.00     0.189 HD
BRANCH   5   7
HETATM    7  C   UNL     1     -41.623  58.320 -51.200  1.00  0.00     0.192 C 
HETATM    8  S   UNL     1     -41.919  59.879 -50.651  1.00  0.00    -0.039 SA
BRANCH   7   9
HETATM    9  N   UNL     1     -42.049  57.276 -50.427  1.00  0.00    -0.315 N 
HETATM   10  H   UNL     1     -42.503  57.530 -49.561  1.00  0.00     0.170 HD
BRANCH   9  11
HETATM   11  C   UNL     1     -41.838  55.930 -50.646  1.00  0.00     0.151 A 
HETATM   12  N   UNL     1     -40.649  55.329 -50.543  1.00  0.00    -0.154 NA
HETATM   13  N   UNL     1     -40.910  54.028 -50.792  1.00  0.00    -0.275 N 
HETATM   14  C   UNL     1     -42.224  53.790 -51.074  1.00  0.00     0.116 A 
HETATM   15  C   UNL     1     -42.852  55.011 -50.993  1.00  0.00     0.071 A 
BRANCH  13  16
HETATM   16  C   UNL     1     -39.824  53.057 -50.810  1.00  0.00     0.192 C 
BRANCH  16  17
HETATM   17  C   UNL     1     -39.906  52.155 -52.008  1.00  0.00     0.000 A 
HETATM   18  C   UNL     1     -39.662  50.786 -51.879  1.00  0.00     0.124 A 
HETATM   19  F   UNL     1     -39.367  50.275 -50.675  1.00  0.00    -0.205 F 
HETATM   20  C   UNL     1     -39.722  49.932 -52.976  1.00  0.00     0.043 A 
HETATM   21  C   UNL     1     -40.029  50.447 -54.234  1.00  0.00     0.003 A 
HETATM   22  C   UNL     1     -40.267  51.815 -54.386  1.00  0.00     0.001 A 
HETATM   23  C   UNL     1     -40.201  52.667 -53.281  1.00  0.00     0.012 A 
ENDBRANCH  16  17
ENDBRANCH  13  16
ENDBRANCH   9  11
ENDBRANCH   7   9
ENDBRANCH   5   7
ENDBRANCH   2   5
BRANCH   1  24
HETATM   24  C   UNL     1     -42.710  57.087 -55.461  1.00  0.00     0.150 A 
HETATM   25  N   UNL     1     -42.266  57.185 -56.736  1.00  0.00    -0.165 NA
HETATM   26  N   UNL     1     -43.393  57.345 -57.447  1.00  0.00    -0.240 N 
HETATM   27  C   UNL     1     -44.524  57.461 -56.690  1.00  0.00     0.123 A 
HETATM   28  C   UNL     1     -43.375  57.462 -58.893  1.00  0.00     0.221 C 
HETATM   29  N   UNL     1     -45.716  57.765 -57.246  1.00  0.00    -0.371 N 
HETATM   30  C   UNL     1     -44.125  57.236 -55.396  1.00  0.00     0.089 A 
HETATM   31  C   UNL     1     -45.877  57.892 -58.693  1.00  0.00     0.081 C 
HETATM   32  H   UNL     1     -46.573  57.690 -56.699  1.00  0.00     0.161 HD
HETATM   33  C   UNL     1     -46.979  58.908 -58.986  1.00  0.00     0.032 C 
HETATM   34  C   UNL     1     -44.554  58.339 -59.343  1.00  0.00     0.061 C 
BRANCH  28  35
HETATM   35  C   UNL     1     -43.399  56.085 -59.517  1.00  0.00     0.409 C 
HETATM   36  F   UNL     1     -43.938  55.153 -58.702  1.00  0.00    -0.169 F 
HETATM   37  F   UNL     1     -44.067  56.037 -60.690  1.00  0.00    -0.169 F 
HETATM   38  F   UNL     1     -42.129  55.677 -59.779  1.00  0.00    -0.169 F 
ENDBRANCH  28  35
ENDBRANCH   1  24
TORSDOF 8
ENDMDL
MODEL 3
REMARK VINA RESULT:      -8.8      1.953      2.591
REMARK  8 active torsions:
REMARK  status: ('A' for Active; 'I' for Inactive)
REMARK    1  A    between atoms: C_7  and  C_8 
REMARK       I    between atoms: C_8  and  N_9 
REMARK    2  A    between atoms: N_9  and  N_10 
REMARK    3  A    between atoms: N_10  and  C_11 
REMARK    4  A    between atoms: C_11  and  N_12 
REMARK    5  A    between atoms: N_12  and  C_13 
REMARK    6  A    between atoms: N_15  and  C_16 
REMARK    7  A    between atoms: C_16  and  C_17 
REMARK    8  A    between atoms: C_29  and  C_30 
ROOT
HETATM    1  C   UNL     1     -43.825  56.666 -54.513  1.00  0.00     0.290 C 
HETATM    2  N   UNL     1     -44.517  57.671 -53.867  1.00  0.00    -0.262 N 
HETATM    3  O   UNL     1     -43.436  55.628 -53.985  1.00  0.00    -0.264 OA
HETATM    4  H   UNL     1     -44.904  58.423 -54.438  1.00  0.00     0.190 HD
ENDROOT
BRANCH   2   5
HETATM    5  N   UNL     1     -45.034  57.478 -52.588  1.00  0.00    -0.273 N 
HETATM    6  H   UNL     1     -45.747  56.752 -52.465  1.00  0.00     0.189 HD
BRANCH   5   7
HETATM    7  C   UNL     1     -44.408  57.973 -51.473  1.00  0.00     0.192 C 
HETATM    8  S   UNL     1     -43.998  59.584 -51.244  1.00  0.00    -0.039 SA
BRANCH   7   9
HETATM    9  N   UNL     1     -44.085  57.082 -50.487  1.00  0.00    -0.315 N 
HETATM   10  H   UNL     1     -44.346  57.354 -49.550  1.00  0.00     0.170 HD
BRANCH   9  11
HETATM   11  C   UNL     1     -43.357  55.917 -50.616  1.00  0.00     0.151 A 
HETATM   12  N   UNL     1     -42.032  55.873 -50.783  1.00  0.00    -0.154 NA
HETATM   13  N   UNL     1     -41.743  54.555 -50.816  1.00  0.00    -0.275 N 
HETATM   14  C   UNL     1     -42.847  53.762 -50.697  1.00  0.00     0.116 A 
HETATM   15  C   UNL     1     -43.914  54.620 -50.572  1.00  0.00     0.071 A 
BRANCH  13  16
HETATM   16  C   UNL     1     -40.371  54.114 -51.032  1.00  0.00     0.192 C 
BRANCH  16  17
HETATM   17  C   UNL     1     -40.268  53.179 -52.204  1.00  0.00     0.000 A 
HETATM   18  C   UNL     1     -39.861  51.857 -52.017  1.00  0.00     0.124 A 
HETATM   19  F   UNL     1     -39.576  51.418 -50.783  1.00  0.00    -0.205 F 
HETATM   20  C   UNL     1     -39.749  50.974 -53.087  1.00  0.00     0.043 A 
HETATM   21  C   UNL     1     -40.043  51.414 -54.377  1.00  0.00     0.003 A 
HETATM   22  C   UNL     1     -40.442  52.736 -54.586  1.00  0.00     0.001 A 
HETATM   23  C   UNL     1     -40.549  53.617 -53.507  1.00  0.00     0.012 A 
ENDBRANCH  16  17
ENDBRANCH  13  16
ENDBRANCH   9  11
ENDBRANCH   7   9
ENDBRANCH   5   7
ENDBRANCH   2   5
BRANCH   1  24
HETATM   24  C   UNL     1     -43.606  56.979 -55.934  1.00  0.00     0.150 A 
HETATM   25  N   UNL     1     -43.261  56.018 -56.824  1.00  0.00    -0.165 NA
HETATM   26  N   UNL     1     -43.169  56.686 -57.985  1.00  0.00    -0.240 N 
HETATM   27  C   UNL     1     -43.332  58.037 -57.869  1.00  0.00     0.123 A 
HETATM   28  C   UNL     1     -42.844  56.016 -59.229  1.00  0.00     0.221 C 
HETATM   29  N   UNL     1     -43.132  58.863 -58.919  1.00  0.00    -0.371 N 
HETATM   30  C   UNL     1     -43.678  58.256 -56.560  1.00  0.00     0.089 A 
HETATM   31  C   UNL     1     -42.823  58.348 -60.252  1.00  0.00     0.081 C 
HETATM   32  H   UNL     1     -43.410  59.842 -58.864  1.00  0.00     0.161 HD
HETATM   33  C   UNL     1     -41.950  59.361 -60.989  1.00  0.00     0.032 C 
HETATM   34  C   UNL     1     -42.097  56.994 -60.149  1.00  0.00     0.061 C 
BRANCH  28  35
HETATM   35  C   UNL     1     -44.106  55.469 -59.859  1.00  0.00     0.409 C 
HETATM   36  F   UNL     1     -44.166  55.702 -61.189  1.00  0.00    -0.169 F 
HETATM   37  F   UNL     1     -44.273  54.143 -59.669  1.00  0.00    -0.169 F 
HETATM   38  F   UNL     1     -45.192  56.077 -59.314  1.00  0.00    -0.169 F 
ENDBRANCH  28  35
ENDBRANCH   1  24
TORSDOF 8
ENDMDL
MODEL 4
REMARK VINA RESULT:      -8.5      2.737      7.212
REMARK  8 active torsions:
REMARK  status: ('A' for Active; 'I' for Inactive)
REMARK    1  A    between atoms: C_7  and  C_8 
REMARK       I    between atoms: C_8  and  N_9 
REMARK    2  A    between atoms: N_9  and  N_10 
REMARK    3  A    between atoms: N_10  and  C_11 
REMARK    4  A    between atoms: C_11  and  N_12 
REMARK    5  A    between atoms: N_12  and  C_13 
REMARK    6  A    between atoms: N_15  and  C_16 
REMARK    7  A    between atoms: C_16  and  C_17 
REMARK    8  A    between atoms: C_29  and  C_30 
ROOT
HETATM    1  C   UNL     1     -43.756  56.738 -51.015  1.00  0.00     0.290 C 
HETATM    2  N   UNL     1     -43.198  58.001 -51.050  1.00  0.00    -0.262 N 
HETATM    3  O   UNL     1     -44.868  56.471 -50.568  1.00  0.00    -0.264 OA
HETATM    4  H   UNL     1     -42.326  58.120 -51.565  1.00  0.00     0.190 HD
ENDROOT
BRANCH   2   5
HETATM    5  N   UNL     1     -43.966  59.131 -50.777  1.00  0.00    -0.273 N 
HETATM    6  H   UNL     1     -43.840  59.585 -49.867  1.00  0.00     0.189 HD
BRANCH   5   7
HETATM    7  C   UNL     1     -44.610  59.824 -51.769  1.00  0.00     0.192 C 
HETATM    8  S   UNL     1     -46.124  60.531 -51.609  1.00  0.00    -0.039 SA
BRANCH   7   9
HETATM    9  N   UNL     1     -43.976  59.929 -52.975  1.00  0.00    -0.315 N 
HETATM   10  H   UNL     1     -43.217  60.595 -53.013  1.00  0.00     0.170 HD
BRANCH   9  11
HETATM   11  C   UNL     1     -44.321  59.314 -54.160  1.00  0.00     0.151 A 
HETATM   12  N   UNL     1     -44.052  59.810 -55.372  1.00  0.00    -0.154 NA
HETATM   13  N   UNL     1     -44.519  58.876 -56.226  1.00  0.00    -0.275 N 
HETATM   14  C   UNL     1     -45.097  57.813 -55.595  1.00  0.00     0.116 A 
HETATM   15  C   UNL     1     -44.990  58.073 -54.249  1.00  0.00     0.071 A 
BRANCH  13  16
HETATM   16  C   UNL     1     -44.438  59.097 -57.665  1.00  0.00     0.192 C 
BRANCH  16  17
HETATM   17  C   UNL     1     -44.271  57.807 -58.415  1.00  0.00     0.000 A 
HETATM   18  C   UNL     1     -43.032  57.164 -58.446  1.00  0.00     0.124 A 
HETATM   19  F   UNL     1     -41.991  57.696 -57.790  1.00  0.00    -0.205 F 
HETATM   20  C   UNL     1     -42.850  55.972 -59.143  1.00  0.00     0.043 A 
HETATM   21  C   UNL     1     -43.923  55.405 -59.829  1.00  0.00     0.003 A 
HETATM   22  C   UNL     1     -45.167  56.037 -59.818  1.00  0.00     0.001 A 
HETATM   23  C   UNL     1     -45.342  57.235 -59.120  1.00  0.00     0.012 A 
ENDBRANCH  16  17
ENDBRANCH  13  16
ENDBRANCH   9  11
ENDBRANCH   7   9
ENDBRANCH   5   7
ENDBRANCH   2   5
BRANCH   1  24
HETATM   24  C   UNL     1     -42.855  55.726 -51.590  1.00  0.00     0.150 A 
HETATM   25  N   UNL     1     -43.001  55.292 -52.864  1.00  0.00    -0.165 NA
HETATM   26  N   UNL     1     -42.004  54.405 -53.009  1.00  0.00    -0.240 N 
HETATM   27  C   UNL     1     -41.293  54.168 -51.867  1.00  0.00     0.123 A 
HETATM   28  C   UNL     1     -41.773  53.712 -54.261  1.00  0.00     0.221 C 
HETATM   29  N   UNL     1     -40.351  53.203 -51.811  1.00  0.00    -0.371 N 
HETATM   30  C   UNL     1     -41.780  55.055 -50.939  1.00  0.00     0.089 A 
HETATM   31  C   UNL     1     -39.977  52.427 -52.993  1.00  0.00     0.081 C 
HETATM   32  H   UNL     1     -39.721  53.144 -51.012  1.00  0.00     0.161 HD
HETATM   33  C   UNL     1     -39.538  51.031 -52.555  1.00  0.00     0.032 C 
HETATM   34  C   UNL     1     -41.164  52.332 -53.969  1.00  0.00     0.061 C 
BRANCH  28  35
HETATM   35  C   UNL     1     -40.899  54.557 -55.160  1.00  0.00     0.409 C 
HETATM   36  F   UNL     1     -41.613  55.283 -56.048  1.00  0.00    -0.169 F 
HETATM   37  F   UNL     1     -40.098  55.411 -54.485  1.00  0.00    -0.169 F 
HETATM   38  F   UNL     1     -40.080  53.756 -55.891  1.00  0.00    -0.169 F 
ENDBRANCH  28  35
ENDBRANCH   1  24
TORSDOF 8
ENDMDL
MODEL 5
REMARK VINA RESULT:      -8.4      1.978      2.501
REMARK  8 active torsions:
REMARK  status: ('A' for Active; 'I' for Inactive)
REMARK    1  A    between atoms: C_7  and  C_8 
REMARK       I    between atoms: C_8  and  N_9 
REMARK    2  A    between atoms: N_9  and  N_10 
REMARK    3  A    between atoms: N_10  and  C_11 
REMARK    4  A    between atoms: C_11  and  N_12 
REMARK    5  A    between atoms: N_12  and  C_13 
REMARK    6  A    between atoms: N_15  and  C_16 
REMARK    7  A    between atoms: C_16  and  C_17 
REMARK    8  A    between atoms: C_29  and  C_30 
ROOT
HETATM    1  C   UNL     1     -43.555  58.961 -54.487  1.00  0.00     0.290 C 
HETATM    2  N   UNL     1     -42.331  59.540 -54.216  1.00  0.00    -0.262 N 
HETATM    3  O   UNL     1     -44.535  59.008 -53.750  1.00  0.00    -0.264 OA
HETATM    4  H   UNL     1     -41.635  59.549 -54.961  1.00  0.00     0.190 HD
ENDROOT
BRANCH   2   5
HETATM    5  N   UNL     1     -42.180  60.435 -53.159  1.00  0.00    -0.273 N 
HETATM    6  H   UNL     1     -42.554  61.383 -53.278  1.00  0.00     0.189 HD
BRANCH   5   7
HETATM    7  C   UNL     1     -41.863  60.014 -51.894  1.00  0.00     0.192 C 
HETATM    8  S   UNL     1     -42.455  60.704 -50.482  1.00  0.00    -0.039 SA
BRANCH   7   9
HETATM    9  N   UNL     1     -40.992  58.967 -51.781  1.00  0.00    -0.315 N 
HETATM   10  H   UNL     1     -40.040  59.157 -52.062  1.00  0.00     0.170 HD
BRANCH   9  11
HETATM   11  C   UNL     1     -41.287  57.665 -51.431  1.00  0.00     0.151 A 
HETATM   12  N   UNL     1     -41.849  56.774 -52.253  1.00  0.00    -0.154 NA
HETATM   13  N   UNL     1     -41.911  55.640 -51.523  1.00  0.00    -0.275 N 
HETATM   14  C   UNL     1     -41.427  55.791 -50.257  1.00  0.00     0.116 A 
HETATM   15  C   UNL     1     -41.020  57.101 -50.164  1.00  0.00     0.071 A 
BRANCH  13  16
HETATM   16  C   UNL     1     -42.517  54.441 -52.089  1.00  0.00     0.192 C 
BRANCH  16  17
HETATM   17  C   UNL     1     -41.478  53.467 -52.566  1.00  0.00     0.000 A 
HETATM   18  C   UNL     1     -41.392  53.133 -53.919  1.00  0.00     0.124 A 
HETATM   19  F   UNL     1     -42.234  53.697 -54.797  1.00  0.00    -0.205 F 
HETATM   20  C   UNL     1     -40.444  52.226 -54.383  1.00  0.00     0.043 A 
HETATM   21  C   UNL     1     -39.561  51.631 -53.484  1.00  0.00     0.003 A 
HETATM   22  C   UNL     1     -39.637  51.944 -52.125  1.00  0.00     0.001 A 
HETATM   23  C   UNL     1     -40.594  52.853 -51.666  1.00  0.00     0.012 A 
ENDBRANCH  16  17
ENDBRANCH  13  16
ENDBRANCH   9  11
ENDBRANCH   7   9
ENDBRANCH   5   7
ENDBRANCH   2   5
BRANCH   1  24
HETATM   24  C   UNL     1     -43.557  58.271 -55.788  1.00  0.00     0.150 A 
HETATM   25  N   UNL     1     -43.599  58.959 -56.952  1.00  0.00    -0.165 NA
HETATM   26  N   UNL     1     -43.574  57.995 -57.886  1.00  0.00    -0.240 N 
HETATM   27  C   UNL     1     -43.626  56.726 -57.384  1.00  0.00     0.123 A 
HETATM   28  C   UNL     1     -43.573  58.302 -59.303  1.00  0.00     0.221 C 
HETATM   29  N   UNL     1     -43.749  55.652 -58.194  1.00  0.00    -0.371 N 
HETATM   30  C   UNL     1     -43.554  56.866 -56.021  1.00  0.00     0.089 A 
HETATM   31  C   UNL     1     -43.738  55.785 -59.649  1.00  0.00     0.081 C 
HETATM   32  H   UNL     1     -43.624  54.711 -57.823  1.00  0.00     0.161 HD
HETATM   33  C   UNL     1     -44.598  54.680 -60.258  1.00  0.00     0.032 C 
HETATM   34  C   UNL     1     -44.273  57.167 -60.066  1.00  0.00     0.061 C 
BRANCH  28  35
HETATM   35  C   UNL     1     -42.155  58.535 -59.775  1.00  0.00     0.409 C 
HETATM   36  F   UNL     1     -41.918  58.003 -60.994  1.00  0.00    -0.169 F 
HETATM   37  F   UNL     1     -41.811  59.840 -59.825  1.00  0.00    -0.169 F 
HETATM   38  F   UNL     1     -41.283  57.938 -58.920  1.00  0.00    -0.169 F 
ENDBRANCH  28  35
ENDBRANCH   1  24
TORSDOF 8
ENDMDL
MODEL 6
REMARK VINA RESULT:      -8.2      2.081      2.775
REMARK  8 active torsions:
REMARK  status: ('A' for Active; 'I' for Inactive)
REMARK    1  A    between atoms: C_7  and  C_8 
REMARK       I    between atoms: C_8  and  N_9 
REMARK    2  A    between atoms: N_9  and  N_10 
REMARK    3  A    between atoms: N_10  and  C_11 
REMARK    4  A    between atoms: C_11  and  N_12 
REMARK    5  A    between atoms: N_12  and  C_13 
REMARK    6  A    between atoms: N_15  and  C_16 
REMARK    7  A    between atoms: C_16  and  C_17 
REMARK    8  A    between atoms: C_29  and  C_30 
ROOT
HETATM    1  C   UNL     1     -42.875  59.652 -55.607  1.00  0.00     0.290 C 
HETATM    2  N   UNL     1     -43.752  60.139 -54.658  1.00  0.00    -0.262 N 
HETATM    3  O   UNL     1     -41.662  59.838 -55.604  1.00  0.00    -0.264 OA
HETATM    4  H   UNL     1     -44.717  59.808 -54.690  1.00  0.00     0.190 HD
ENDROOT
BRANCH   2   5
HETATM    5  N   UNL     1     -43.286  60.704 -53.473  1.00  0.00    -0.273 N 
HETATM    6  H   UNL     1     -43.363  61.721 -53.366  1.00  0.00     0.189 HD
BRANCH   5   7
HETATM    7  C   UNL     1     -43.046  59.947 -52.356  1.00  0.00     0.192 C 
HETATM    8  S   UNL     1     -44.002  59.955 -50.975  1.00  0.00    -0.039 SA
BRANCH   7   9
HETATM    9  N   UNL     1     -41.942  59.143 -52.367  1.00  0.00    -0.315 N 
HETATM   10  H   UNL     1     -41.190  59.440 -52.973  1.00  0.00     0.170 HD
BRANCH   9  11
HETATM   11  C   UNL     1     -41.782  57.928 -51.732  1.00  0.00     0.151 A 
HETATM   12  N   UNL     1     -42.421  56.807 -52.081  1.00  0.00    -0.154 NA
HETATM   13  N   UNL     1     -41.939  55.871 -51.236  1.00  0.00    -0.275 N 
HETATM   14  C   UNL     1     -41.030  56.369 -50.348  1.00  0.00     0.116 A 
HETATM   15  C   UNL     1     -40.913  57.707 -50.641  1.00  0.00     0.071 A 
BRANCH  13  16
HETATM   16  C   UNL     1     -42.447  54.507 -51.292  1.00  0.00     0.192 C 
BRANCH  16  17
HETATM   17  C   UNL     1     -41.544  53.611 -52.091  1.00  0.00     0.000 A 
HETATM   18  C   UNL     1     -40.552  52.861 -51.455  1.00  0.00     0.124 A 
HETATM   19  F   UNL     1     -40.418  52.932 -50.123  1.00  0.00    -0.205 F 
HETATM   20  C   UNL     1     -39.697  52.032 -52.174  1.00  0.00     0.043 A 
HETATM   21  C   UNL     1     -39.825  51.945 -53.560  1.00  0.00     0.003 A 
HETATM   22  C   UNL     1     -40.804  52.694 -54.215  1.00  0.00     0.001 A 
HETATM   23  C   UNL     1     -41.656  53.528 -53.487  1.00  0.00     0.012 A 
ENDBRANCH  16  17
ENDBRANCH  13  16
ENDBRANCH   9  11
ENDBRANCH   7   9
ENDBRANCH   5   7
ENDBRANCH   2   5
BRANCH   1  24
HETATM   24  C   UNL     1     -43.568  58.865 -56.639  1.00  0.00     0.150 A 
HETATM   25  N   UNL     1     -42.955  58.523 -57.797  1.00  0.00    -0.165 NA
HETATM   26  N   UNL     1     -43.891  57.817 -58.450  1.00  0.00    -0.240 N 
HETATM   27  C   UNL     1     -45.104  57.777 -57.822  1.00  0.00     0.123 A 
HETATM   28  C   UNL     1     -43.635  57.223 -59.748  1.00  0.00     0.221 C 
HETATM   29  N   UNL     1     -46.186  57.226 -58.413  1.00  0.00    -0.371 N 
HETATM   30  C   UNL     1     -44.913  58.397 -56.612  1.00  0.00     0.089 A 
HETATM   31  C   UNL     1     -46.095  56.562 -59.712  1.00  0.00     0.081 C 
HETATM   32  H   UNL     1     -47.036  57.059 -57.877  1.00  0.00     0.161 HD
HETATM   33  C   UNL     1     -47.423  56.721 -60.449  1.00  0.00     0.032 C 
HETATM   34  C   UNL     1     -44.948  57.166 -60.544  1.00  0.00     0.061 C 
BRANCH  28  35
HETATM   35  C   UNL     1     -43.000  55.862 -59.571  1.00  0.00     0.409 C 
HETATM   36  F   UNL     1     -42.962  55.469 -58.279  1.00  0.00    -0.169 F 
HETATM   37  F   UNL     1     -43.612  54.885 -60.276  1.00  0.00    -0.169 F 
HETATM   38  F   UNL     1     -41.711  55.897 -59.999  1.00  0.00    -0.169 F 
ENDBRANCH  28  35
ENDBRANCH   1  24
TORSDOF 8
ENDMDL
MODEL 7
REMARK VINA RESULT:      -8.2      2.250      3.100
REMARK  8 active torsions:
REMARK  status: ('A' for Active; 'I' for Inactive)
REMARK    1  A    between atoms: C_7  and  C_8 
REMARK       I    between atoms: C_8  and  N_9 
REMARK    2  A    between atoms: N_9  and  N_10 
REMARK    3  A    between atoms: N_10  and  C_11 
REMARK    4  A    between atoms: C_11  and  N_12 
REMARK    5  A    between atoms: N_12  and  C_13 
REMARK    6  A    between atoms: N_15  and  C_16 
REMARK    7  A    between atoms: C_16  and  C_17 
REMARK    8  A    between atoms: C_29  and  C_30 
ROOT
HETATM    1  C   UNL     1     -41.784  59.082 -54.316  1.00  0.00     0.290 C 
HETATM    2  N   UNL     1     -42.957  58.861 -53.621  1.00  0.00    -0.262 N 
HETATM    3  O   UNL     1     -40.678  59.225 -53.802  1.00  0.00    -0.264 OA
HETATM    4  H   UNL     1     -43.790  58.625 -54.160  1.00  0.00     0.190 HD
ENDROOT
BRANCH   2   5
HETATM    5  N   UNL     1     -42.939  58.553 -52.263  1.00  0.00    -0.273 N 
HETATM    6  H   UNL     1     -43.192  59.294 -51.601  1.00  0.00     0.189 HD
BRANCH   5   7
HETATM    7  C   UNL     1     -42.921  57.258 -51.815  1.00  0.00     0.192 C 
HETATM    8  S   UNL     1     -44.146  56.542 -50.917  1.00  0.00    -0.039 SA
BRANCH   7   9
HETATM    9  N   UNL     1     -41.819  56.506 -52.111  1.00  0.00    -0.315 N 
HETATM   10  H   UNL     1     -40.960  56.794 -51.666  1.00  0.00     0.170 HD
BRANCH   9  11
HETATM   11  C   UNL     1     -41.729  55.474 -53.023  1.00  0.00     0.151 A 
HETATM   12  N   UNL     1     -40.703  54.620 -53.093  1.00  0.00    -0.154 NA
HETATM   13  N   UNL     1     -41.047  53.765 -54.079  1.00  0.00    -0.275 N 
HETATM   14  C   UNL     1     -42.250  54.064 -54.651  1.00  0.00     0.116 A 
HETATM   15  C   UNL     1     -42.715  55.176 -53.990  1.00  0.00     0.071 A 
BRANCH  13  16
HETATM   16  C   UNL     1     -40.133  52.702 -54.475  1.00  0.00     0.192 C 
BRANCH  16  17
HETATM   17  C   UNL     1     -39.925  51.709 -53.367  1.00  0.00     0.000 A 
HETATM   18  C   UNL     1     -39.751  50.354 -53.658  1.00  0.00     0.124 A 
HETATM   19  F   UNL     1     -39.755  49.943 -54.934  1.00  0.00    -0.205 F 
HETATM   20  C   UNL     1     -39.566  49.413 -52.649  1.00  0.00     0.043 A 
HETATM   21  C   UNL     1     -39.558  49.825 -51.317  1.00  0.00     0.003 A 
HETATM   22  C   UNL     1     -39.740  51.173 -51.005  1.00  0.00     0.001 A 
HETATM   23  C   UNL     1     -39.928  52.111 -52.023  1.00  0.00     0.012 A 
ENDBRANCH  16  17
ENDBRANCH  13  16
ENDBRANCH   9  11
ENDBRANCH   7   9
ENDBRANCH   5   7
ENDBRANCH   2   5
BRANCH   1  24
HETATM   24  C   UNL     1     -42.009  59.122 -55.770  1.00  0.00     0.150 A 
HETATM   25  N   UNL     1     -42.041  57.989 -56.511  1.00  0.00    -0.165 NA
HETATM   26  N   UNL     1     -42.275  58.437 -57.755  1.00  0.00    -0.240 N 
HETATM   27  C   UNL     1     -42.290  59.798 -57.869  1.00  0.00     0.123 A 
HETATM   28  C   UNL     1     -42.418  57.531 -58.879  1.00  0.00     0.221 C 
HETATM   29  N   UNL     1     -42.374  60.403 -59.073  1.00  0.00    -0.371 N 
HETATM   30  C   UNL     1     -42.181  60.276 -56.587  1.00  0.00     0.089 A 
HETATM   31  C   UNL     1     -42.548  59.637 -60.306  1.00  0.00     0.081 C 
HETATM   32  H   UNL     1     -42.545  61.406 -59.134  1.00  0.00     0.161 HD
HETATM   33  C   UNL     1     -41.883  60.386 -61.458  1.00  0.00     0.032 C 
HETATM   34  C   UNL     1     -41.933  58.233 -60.157  1.00  0.00     0.061 C 
BRANCH  28  35
HETATM   35  C   UNL     1     -43.853  57.063 -58.979  1.00  0.00     0.409 C 
HETATM   36  F   UNL     1     -44.712  57.875 -58.325  1.00  0.00    -0.169 F 
HETATM   37  F   UNL     1     -44.293  56.942 -60.250  1.00  0.00    -0.169 F 
HETATM   38  F   UNL     1     -43.977  55.836 -58.409  1.00  0.00    -0.169 F 
ENDBRANCH  28  35
ENDBRANCH   1  24
TORSDOF 8
ENDMDL
MODEL 8
REMARK VINA RESULT:      -7.9      3.819      6.425
REMARK  8 active torsions:
REMARK  status: ('A' for Active; 'I' for Inactive)
REMARK    1  A    between atoms: C_7  and  C_8 
REMARK       I    between atoms: C_8  and  N_9 
REMARK    2  A    between atoms: N_9  and  N_10 
REMARK    3  A    between atoms: N_10  and  C_11 
REMARK    4  A    between atoms: C_11  and  N_12 
REMARK    5  A    between atoms: N_12  and  C_13 
REMARK    6  A    between atoms: N_15  and  C_16 
REMARK    7  A    between atoms: C_16  and  C_17 
REMARK    8  A    between atoms: C_29  and  C_30 
ROOT
HETATM    1  C   UNL     1     -42.055  59.651 -56.166  1.00  0.00     0.290 C 
HETATM    2  N   UNL     1     -42.596  58.431 -56.520  1.00  0.00    -0.262 N 
HETATM    3  O   UNL     1     -41.472  60.411 -56.933  1.00  0.00    -0.264 OA
HETATM    4  H   UNL     1     -43.172  57.949 -55.830  1.00  0.00     0.190 HD
ENDROOT
BRANCH   2   5
HETATM    5  N   UNL     1     -42.719  58.062 -57.858  1.00  0.00    -0.273 N 
HETATM    6  H   UNL     1     -42.321  58.688 -58.565  1.00  0.00     0.189 HD
BRANCH   5   7
HETATM    7  C   UNL     1     -43.044  56.783 -58.229  1.00  0.00     0.192 C 
HETATM    8  S   UNL     1     -42.782  56.137 -59.756  1.00  0.00    -0.039 SA
BRANCH   7   9
HETATM    9  N   UNL     1     -43.636  55.988 -57.288  1.00  0.00    -0.315 N 
HETATM   10  H   UNL     1     -44.646  55.979 -57.295  1.00  0.00     0.170 HD
BRANCH   9  11
HETATM   11  C   UNL     1     -43.017  55.286 -56.274  1.00  0.00     0.151 A 
HETATM   12  N   UNL     1     -41.885  55.670 -55.675  1.00  0.00    -0.154 NA
HETATM   13  N   UNL     1     -41.671  54.729 -54.732  1.00  0.00    -0.275 N 
HETATM   14  C   UNL     1     -42.619  53.748 -54.729  1.00  0.00     0.116 A 
HETATM   15  C   UNL     1     -43.506  54.079 -55.727  1.00  0.00     0.071 A 
BRANCH  13  16
HETATM   16  C   UNL     1     -40.481  54.795 -53.892  1.00  0.00     0.192 C 
BRANCH  16  17
HETATM   17  C   UNL     1     -40.196  53.477 -53.231  1.00  0.00     0.000 A 
HETATM   18  C   UNL     1     -40.261  53.356 -51.842  1.00  0.00     0.124 A 
HETATM   19  F   UNL     1     -40.595  54.420 -51.098  1.00  0.00    -0.205 F 
HETATM   20  C   UNL     1     -39.991  52.148 -51.205  1.00  0.00     0.043 A 
HETATM   21  C   UNL     1     -39.644  51.032 -51.964  1.00  0.00     0.003 A 
HETATM   22  C   UNL     1     -39.564  51.135 -53.354  1.00  0.00     0.001 A 
HETATM   23  C   UNL     1     -39.833  52.351 -53.986  1.00  0.00     0.012 A 
ENDBRANCH  16  17
ENDBRANCH  13  16
ENDBRANCH   9  11
ENDBRANCH   7   9
ENDBRANCH   5   7
ENDBRANCH   2   5
BRANCH   1  24
HETATM   24  C   UNL     1     -42.265  59.949 -54.740  1.00  0.00     0.150 A 
HETATM   25  N   UNL     1     -42.212  58.976 -53.799  1.00  0.00    -0.165 NA
HETATM   26  N   UNL     1     -42.436  59.637 -52.653  1.00  0.00    -0.240 N 
HETATM   27  C   UNL     1     -42.735  60.960 -52.817  1.00  0.00     0.123 A 
HETATM   28  C   UNL     1     -42.435  58.964 -51.369  1.00  0.00     0.221 C 
HETATM   29  N   UNL     1     -43.122  61.729 -51.777  1.00  0.00    -0.371 N 
HETATM   30  C   UNL     1     -42.573  61.211 -54.156  1.00  0.00     0.089 A 
HETATM   31  C   UNL     1     -43.150  61.212 -50.409  1.00  0.00     0.081 C 
HETATM   32  H   UNL     1     -43.185  62.741 -51.880  1.00  0.00     0.161 HD
HETATM   33  C   UNL     1     -44.254  61.922 -49.629  1.00  0.00     0.032 C 
HETATM   34  C   UNL     1     -43.396  59.692 -50.416  1.00  0.00     0.061 C 
BRANCH  28  35
HETATM   35  C   UNL     1     -41.023  58.892 -50.831  1.00  0.00     0.409 C 
HETATM   36  F   UNL     1     -40.465  57.672 -50.995  1.00  0.00    -0.169 F 
HETATM   37  F   UNL     1     -40.188  59.799 -51.384  1.00  0.00    -0.169 F 
HETATM   38  F   UNL     1     -41.027  59.135 -49.494  1.00  0.00    -0.169 F 
ENDBRANCH  28  35
ENDBRANCH   1  24
TORSDOF 8
ENDMDL
MODEL 9
REMARK VINA RESULT:      -7.9      2.631      3.321
REMARK  8 active torsions:
REMARK  status: ('A' for Active; 'I' for Inactive)
REMARK    1  A    between atoms: C_7  and  C_8 
REMARK       I    between atoms: C_8  and  N_9 
REMARK    2  A    between atoms: N_9  and  N_10 
REMARK    3  A    between atoms: N_10  and  C_11 
REMARK    4  A    between atoms: C_11  and  N_12 
REMARK    5  A    between atoms: N_12  and  C_13 
REMARK    6  A    between atoms: N_15  and  C_16 
REMARK    7  A    between atoms: C_16  and  C_17 
REMARK    8  A    between atoms: C_29  and  C_30 
ROOT
HETATM    1  C   UNL     1     -42.555  60.486 -53.523  1.00  0.00     0.290 C 
HETATM    2  N   UNL     1     -42.186  59.549 -52.579  1.00  0.00    -0.262 N 
HETATM    3  O   UNL     1     -42.641  61.694 -53.320  1.00  0.00    -0.264 OA
HETATM    4  H   UNL     1     -42.020  58.594 -52.898  1.00  0.00     0.190 HD
ENDROOT
BRANCH   2   5
HETATM    5  N   UNL     1     -41.653  59.938 -51.352  1.00  0.00    -0.273 N 
HETATM    6  H   UNL     1     -42.144  60.671 -50.829  1.00  0.00     0.189 HD
BRANCH   5   7
HETATM    7  C   UNL     1     -40.726  59.175 -50.691  1.00  0.00     0.192 C 
HETATM    8  S   UNL     1     -39.065  59.405 -50.776  1.00  0.00    -0.039 SA
BRANCH   7   9
HETATM    9  N   UNL     1     -41.193  58.146 -49.921  1.00  0.00    -0.315 N 
HETATM   10  H   UNL     1     -41.284  58.345 -48.935  1.00  0.00     0.170 HD
BRANCH   9  11
HETATM   11  C   UNL     1     -41.449  56.851 -50.320  1.00  0.00     0.151 A 
HETATM   12  N   UNL     1     -41.707  56.488 -51.580  1.00  0.00    -0.154 NA
HETATM   13  N   UNL     1     -41.849  55.147 -51.520  1.00  0.00    -0.275 N 
HETATM   14  C   UNL     1     -41.712  54.651 -50.256  1.00  0.00     0.116 A 
HETATM   15  C   UNL     1     -41.458  55.737 -49.451  1.00  0.00     0.071 A 
BRANCH  13  16
HETATM   16  C   UNL     1     -42.185  54.395 -52.722  1.00  0.00     0.192 C 
BRANCH  16  17
HETATM   17  C   UNL     1     -41.211  53.278 -52.967  1.00  0.00     0.000 A 
HETATM   18  C   UNL     1     -41.283  52.525 -54.141  1.00  0.00     0.124 A 
HETATM   19  F   UNL     1     -42.218  52.811 -55.057  1.00  0.00    -0.205 F 
HETATM   20  C   UNL     1     -40.398  51.479 -54.387  1.00  0.00     0.043 A 
HETATM   21  C   UNL     1     -39.419  51.169 -53.444  1.00  0.00     0.003 A 
HETATM   22  C   UNL     1     -39.336  51.904 -52.260  1.00  0.00     0.001 A 
HETATM   23  C   UNL     1     -40.231  52.951 -52.019  1.00  0.00     0.012 A 
ENDBRANCH  16  17
ENDBRANCH  13  16
ENDBRANCH   9  11
ENDBRANCH   7   9
ENDBRANCH   5   7
ENDBRANCH   2   5
BRANCH   1  24
HETATM   24  C   UNL     1     -42.834  59.866 -54.829  1.00  0.00     0.150 A 
HETATM   25  N   UNL     1     -42.103  58.823 -55.286  1.00  0.00    -0.165 NA
HETATM   26  N   UNL     1     -42.663  58.546 -56.474  1.00  0.00    -0.240 N 
HETATM   27  C   UNL     1     -43.643  59.420 -56.850  1.00  0.00     0.123 A 
HETATM   28  C   UNL     1     -42.195  57.453 -57.304  1.00  0.00     0.221 C 
HETATM   29  N   UNL     1     -44.207  59.361 -58.076  1.00  0.00    -0.371 N 
HETATM   30  C   UNL     1     -43.823  60.256 -55.777  1.00  0.00     0.089 A 
HETATM   31  C   UNL     1     -43.867  58.304 -59.026  1.00  0.00     0.081 C 
HETATM   32  H   UNL     1     -45.041  59.908 -58.285  1.00  0.00     0.161 HD
HETATM   33  C   UNL     1     -44.002  58.848 -60.447  1.00  0.00     0.032 C 
HETATM   34  C   UNL     1     -42.431  57.804 -58.781  1.00  0.00     0.061 C 
BRANCH  28  35
HETATM   35  C   UNL     1     -42.880  56.169 -56.893  1.00  0.00     0.409 C 
HETATM   36  F   UNL     1     -42.026  55.273 -56.351  1.00  0.00    -0.169 F 
HETATM   37  F   UNL     1     -43.889  56.354 -56.013  1.00  0.00    -0.169 F 
HETATM   38  F   UNL     1     -43.425  55.568 -57.983  1.00  0.00    -0.169 F 
ENDBRANCH  28  35
ENDBRANCH   1  24
TORSDOF 8
ENDMDL
MODEL 10
REMARK VINA RESULT:      -7.7      2.970      5.120
REMARK  8 active torsions:
REMARK  status: ('A' for Active; 'I' for Inactive)
REMARK    1  A    between atoms: C_7  and  C_8 
REMARK       I    between atoms: C_8  and  N_9 
REMARK    2  A    between atoms: N_9  and  N_10 
REMARK    3  A    between atoms: N_10  and  C_11 
REMARK    4  A    between atoms: C_11  and  N_12 
REMARK    5  A    between atoms: N_12  and  C_13 
REMARK    6  A    between atoms: N_15  and  C_16 
REMARK    7  A    between atoms: C_16  and  C_17 
REMARK    8  A    between atoms: C_29  and  C_30 
ROOT
HETATM    1  C   UNL     1     -41.709  56.171 -55.380  1.00  0.00     0.290 C 
HETATM    2  N   UNL     1     -41.221  54.882 -55.298  1.00  0.00    -0.262 N 
HETATM    3  O   UNL     1     -41.505  57.054 -54.551  1.00  0.00    -0.264 OA
HETATM    4  H   UNL     1     -41.344  54.277 -56.110  1.00  0.00     0.190 HD
ENDROOT
BRANCH   2   5
HETATM    5  N   UNL     1     -40.251  54.540 -54.359  1.00  0.00    -0.273 N 
HETATM    6  H   UNL     1     -39.531  55.236 -54.140  1.00  0.00     0.189 HD
BRANCH   5   7
HETATM    7  C   UNL     1     -40.413  53.479 -53.506  1.00  0.00     0.192 C 
HETATM    8  S   UNL     1     -40.300  51.866 -53.957  1.00  0.00    -0.039 SA
BRANCH   7   9
HETATM    9  N   UNL     1     -40.702  53.761 -52.200  1.00  0.00    -0.315 N 
HETATM   10  H   UNL     1     -40.417  53.062 -51.528  1.00  0.00     0.170 HD
BRANCH   9  11
HETATM   11  C   UNL     1     -41.425  54.831 -51.714  1.00  0.00     0.151 A 
HETATM   12  N   UNL     1     -42.760  54.891 -51.697  1.00  0.00    -0.154 NA
HETATM   13  N   UNL     1     -43.034  56.073 -51.105  1.00  0.00    -0.275 N 
HETATM   14  C   UNL     1     -41.913  56.774 -50.767  1.00  0.00     0.116 A 
HETATM   15  C   UNL     1     -40.850  55.994 -51.157  1.00  0.00     0.071 A 
BRANCH  13  16
HETATM   16  C   UNL     1     -44.416  56.508 -50.949  1.00  0.00     0.192 C 
BRANCH  16  17
HETATM   17  C   UNL     1     -44.745  57.648 -51.871  1.00  0.00     0.000 A 
HETATM   18  C   UNL     1     -45.279  58.834 -51.362  1.00  0.00     0.124 A 
HETATM   19  F   UNL     1     -45.483  58.958 -50.043  1.00  0.00    -0.205 F 
HETATM   20  C   UNL     1     -45.601  59.900 -52.196  1.00  0.00     0.043 A 
HETATM   21  C   UNL     1     -45.392  59.788 -53.570  1.00  0.00     0.003 A 
HETATM   22  C   UNL     1     -44.869  58.607 -54.099  1.00  0.00     0.001 A 
HETATM   23  C   UNL     1     -44.551  57.539 -53.256  1.00  0.00     0.012 A 
ENDBRANCH  16  17
ENDBRANCH  13  16
ENDBRANCH   9  11
ENDBRANCH   7   9
ENDBRANCH   5   7
ENDBRANCH   2   5
BRANCH   1  24
HETATM   24  C   UNL     1     -42.511  56.377 -56.597  1.00  0.00     0.150 A 
HETATM   25  N   UNL     1     -42.715  57.614 -57.107  1.00  0.00    -0.165 NA
HETATM   26  N   UNL     1     -43.465  57.383 -58.196  1.00  0.00    -0.240 N 
HETATM   27  C   UNL     1     -43.841  56.080 -58.352  1.00  0.00     0.123 A 
HETATM   28  C   UNL     1     -43.893  58.457 -59.072  1.00  0.00     0.221 C 
HETATM   29  N   UNL     1     -44.709  55.708 -59.317  1.00  0.00    -0.371 N 
HETATM   30  C   UNL     1     -43.188  55.387 -57.364  1.00  0.00     0.089 A 
HETATM   31  C   UNL     1     -45.217  56.662 -60.301  1.00  0.00     0.081 C 
HETATM   32  H   UNL     1     -44.856  54.721 -59.525  1.00  0.00     0.161 HD
HETATM   33  C   UNL     1     -46.624  56.243 -60.723  1.00  0.00     0.032 C 
HETATM   34  C   UNL     1     -45.241  58.083 -59.707  1.00  0.00     0.061 C 
BRANCH  28  35
HETATM   35  C   UNL     1     -42.820  58.735 -60.101  1.00  0.00     0.409 C 
HETATM   36  F   UNL     1     -41.892  59.612 -59.661  1.00  0.00    -0.169 F 
HETATM   37  F   UNL     1     -42.169  57.626 -60.515  1.00  0.00    -0.169 F 
HETATM   38  F   UNL     1     -43.378  59.290 -61.208  1.00  0.00    -0.169 F 
ENDBRANCH  28  35
ENDBRANCH   1  24
TORSDOF 8
ENDMDL
