MODEL 1
REMARK VINA RESULT:      -7.3      0.000      0.000
REMARK  6 active torsions:
REMARK  status: ('A' for Active; 'I' for Inactive)
REMARK    1  A    between atoms: C_2  and  N_3 
REMARK    2  A    between atoms: C_2  and  C_16 
REMARK    3  A    between atoms: N_3  and  C_6 
REMARK    4  A    between atoms: C_16  and  C_17 
REMARK       I    between atoms: C_17  and  N_18 
REMARK    5  A    between atoms: N_18  and  C_19 
REMARK    6  A    between atoms: C_22  and  O_23 
ROOT
HETATM    1  C   UNL     1     -44.340  57.469 -55.544  1.00  0.00     0.040 C 
HETATM    2  C   UNL     1     -42.845  57.181 -55.551  1.00  0.00     0.191 C 
ENDROOT
BRANCH   2   3
HETATM    3  N   UNL     1     -42.283  57.294 -54.154  1.00  0.00    -0.063 N 
HETATM    4  H   UNL     1     -41.671  56.456 -54.024  1.00  0.00     0.278 HD
HETATM    5  H   UNL     1     -41.619  58.077 -54.156  1.00  0.00     0.278 HD
BRANCH   3   6
HETATM    6  C   UNL     1     -43.178  57.405 -52.947  1.00  0.00     0.221 C 
HETATM    7  C   UNL     1     -42.722  56.580 -51.773  1.00  0.00    -0.011 A 
HETATM    8  C   UNL     1     -41.577  56.962 -51.054  1.00  0.00     0.009 A 
HETATM    9  C   UNL     1     -43.433  55.437 -51.373  1.00  0.00     0.011 A 
HETATM   10  C   UNL     1     -41.118  56.167 -50.001  1.00  0.00     0.019 A 
HETATM   11  S   UNL     1     -40.654  58.420 -51.494  1.00  0.00    -0.129 SA
HETATM   12  C   UNL     1     -41.816  55.019 -49.629  1.00  0.00     0.001 A 
HETATM   13  C   UNL     1     -42.978  54.659 -50.307  1.00  0.00     0.001 A 
HETATM   14  C   UNL     1     -41.971  59.530 -52.087  1.00  0.00     0.082 C 
HETATM   15  C   UNL     1     -43.280  58.872 -52.516  1.00  0.00     0.048 C 
ENDBRANCH   3   6
ENDBRANCH   2   3
BRANCH   2  16
HETATM   16  C   UNL     1     -42.511  55.853 -56.241  1.00  0.00     0.135 C 
BRANCH  16  17
HETATM   17  C   UNL     1     -42.355  54.738 -55.231  1.00  0.00     0.224 C 
HETATM   18  N   UNL     1     -41.050  54.327 -55.084  1.00  0.00    -0.327 N 
HETATM   19  H   UNL     1     -40.358  54.709 -55.718  1.00  0.00     0.169 HD
HETATM   20  O   UNL     1     -43.355  54.280 -54.683  1.00  0.00    -0.273 OA
BRANCH  18  21
HETATM   21  C   UNL     1     -40.561  53.354 -54.187  1.00  0.00     0.034 A 
HETATM   22  C   UNL     1     -40.427  53.729 -52.844  1.00  0.00     0.032 A 
HETATM   23  C   UNL     1     -39.974  52.816 -51.883  1.00  0.00     0.039 A 
HETATM   24  C   UNL     1     -39.661  51.511 -52.253  1.00  0.00     0.068 A 
HETATM   25  C   UNL     1     -39.794  51.136 -53.590  1.00  0.00     0.039 A 
HETATM   26  C   UNL     1     -40.238  52.049 -54.554  1.00  0.00     0.032 A 
BRANCH  24  27
HETATM   27  O   UNL     1     -39.225  50.519 -51.420  1.00  0.00    -0.356 OA
HETATM   28  C   UNL     1     -40.102  50.117 -50.376  1.00  0.00     0.210 C 
ENDBRANCH  24  27
ENDBRANCH  18  21
ENDBRANCH  16  17
ENDBRANCH   2  16
TORSDOF 6
ENDMDL
MODEL 2
REMARK VINA RESULT:      -7.1      2.676      6.214
REMARK  6 active torsions:
REMARK  status: ('A' for Active; 'I' for Inactive)
REMARK    1  A    between atoms: C_2  and  N_3 
REMARK    2  A    between atoms: C_2  and  C_16 
REMARK    3  A    between atoms: N_3  and  C_6 
REMARK    4  A    between atoms: C_16  and  C_17 
REMARK       I    between atoms: C_17  and  N_18 
REMARK    5  A    between atoms: N_18  and  C_19 
REMARK    6  A    between atoms: C_22  and  O_23 
ROOT
HETATM    1  C   UNL     1     -40.429  58.499 -53.032  1.00  0.00     0.040 C 
HETATM    2  C   UNL     1     -41.405  57.382 -53.379  1.00  0.00     0.191 C 
ENDROOT
BRANCH   2   3
HETATM    3  N   UNL     1     -41.200  56.202 -52.459  1.00  0.00    -0.063 N 
HETATM    4  H   UNL     1     -40.193  55.939 -52.552  1.00  0.00     0.278 HD
HETATM    5  H   UNL     1     -41.267  56.552 -51.496  1.00  0.00     0.278 HD
BRANCH   3   6
HETATM    6  C   UNL     1     -42.021  54.946 -52.588  1.00  0.00     0.221 C 
HETATM    7  C   UNL     1     -41.200  53.701 -52.805  1.00  0.00    -0.011 A 
HETATM    8  C   UNL     1     -40.429  53.182 -51.752  1.00  0.00     0.009 A 
HETATM    9  C   UNL     1     -41.202  53.041 -54.044  1.00  0.00     0.011 A 
HETATM   10  C   UNL     1     -39.622  52.063 -51.966  1.00  0.00     0.019 A 
HETATM   11  S   UNL     1     -40.413  53.957 -50.149  1.00  0.00    -0.129 SA
HETATM   12  C   UNL     1     -39.610  51.430 -53.209  1.00  0.00     0.001 A 
HETATM   13  C   UNL     1     -40.406  51.912 -54.244  1.00  0.00     0.001 A 
HETATM   14  C   UNL     1     -42.117  54.590 -50.023  1.00  0.00     0.082 C 
HETATM   15  C   UNL     1     -42.882  54.762 -51.334  1.00  0.00     0.048 C 
ENDBRANCH   3   6
ENDBRANCH   2   3
BRANCH   2  16
HETATM   16  C   UNL     1     -42.856  57.873 -53.435  1.00  0.00     0.135 C 
BRANCH  16  17
HETATM   17  C   UNL     1     -43.528  57.439 -54.719  1.00  0.00     0.224 C 
HETATM   18  N   UNL     1     -42.704  57.542 -55.817  1.00  0.00    -0.327 N 
HETATM   19  H   UNL     1     -41.801  57.984 -55.692  1.00  0.00     0.169 HD
HETATM   20  O   UNL     1     -44.707  57.092 -54.692  1.00  0.00    -0.273 OA
BRANCH  18  21
HETATM   21  C   UNL     1     -43.005  57.166 -57.143  1.00  0.00     0.034 A 
HETATM   22  C   UNL     1     -43.042  55.795 -57.429  1.00  0.00     0.032 A 
HETATM   23  C   UNL     1     -43.358  55.335 -58.714  1.00  0.00     0.039 A 
HETATM   24  C   UNL     1     -43.653  56.244 -59.727  1.00  0.00     0.068 A 
HETATM   25  C   UNL     1     -43.615  57.610 -59.444  1.00  0.00     0.039 A 
HETATM   26  C   UNL     1     -43.291  58.071 -58.162  1.00  0.00     0.032 A 
BRANCH  24  27
HETATM   27  O   UNL     1     -43.990  55.935 -61.014  1.00  0.00    -0.356 OA
HETATM   28  C   UNL     1     -45.137  55.117 -61.206  1.00  0.00     0.210 C 
ENDBRANCH  24  27
ENDBRANCH  18  21
ENDBRANCH  16  17
ENDBRANCH   2  16
TORSDOF 6
ENDMDL
MODEL 3
REMARK VINA RESULT:      -6.7      3.422      5.972
REMARK  6 active torsions:
REMARK  status: ('A' for Active; 'I' for Inactive)
REMARK    1  A    between atoms: C_2  and  N_3 
REMARK    2  A    between atoms: C_2  and  C_16 
REMARK    3  A    between atoms: N_3  and  C_6 
REMARK    4  A    between atoms: C_16  and  C_17 
REMARK       I    between atoms: C_17  and  N_18 
REMARK    5  A    between atoms: N_18  and  C_19 
REMARK    6  A    between atoms: C_22  and  O_23 
ROOT
HETATM    1  C   UNL     1     -44.398  57.654 -56.380  1.00  0.00     0.040 C 
HETATM    2  C   UNL     1     -43.035  57.009 -56.595  1.00  0.00     0.191 C 
ENDROOT
BRANCH   2   3
HETATM    3  N   UNL     1     -42.337  57.643 -57.775  1.00  0.00    -0.063 N 
HETATM    4  H   UNL     1     -42.780  58.581 -57.899  1.00  0.00     0.278 HD
HETATM    5  H   UNL     1     -41.380  57.868 -57.478  1.00  0.00     0.278 HD
BRANCH   3   6
HETATM    6  C   UNL     1     -42.292  56.970 -59.123  1.00  0.00     0.221 C 
HETATM    7  C   UNL     1     -43.636  56.500 -59.614  1.00  0.00    -0.011 A 
HETATM    8  C   UNL     1     -44.595  57.439 -60.028  1.00  0.00     0.009 A 
HETATM    9  C   UNL     1     -43.944  55.132 -59.677  1.00  0.00     0.011 A 
HETATM   10  C   UNL     1     -45.863  57.010 -60.428  1.00  0.00     0.019 A 
HETATM   11  S   UNL     1     -44.250  59.186 -60.001  1.00  0.00    -0.129 SA
HETATM   12  C   UNL     1     -46.168  55.650 -60.462  1.00  0.00     0.001 A 
HETATM   13  C   UNL     1     -45.207  54.711 -60.097  1.00  0.00     0.001 A 
HETATM   14  C   UNL     1     -42.472  59.221 -60.394  1.00  0.00     0.082 C 
HETATM   15  C   UNL     1     -41.691  57.930 -60.156  1.00  0.00     0.048 C 
ENDBRANCH   3   6
ENDBRANCH   2   3
BRANCH   2  16
HETATM   16  C   UNL     1     -42.189  56.994 -55.317  1.00  0.00     0.135 C 
BRANCH  16  17
HETATM   17  C   UNL     1     -42.154  55.612 -54.703  1.00  0.00     0.224 C 
HETATM   18  N   UNL     1     -40.889  55.223 -54.327  1.00  0.00    -0.327 N 
HETATM   19  H   UNL     1     -40.113  55.821 -54.585  1.00  0.00     0.169 HD
HETATM   20  O   UNL     1     -43.194  54.960 -54.635  1.00  0.00    -0.273 OA
BRANCH  18  21
HETATM   21  C   UNL     1     -40.526  54.024 -53.677  1.00  0.00     0.034 A 
HETATM   22  C   UNL     1     -40.197  52.930 -54.487  1.00  0.00     0.032 A 
HETATM   23  C   UNL     1     -39.801  51.710 -53.923  1.00  0.00     0.039 A 
HETATM   24  C   UNL     1     -39.718  51.575 -52.540  1.00  0.00     0.068 A 
HETATM   25  C   UNL     1     -40.046  52.664 -51.732  1.00  0.00     0.039 A 
HETATM   26  C   UNL     1     -40.450  53.882 -52.293  1.00  0.00     0.032 A 
BRANCH  24  27
HETATM   27  O   UNL     1     -39.333  50.454 -51.861  1.00  0.00    -0.356 OA
HETATM   28  C   UNL     1     -40.007  50.172 -50.641  1.00  0.00     0.210 C 
ENDBRANCH  24  27
ENDBRANCH  18  21
ENDBRANCH  16  17
ENDBRANCH   2  16
TORSDOF 6
ENDMDL
MODEL 4
REMARK VINA RESULT:      -6.6      3.000      5.503
REMARK  6 active torsions:
REMARK  status: ('A' for Active; 'I' for Inactive)
REMARK    1  A    between atoms: C_2  and  N_3 
REMARK    2  A    between atoms: C_2  and  C_16 
REMARK    3  A    between atoms: N_3  and  C_6 
REMARK    4  A    between atoms: C_16  and  C_17 
REMARK       I    between atoms: C_17  and  N_18 
REMARK    5  A    between atoms: N_18  and  C_19 
REMARK    6  A    between atoms: C_22  and  O_23 
ROOT
HETATM    1  C   UNL     1     -44.396  58.563 -53.751  1.00  0.00     0.040 C 
HETATM    2  C   UNL     1     -44.182  57.283 -54.548  1.00  0.00     0.191 C 
ENDROOT
BRANCH   2   3
HETATM    3  N   UNL     1     -44.830  57.398 -55.908  1.00  0.00    -0.063 N 
HETATM    4  H   UNL     1     -45.309  56.484 -56.074  1.00  0.00     0.278 HD
HETATM    5  H   UNL     1     -45.607  58.063 -55.819  1.00  0.00     0.278 HD
BRANCH   3   6
HETATM    6  C   UNL     1     -44.030  57.731 -57.140  1.00  0.00     0.221 C 
HETATM    7  C   UNL     1     -44.411  56.921 -58.351  1.00  0.00    -0.011 A 
HETATM    8  C   UNL     1     -45.639  57.158 -58.990  1.00  0.00     0.009 A 
HETATM    9  C   UNL     1     -43.550  55.937 -58.863  1.00  0.00     0.011 A 
HETATM   10  C   UNL     1     -46.022  56.370 -60.078  1.00  0.00     0.019 A 
HETATM   11  S   UNL     1     -46.758  58.415 -58.407  1.00  0.00    -0.129 SA
HETATM   12  C   UNL     1     -45.171  55.377 -60.562  1.00  0.00     0.001 A 
HETATM   13  C   UNL     1     -43.933  55.166 -59.962  1.00  0.00     0.001 A 
HETATM   14  C   UNL     1     -45.604  59.684 -57.791  1.00  0.00     0.082 C 
HETATM   15  C   UNL     1     -44.185  59.221 -57.467  1.00  0.00     0.048 C 
ENDBRANCH   3   6
ENDBRANCH   2   3
BRANCH   2  16
HETATM   16  C   UNL     1     -42.707  56.871 -54.604  1.00  0.00     0.135 C 
BRANCH  16  17
HETATM   17  C   UNL     1     -42.537  55.408 -54.260  1.00  0.00     0.224 C 
HETATM   18  N   UNL     1     -41.257  55.095 -53.863  1.00  0.00    -0.327 N 
HETATM   19  H   UNL     1     -40.547  55.814 -53.941  1.00  0.00     0.169 HD
HETATM   20  O   UNL     1     -43.490  54.644 -54.399  1.00  0.00    -0.273 OA
BRANCH  18  21
HETATM   21  C   UNL     1     -40.787  53.840 -53.423  1.00  0.00     0.034 A 
HETATM   22  C   UNL     1     -40.527  52.872 -54.402  1.00  0.00     0.032 A 
HETATM   23  C   UNL     1     -40.033  51.609 -54.053  1.00  0.00     0.039 A 
HETATM   24  C   UNL     1     -39.781  51.303 -52.718  1.00  0.00     0.068 A 
HETATM   25  C   UNL     1     -40.040  52.265 -51.742  1.00  0.00     0.039 A 
HETATM   26  C   UNL     1     -40.541  53.526 -52.088  1.00  0.00     0.032 A 
BRANCH  24  27
HETATM   27  O   UNL     1     -39.288  50.121 -52.241  1.00  0.00    -0.356 OA
HETATM   28  C   UNL     1     -39.582  49.795 -50.889  1.00  0.00     0.210 C 
ENDBRANCH  24  27
ENDBRANCH  18  21
ENDBRANCH  16  17
ENDBRANCH   2  16
TORSDOF 6
ENDMDL
MODEL 5
REMARK VINA RESULT:      -6.6      3.284      5.739
REMARK  6 active torsions:
REMARK  status: ('A' for Active; 'I' for Inactive)
REMARK    1  A    between atoms: C_2  and  N_3 
REMARK    2  A    between atoms: C_2  and  C_16 
REMARK    3  A    between atoms: N_3  and  C_6 
REMARK    4  A    between atoms: C_16  and  C_17 
REMARK       I    between atoms: C_17  and  N_18 
REMARK    5  A    between atoms: N_18  and  C_19 
REMARK    6  A    between atoms: C_22  and  O_23 
ROOT
HETATM    1  C   UNL     1     -44.742  59.681 -54.748  1.00  0.00     0.040 C 
HETATM    2  C   UNL     1     -44.451  58.211 -55.019  1.00  0.00     0.191 C 
ENDROOT
BRANCH   2   3
HETATM    3  N   UNL     1     -44.991  57.811 -56.372  1.00  0.00    -0.063 N 
HETATM    4  H   UNL     1     -45.299  56.817 -56.273  1.00  0.00     0.278 HD
HETATM    5  H   UNL     1     -45.870  58.322 -56.511  1.00  0.00     0.278 HD
BRANCH   3   6
HETATM    6  C   UNL     1     -44.153  57.913 -57.620  1.00  0.00     0.221 C 
HETATM    7  C   UNL     1     -44.496  56.889 -58.670  1.00  0.00    -0.011 A 
HETATM    8  C   UNL     1     -45.704  56.994 -59.378  1.00  0.00     0.009 A 
HETATM    9  C   UNL     1     -43.619  55.833 -58.962  1.00  0.00     0.011 A 
HETATM   10  C   UNL     1     -46.053  56.014 -60.311  1.00  0.00     0.019 A 
HETATM   11  S   UNL     1     -46.841  58.331 -59.074  1.00  0.00    -0.129 SA
HETATM   12  C   UNL     1     -45.187  54.954 -60.575  1.00  0.00     0.001 A 
HETATM   13  C   UNL     1     -43.967  54.868 -59.909  1.00  0.00     0.001 A 
HETATM   14  C   UNL     1     -45.708  59.700 -58.671  1.00  0.00     0.082 C 
HETATM   15  C   UNL     1     -44.300  59.315 -58.224  1.00  0.00     0.048 C 
ENDBRANCH   3   6
ENDBRANCH   2   3
BRANCH   2  16
HETATM   16  C   UNL     1     -42.970  57.864 -54.822  1.00  0.00     0.135 C 
BRANCH  16  17
HETATM   17  C   UNL     1     -42.785  56.382 -54.582  1.00  0.00     0.224 C 
HETATM   18  N   UNL     1     -41.488  56.047 -54.269  1.00  0.00    -0.327 N 
HETATM   19  H   UNL     1     -40.782  56.771 -54.334  1.00  0.00     0.169 HD
HETATM   20  O   UNL     1     -43.745  55.627 -54.724  1.00  0.00    -0.273 OA
BRANCH  18  21
HETATM   21  C   UNL     1     -40.998  54.767 -53.934  1.00  0.00     0.034 A 
HETATM   22  C   UNL     1     -40.916  54.447 -52.573  1.00  0.00     0.032 A 
HETATM   23  C   UNL     1     -40.464  53.188 -52.154  1.00  0.00     0.039 A 
HETATM   24  C   UNL     1     -40.102  52.229 -53.096  1.00  0.00     0.068 A 
HETATM   25  C   UNL     1     -40.183  52.546 -54.452  1.00  0.00     0.039 A 
HETATM   26  C   UNL     1     -40.626  53.807 -54.872  1.00  0.00     0.032 A 
BRANCH  24  27
HETATM   27  O   UNL     1     -39.662  50.964 -52.829  1.00  0.00    -0.356 OA
HETATM   28  C   UNL     1     -39.756  50.010 -53.879  1.00  0.00     0.210 C 
ENDBRANCH  24  27
ENDBRANCH  18  21
ENDBRANCH  16  17
ENDBRANCH   2  16
TORSDOF 6
ENDMDL
MODEL 6
REMARK VINA RESULT:      -6.5      3.403      7.331
REMARK  6 active torsions:
REMARK  status: ('A' for Active; 'I' for Inactive)
REMARK    1  A    between atoms: C_2  and  N_3 
REMARK    2  A    between atoms: C_2  and  C_16 
REMARK    3  A    between atoms: N_3  and  C_6 
REMARK    4  A    between atoms: C_16  and  C_17 
REMARK       I    between atoms: C_17  and  N_18 
REMARK    5  A    between atoms: N_18  and  C_19 
REMARK    6  A    between atoms: C_22  and  O_23 
ROOT
HETATM    1  C   UNL     1     -41.962  56.728 -55.228  1.00  0.00     0.040 C 
HETATM    2  C   UNL     1     -41.722  56.886 -53.732  1.00  0.00     0.191 C 
ENDROOT
BRANCH   2   3
HETATM    3  N   UNL     1     -41.128  55.621 -53.160  1.00  0.00    -0.063 N 
HETATM    4  H   UNL     1     -40.258  55.441 -53.711  1.00  0.00     0.278 HD
HETATM    5  H   UNL     1     -40.775  55.847 -52.223  1.00  0.00     0.278 HD
BRANCH   3   6
HETATM    6  C   UNL     1     -41.911  54.336 -53.100  1.00  0.00     0.221 C 
HETATM    7  C   UNL     1     -41.055  53.098 -53.155  1.00  0.00    -0.011 A 
HETATM    8  C   UNL     1     -40.255  52.752 -52.054  1.00  0.00     0.009 A 
HETATM    9  C   UNL     1     -41.053  52.271 -54.290  1.00  0.00     0.011 A 
HETATM   10  C   UNL     1     -39.416  51.638 -52.124  1.00  0.00     0.019 A 
HETATM   11  S   UNL     1     -40.241  53.744 -50.574  1.00  0.00    -0.129 SA
HETATM   12  C   UNL     1     -39.402  50.838 -53.266  1.00  0.00     0.001 A 
HETATM   13  C   UNL     1     -40.226  51.148 -54.345  1.00  0.00     0.001 A 
HETATM   14  C   UNL     1     -41.962  54.339 -50.509  1.00  0.00     0.082 C 
HETATM   15  C   UNL     1     -42.750  54.305 -51.817  1.00  0.00     0.048 C 
ENDBRANCH   3   6
ENDBRANCH   2   3
BRANCH   2  16
HETATM   16  C   UNL     1     -40.916  58.148 -53.401  1.00  0.00     0.135 C 
BRANCH  16  17
HETATM   17  C   UNL     1     -41.821  59.260 -52.916  1.00  0.00     0.224 C 
HETATM   18  N   UNL     1     -42.721  58.842 -51.963  1.00  0.00    -0.327 N 
HETATM   19  H   UNL     1     -42.773  57.850 -51.762  1.00  0.00     0.169 HD
HETATM   20  O   UNL     1     -41.719  60.377 -53.416  1.00  0.00    -0.273 OA
BRANCH  18  21
HETATM   21  C   UNL     1     -43.658  59.638 -51.272  1.00  0.00     0.034 A 
HETATM   22  C   UNL     1     -45.010  59.466 -51.595  1.00  0.00     0.032 A 
HETATM   23  C   UNL     1     -46.007  60.199 -50.938  1.00  0.00     0.039 A 
HETATM   24  C   UNL     1     -45.663  61.105 -49.938  1.00  0.00     0.068 A 
HETATM   25  C   UNL     1     -44.316  61.278 -49.616  1.00  0.00     0.039 A 
HETATM   26  C   UNL     1     -43.318  60.553 -50.277  1.00  0.00     0.032 A 
BRANCH  24  27
HETATM   27  O   UNL     1     -46.529  61.869 -49.210  1.00  0.00    -0.356 OA
HETATM   28  C   UNL     1     -45.962  62.800 -48.297  1.00  0.00     0.210 C 
ENDBRANCH  24  27
ENDBRANCH  18  21
ENDBRANCH  16  17
ENDBRANCH   2  16
TORSDOF 6
ENDMDL
MODEL 7
REMARK VINA RESULT:      -6.2      3.281      5.791
REMARK  6 active torsions:
REMARK  status: ('A' for Active; 'I' for Inactive)
REMARK    1  A    between atoms: C_2  and  N_3 
REMARK    2  A    between atoms: C_2  and  C_16 
REMARK    3  A    between atoms: N_3  and  C_6 
REMARK    4  A    between atoms: C_16  and  C_17 
REMARK       I    between atoms: C_17  and  N_18 
REMARK    5  A    between atoms: N_18  and  C_19 
REMARK    6  A    between atoms: C_22  and  O_23 
ROOT
HETATM    1  C   UNL     1     -45.101  59.034 -54.448  1.00  0.00     0.040 C 
HETATM    2  C   UNL     1     -44.590  57.686 -54.940  1.00  0.00     0.191 C 
ENDROOT
BRANCH   2   3
HETATM    3  N   UNL     1     -44.877  57.522 -56.413  1.00  0.00    -0.063 N 
HETATM    4  H   UNL     1     -44.077  56.971 -56.800  1.00  0.00     0.278 HD
HETATM    5  H   UNL     1     -45.673  56.881 -56.499  1.00  0.00     0.278 HD
BRANCH   3   6
HETATM    6  C   UNL     1     -45.097  58.710 -57.313  1.00  0.00     0.221 C 
HETATM    7  C   UNL     1     -44.067  58.849 -58.403  1.00  0.00    -0.011 A 
HETATM    8  C   UNL     1     -44.059  57.941 -59.475  1.00  0.00     0.009 A 
HETATM    9  C   UNL     1     -43.117  59.882 -58.373  1.00  0.00     0.011 A 
HETATM   10  C   UNL     1     -43.069  58.030 -60.456  1.00  0.00     0.019 A 
HETATM   11  S   UNL     1     -45.258  56.629 -59.584  1.00  0.00    -0.129 SA
HETATM   12  C   UNL     1     -42.114  59.045 -60.403  1.00  0.00     0.001 A 
HETATM   13  C   UNL     1     -42.143  59.976 -59.369  1.00  0.00     0.001 A 
HETATM   14  C   UNL     1     -46.731  57.408 -58.846  1.00  0.00     0.082 C 
HETATM   15  C   UNL     1     -46.488  58.621 -57.950  1.00  0.00     0.048 C 
ENDBRANCH   3   6
ENDBRANCH   2   3
BRANCH   2  16
HETATM   16  C   UNL     1     -43.121  57.450 -54.570  1.00  0.00     0.135 C 
BRANCH  16  17
HETATM   17  C   UNL     1     -42.818  55.972 -54.458  1.00  0.00     0.224 C 
HETATM   18  N   UNL     1     -41.559  55.718 -53.963  1.00  0.00    -0.327 N 
HETATM   19  H   UNL     1     -40.934  56.505 -53.832  1.00  0.00     0.169 HD
HETATM   20  O   UNL     1     -43.656  55.157 -54.839  1.00  0.00    -0.273 OA
BRANCH  18  21
HETATM   21  C   UNL     1     -40.994  54.456 -53.685  1.00  0.00     0.034 A 
HETATM   22  C   UNL     1     -40.790  54.127 -52.338  1.00  0.00     0.032 A 
HETATM   23  C   UNL     1     -40.258  52.883 -51.973  1.00  0.00     0.039 A 
HETATM   24  C   UNL     1     -39.935  51.948 -52.952  1.00  0.00     0.068 A 
HETATM   25  C   UNL     1     -40.137  52.275 -54.294  1.00  0.00     0.039 A 
HETATM   26  C   UNL     1     -40.661  53.520 -54.661  1.00  0.00     0.032 A 
BRANCH  24  27
HETATM   27  O   UNL     1     -39.426  50.699 -52.738  1.00  0.00    -0.356 OA
HETATM   28  C   UNL     1     -39.559  49.754 -53.792  1.00  0.00     0.210 C 
ENDBRANCH  24  27
ENDBRANCH  18  21
ENDBRANCH  16  17
ENDBRANCH   2  16
TORSDOF 6
ENDMDL
MODEL 8
REMARK VINA RESULT:      -6.1     14.841     17.193
REMARK  6 active torsions:
REMARK  status: ('A' for Active; 'I' for Inactive)
REMARK    1  A    between atoms: C_2  and  N_3 
REMARK    2  A    between atoms: C_2  and  C_16 
REMARK    3  A    between atoms: N_3  and  C_6 
REMARK    4  A    between atoms: C_16  and  C_17 
REMARK       I    between atoms: C_17  and  N_18 
REMARK    5  A    between atoms: N_18  and  C_19 
REMARK    6  A    between atoms: C_22  and  O_23 
ROOT
HETATM    1  C   UNL     1     -31.762  40.762 -51.980  1.00  0.00     0.040 C 
HETATM    2  C   UNL     1     -31.969  39.254 -52.047  1.00  0.00     0.191 C 
ENDROOT
BRANCH   2   3
HETATM    3  N   UNL     1     -33.321  38.886 -51.485  1.00  0.00    -0.063 N 
HETATM    4  H   UNL     1     -33.867  38.496 -52.287  1.00  0.00     0.278 HD
HETATM    5  H   UNL     1     -33.184  38.074 -50.872  1.00  0.00     0.278 HD
BRANCH   3   6
HETATM    6  C   UNL     1     -34.189  39.898 -50.784  1.00  0.00     0.221 C 
HETATM    7  C   UNL     1     -35.291  40.457 -51.645  1.00  0.00    -0.011 A 
HETATM    8  C   UNL     1     -36.383  39.647 -51.994  1.00  0.00     0.009 A 
HETATM    9  C   UNL     1     -35.250  41.786 -52.098  1.00  0.00     0.011 A 
HETATM   10  C   UNL     1     -37.377  40.143 -52.841  1.00  0.00     0.019 A 
HETATM   11  S   UNL     1     -36.506  37.965 -51.423  1.00  0.00    -0.129 SA
HETATM   12  C   UNL     1     -37.313  41.456 -53.307  1.00  0.00     0.001 A 
HETATM   13  C   UNL     1     -36.257  42.280 -52.929  1.00  0.00     0.001 A 
HETATM   14  C   UNL     1     -35.728  38.072 -49.779  1.00  0.00     0.082 C 
HETATM   15  C   UNL     1     -34.808  39.265 -49.532  1.00  0.00     0.048 C 
ENDBRANCH   3   6
ENDBRANCH   2   3
BRANCH   2  16
HETATM   16  C   UNL     1     -31.714  38.694 -53.451  1.00  0.00     0.135 C 
BRANCH  16  17
HETATM   17  C   UNL     1     -32.296  39.601 -54.513  1.00  0.00     0.224 C 
HETATM   18  N   UNL     1     -33.658  39.463 -54.649  1.00  0.00    -0.327 N 
HETATM   19  H   UNL     1     -34.113  38.721 -54.130  1.00  0.00     0.169 HD
HETATM   20  O   UNL     1     -31.543  40.317 -55.169  1.00  0.00    -0.273 OA
BRANCH  18  21
HETATM   21  C   UNL     1     -34.506  40.199 -55.504  1.00  0.00     0.034 A 
HETATM   22  C   UNL     1     -35.572  39.511 -56.098  1.00  0.00     0.032 A 
HETATM   23  C   UNL     1     -36.476  40.172 -56.940  1.00  0.00     0.039 A 
HETATM   24  C   UNL     1     -36.331  41.534 -57.186  1.00  0.00     0.068 A 
HETATM   25  C   UNL     1     -35.269  42.220 -56.596  1.00  0.00     0.039 A 
HETATM   26  C   UNL     1     -34.360  41.560 -55.761  1.00  0.00     0.032 A 
BRANCH  24  27
HETATM   27  O   UNL     1     -37.144  42.303 -57.970  1.00  0.00    -0.356 OA
HETATM   28  C   UNL     1     -37.240  41.952 -59.345  1.00  0.00     0.210 C 
ENDBRANCH  24  27
ENDBRANCH  18  21
ENDBRANCH  16  17
ENDBRANCH   2  16
TORSDOF 6
ENDMDL
MODEL 9
REMARK VINA RESULT:      -6.1     14.942     17.267
REMARK  6 active torsions:
REMARK  status: ('A' for Active; 'I' for Inactive)
REMARK    1  A    between atoms: C_2  and  N_3 
REMARK    2  A    between atoms: C_2  and  C_16 
REMARK    3  A    between atoms: N_3  and  C_6 
REMARK    4  A    between atoms: C_16  and  C_17 
REMARK       I    between atoms: C_17  and  N_18 
REMARK    5  A    between atoms: N_18  and  C_19 
REMARK    6  A    between atoms: C_22  and  O_23 
ROOT
HETATM    1  C   UNL     1     -32.458  40.035 -54.392  1.00  0.00     0.040 C 
HETATM    2  C   UNL     1     -33.552  39.124 -53.851  1.00  0.00     0.191 C 
ENDROOT
BRANCH   2   3
HETATM    3  N   UNL     1     -34.813  39.913 -53.594  1.00  0.00    -0.063 N 
HETATM    4  H   UNL     1     -35.582  39.382 -54.062  1.00  0.00     0.278 HD
HETATM    5  H   UNL     1     -35.031  39.822 -52.596  1.00  0.00     0.278 HD
BRANCH   3   6
HETATM    6  C   UNL     1     -34.937  41.359 -54.000  1.00  0.00     0.221 C 
HETATM    7  C   UNL     1     -35.740  41.573 -55.256  1.00  0.00    -0.011 A 
HETATM    8  C   UNL     1     -37.131  41.379 -55.237  1.00  0.00     0.009 A 
HETATM    9  C   UNL     1     -35.120  41.978 -56.449  1.00  0.00     0.011 A 
HETATM   10  C   UNL     1     -37.870  41.519 -56.414  1.00  0.00     0.019 A 
HETATM   11  S   UNL     1     -37.977  40.897 -53.746  1.00  0.00    -0.129 SA
HETATM   12  C   UNL     1     -37.240  41.896 -57.600  1.00  0.00     0.001 A 
HETATM   13  C   UNL     1     -35.869  42.135 -57.616  1.00  0.00     0.001 A 
HETATM   14  C   UNL     1     -36.992  41.745 -52.469  1.00  0.00     0.082 C 
HETATM   15  C   UNL     1     -35.575  42.160 -52.858  1.00  0.00     0.048 C 
ENDBRANCH   3   6
ENDBRANCH   2   3
BRANCH   2  16
HETATM   16  C   UNL     1     -33.770  37.888 -54.733  1.00  0.00     0.135 C 
BRANCH  16  17
HETATM   17  C   UNL     1     -35.101  37.958 -55.448  1.00  0.00     0.224 C 
HETATM   18  N   UNL     1     -34.979  38.300 -56.776  1.00  0.00    -0.327 N 
HETATM   19  H   UNL     1     -34.063  38.572 -57.113  1.00  0.00     0.169 HD
HETATM   20  O   UNL     1     -36.135  37.761 -54.814  1.00  0.00    -0.273 OA
BRANCH  18  21
HETATM   21  C   UNL     1     -36.016  38.394 -57.728  1.00  0.00     0.034 A 
HETATM   22  C   UNL     1     -35.664  38.799 -59.022  1.00  0.00     0.032 A 
HETATM   23  C   UNL     1     -36.628  38.893 -60.034  1.00  0.00     0.039 A 
HETATM   24  C   UNL     1     -37.956  38.571 -59.766  1.00  0.00     0.068 A 
HETATM   25  C   UNL     1     -38.307  38.168 -58.477  1.00  0.00     0.039 A 
HETATM   26  C   UNL     1     -37.347  38.081 -57.462  1.00  0.00     0.032 A 
BRANCH  24  27
HETATM   27  O   UNL     1     -38.990  38.604 -60.658  1.00  0.00    -0.356 OA
HETATM   28  C   UNL     1     -40.114  37.779 -60.378  1.00  0.00     0.210 C 
ENDBRANCH  24  27
ENDBRANCH  18  21
ENDBRANCH  16  17
ENDBRANCH   2  16
TORSDOF 6
ENDMDL
MODEL 10
REMARK VINA RESULT:      -5.9      2.957      6.357
REMARK  6 active torsions:
REMARK  status: ('A' for Active; 'I' for Inactive)
REMARK    1  A    between atoms: C_2  and  N_3 
REMARK    2  A    between atoms: C_2  and  C_16 
REMARK    3  A    between atoms: N_3  and  C_6 
REMARK    4  A    between atoms: C_16  and  C_17 
REMARK       I    between atoms: C_17  and  N_18 
REMARK    5  A    between atoms: N_18  and  C_19 
REMARK    6  A    between atoms: C_22  and  O_23 
ROOT
HETATM    1  C   UNL     1     -41.407  53.350 -53.326  1.00  0.00     0.040 C 
HETATM    2  C   UNL     1     -42.555  54.352 -53.295  1.00  0.00     0.191 C 
ENDROOT
BRANCH   2   3
HETATM    3  N   UNL     1     -42.051  55.713 -52.880  1.00  0.00    -0.063 N 
HETATM    4  H   UNL     1     -41.176  55.873 -53.430  1.00  0.00     0.278 HD
HETATM    5  H   UNL     1     -42.703  56.408 -53.261  1.00  0.00     0.278 HD
BRANCH   3   6
HETATM    6  C   UNL     1     -41.758  56.043 -51.440  1.00  0.00     0.221 C 
HETATM    7  C   UNL     1     -41.689  57.520 -51.155  1.00  0.00    -0.011 A 
HETATM    8  C   UNL     1     -42.864  58.290 -51.173  1.00  0.00     0.009 A 
HETATM    9  C   UNL     1     -40.466  58.143 -50.857  1.00  0.00     0.011 A 
HETATM   10  C   UNL     1     -42.796  59.670 -50.967  1.00  0.00     0.019 A 
HETATM   11  S   UNL     1     -44.448  57.551 -51.511  1.00  0.00    -0.129 SA
HETATM   12  C   UNL     1     -41.573  60.283 -50.699  1.00  0.00     0.001 A 
HETATM   13  C   UNL     1     -40.410  59.520 -50.634  1.00  0.00     0.001 A 
HETATM   14  C   UNL     1     -44.256  55.899 -50.765  1.00  0.00     0.082 C 
HETATM   15  C   UNL     1     -42.826  55.411 -50.540  1.00  0.00     0.048 C 
ENDBRANCH   3   6
ENDBRANCH   2   3
BRANCH   2  16
HETATM   16  C   UNL     1     -43.352  54.365 -54.605  1.00  0.00     0.135 C 
BRANCH  16  17
HETATM   17  C   UNL     1     -42.562  55.021 -55.716  1.00  0.00     0.224 C 
HETATM   18  N   UNL     1     -43.342  55.798 -56.542  1.00  0.00    -0.327 N 
HETATM   19  H   UNL     1     -44.346  55.773 -56.407  1.00  0.00     0.169 HD
HETATM   20  O   UNL     1     -41.361  54.785 -55.818  1.00  0.00    -0.273 OA
BRANCH  18  21
HETATM   21  C   UNL     1     -42.907  56.584 -57.629  1.00  0.00     0.034 A 
HETATM   22  C   UNL     1     -42.887  55.978 -58.892  1.00  0.00     0.032 A 
HETATM   23  C   UNL     1     -42.492  56.695 -60.029  1.00  0.00     0.039 A 
HETATM   24  C   UNL     1     -42.125  58.033 -59.918  1.00  0.00     0.068 A 
HETATM   25  C   UNL     1     -42.143  58.638 -58.660  1.00  0.00     0.039 A 
HETATM   26  C   UNL     1     -42.529  57.921 -57.521  1.00  0.00     0.032 A 
BRANCH  24  27
HETATM   27  O   UNL     1     -41.736  58.850 -60.941  1.00  0.00    -0.356 OA
HETATM   28  C   UNL     1     -41.882  60.251 -60.743  1.00  0.00     0.210 C 
ENDBRANCH  24  27
ENDBRANCH  18  21
ENDBRANCH  16  17
ENDBRANCH   2  16
TORSDOF 6
ENDMDL
