MODEL 1
REMARK VINA RESULT:      -7.1      0.000      0.000
REMARK  11 active torsions:
REMARK  status: ('A' for Active; 'I' for Inactive)
REMARK    1  A    between atoms: C_1  and  C_17 
REMARK    2  A    between atoms: C_1  and  S_18 
REMARK    3  A    between atoms: C_2  and  N_23 
REMARK    4  A    between atoms: C_3  and  C_13 
REMARK    5  A    between atoms: C_6  and  S_18 
REMARK    6  A    between atoms: C_6  and  S_19 
REMARK    7  A    between atoms: C_7  and  C_20 
REMARK    8  A    between atoms: C_7  and  C_21 
REMARK    9  A    between atoms: C_9  and  C_24 
REMARK   10  A    between atoms: C_16  and  C_17 
REMARK   11  A    between atoms: S_19  and  C_20 
ROOT
HETATM    1  C           1     -44.004  57.468 -52.629  0.00  0.00     0.092 C 
HETATM    2  C           1     -42.144  57.324 -54.145  0.00  0.00     0.156 C 
HETATM    3  C           1     -42.895  58.248 -51.977  0.00  0.00     0.127 C 
HETATM    4  C           1     -41.887  58.495 -53.131  0.00  0.00     0.136 C 
HETATM    5  C           1     -42.213  59.802 -53.784  0.00  0.00     0.079 C 
HETATM    6  N           1     -42.487  60.859 -54.177  0.00  0.00    -0.196 NA
HETATM    7  C           1     -42.218  57.685 -50.648  0.00  0.00     0.248 C 
HETATM    8  C           1     -40.180  58.868 -51.243  0.00  0.00     0.105 C 
HETATM    9  N           1     -43.593  56.981 -53.768  0.00  0.00    -0.350 N 
HETATM   10  N           1     -41.097  58.639 -50.139  0.00  0.00    -0.040 N 
HETATM   11  C           1     -38.769  59.225 -50.836  0.00  0.00     0.075 C 
HETATM   12  C           1     -40.504  58.732 -52.548  0.00  0.00     0.036 C 
HETATM   13  H           1     -44.203  56.415 -54.373  0.00  0.00     0.163 HD
HETATM   14  H           1     -40.581  58.139 -49.379  0.00  0.00     0.284 HD
HETATM   15  H           1     -41.447  59.534 -49.742  0.00  0.00     0.284 HD
ENDROOT
BRANCH   2  16
HETATM   16  S           1     -42.169  57.838 -55.896  0.00  0.00    -0.125 SA
BRANCH  16  17
HETATM   17  C           1     -43.918  57.653 -56.356  0.00  0.00     0.077 C 
BRANCH  17  18
HETATM   18  C           1     -44.003  57.290 -57.848  0.00  0.00     0.010 C 
BRANCH  18  19
HETATM   19  C           1     -43.229  55.998 -58.159  0.00  0.00    -0.004 C 
HETATM   20  C           1     -42.853  55.899 -59.644  0.00  0.00     0.005 C 
ENDBRANCH  18  19
ENDBRANCH  17  18
ENDBRANCH  16  17
ENDBRANCH   2  16
BRANCH   2  21
HETATM   21  S           1     -41.032  55.926 -53.789  0.00  0.00    -0.125 SA
BRANCH  21  22
HETATM   22  C           1     -41.557  54.730 -55.055  0.00  0.00     0.077 C 
BRANCH  22  23
HETATM   23  C           1     -41.641  53.337 -54.409  0.00  0.00     0.010 C 
BRANCH  23  24
HETATM   24  C           1     -40.245  52.742 -54.165  0.00  0.00    -0.004 C 
HETATM   25  C           1     -40.253  51.211 -54.268  0.00  0.00     0.005 C 
ENDBRANCH  23  24
ENDBRANCH  22  23
ENDBRANCH  21  22
ENDBRANCH   2  21
BRANCH   3  26
HETATM   26  C           1     -43.268  59.556 -51.375  0.00  0.00     0.105 C 
HETATM   27  N           1     -44.153  59.974 -50.754  0.00  0.00    -0.151 N 
ENDBRANCH   3  26
BRANCH   1  28
HETATM   28  N           1     -45.163  57.295 -52.146  0.00  0.00    -0.388 N 
HETATM   29  H           1     -46.016  57.348 -52.755  0.00  0.00     0.157 HD
HETATM   30  H           1     -45.291  57.104 -51.122  0.00  0.00     0.157 HD
ENDBRANCH   1  28
BRANCH   7  31
HETATM   31  C           1     -41.784  56.223 -50.665  0.00  0.00    -0.026 A 
HETATM   32  C           1     -40.531  55.812 -50.387  0.00  0.00     0.009 A 
HETATM   33  C           1     -40.194  54.514 -50.399  0.00  0.00     0.001 A 
HETATM   34  C           1     -41.113  53.579 -50.680  0.00  0.00     0.000 A 
HETATM   35  C           1     -42.372  53.960 -50.939  0.00  0.00     0.001 A 
HETATM   36  C           1     -42.693  55.262 -50.920  0.00  0.00     0.009 A 
ENDBRANCH   7  31
TORSDOF 11
ENDMDL
MODEL 2
REMARK VINA RESULT:      -6.4      1.765      5.414
REMARK  11 active torsions:
REMARK  status: ('A' for Active; 'I' for Inactive)
REMARK    1  A    between atoms: C_1  and  C_17 
REMARK    2  A    between atoms: C_1  and  S_18 
REMARK    3  A    between atoms: C_2  and  N_23 
REMARK    4  A    between atoms: C_3  and  C_13 
REMARK    5  A    between atoms: C_6  and  S_18 
REMARK    6  A    between atoms: C_6  and  S_19 
REMARK    7  A    between atoms: C_7  and  C_20 
REMARK    8  A    between atoms: C_7  and  C_21 
REMARK    9  A    between atoms: C_9  and  C_24 
REMARK   10  A    between atoms: C_16  and  C_17 
REMARK   11  A    between atoms: S_19  and  C_20 
ROOT
HETATM    1  C           1     -40.722  57.832 -52.999  0.00  0.00     0.092 C 
HETATM    2  C           1     -42.399  56.115 -53.137  0.00  0.00     0.156 C 
HETATM    3  C           1     -41.826  58.275 -52.078  0.00  0.00     0.127 C 
HETATM    4  C           1     -42.667  56.990 -51.861  0.00  0.00     0.136 C 
HETATM    5  C           1     -42.153  56.277 -50.649  0.00  0.00     0.079 C 
HETATM    6  N           1     -41.743  55.836 -49.657  0.00  0.00    -0.196 NA
HETATM    7  C           1     -42.699  59.553 -52.462  0.00  0.00     0.248 C 
HETATM    8  C           1     -44.542  58.617 -51.184  0.00  0.00     0.105 C 
HETATM    9  N           1     -41.039  56.694 -53.555  0.00  0.00    -0.350 N 
HETATM   10  N           1     -43.782  59.840 -51.381  0.00  0.00    -0.040 N 
HETATM   11  C           1     -45.953  58.816 -50.682  0.00  0.00     0.075 C 
HETATM   12  C           1     -44.081  57.377 -51.464  0.00  0.00     0.036 C 
HETATM   13  H           1     -40.416  56.217 -54.221  0.00  0.00     0.163 HD
HETATM   14  H           1     -44.425  60.569 -51.767  0.00  0.00     0.284 HD
HETATM   15  H           1     -43.404  60.202 -50.483  0.00  0.00     0.284 HD
ENDROOT
BRANCH   2  16
HETATM   16  S           1     -42.125  54.344 -52.789  0.00  0.00    -0.125 SA
BRANCH  16  17
HETATM   17  C           1     -40.502  54.021 -53.541  0.00  0.00     0.077 C 
BRANCH  17  18
HETATM   18  C           1     -40.578  52.709 -54.339  0.00  0.00     0.010 C 
BRANCH  18  19
HETATM   19  C           1     -39.825  51.572 -53.629  0.00  0.00    -0.004 C 
HETATM   20  C           1     -39.913  50.253 -54.408  0.00  0.00     0.005 C 
ENDBRANCH  18  19
ENDBRANCH  17  18
ENDBRANCH  16  17
ENDBRANCH   2  16
BRANCH   2  21
HETATM   21  S           1     -43.664  56.444 -54.405  0.00  0.00    -0.125 SA
BRANCH  21  22
HETATM   22  C           1     -43.147  55.300 -55.721  0.00  0.00     0.077 C 
BRANCH  22  23
HETATM   23  C           1     -42.501  56.115 -56.853  0.00  0.00     0.010 C 
BRANCH  23  24
HETATM   24  C           1     -43.483  56.351 -58.012  0.00  0.00    -0.004 C 
HETATM   25  C           1     -42.868  55.973 -59.366  0.00  0.00     0.005 C 
ENDBRANCH  23  24
ENDBRANCH  22  23
ENDBRANCH  21  22
ENDBRANCH   2  21
BRANCH   3  26
HETATM   26  C           1     -41.410  58.810 -50.754  0.00  0.00     0.105 C 
HETATM   27  N           1     -40.616  59.556 -50.359  0.00  0.00    -0.151 N 
ENDBRANCH   3  26
BRANCH   1  28
HETATM   28  N           1     -39.647  58.466 -53.217  0.00  0.00    -0.388 N 
HETATM   29  H           1     -38.896  58.526 -52.486  0.00  0.00     0.157 HD
HETATM   30  H           1     -39.491  58.952 -54.134  0.00  0.00     0.157 HD
ENDBRANCH   1  28
BRANCH   7  31
HETATM   31  C           1     -43.256  59.603 -53.881  0.00  0.00    -0.026 A 
HETATM   32  C           1     -44.572  59.614 -54.167  0.00  0.00     0.009 A 
HETATM   33  C           1     -45.021  59.673 -55.430  0.00  0.00     0.001 A 
HETATM   34  C           1     -44.156  59.735 -56.453  0.00  0.00     0.000 A 
HETATM   35  C           1     -42.841  59.746 -56.194  0.00  0.00     0.001 A 
HETATM   36  C           1     -42.409  59.689 -54.925  0.00  0.00     0.009 A 
ENDBRANCH   7  31
TORSDOF 11
ENDMDL
MODEL 3
REMARK VINA RESULT:      -5.9      2.607      6.175
REMARK  11 active torsions:
REMARK  status: ('A' for Active; 'I' for Inactive)
REMARK    1  A    between atoms: C_1  and  C_17 
REMARK    2  A    between atoms: C_1  and  S_18 
REMARK    3  A    between atoms: C_2  and  N_23 
REMARK    4  A    between atoms: C_3  and  C_13 
REMARK    5  A    between atoms: C_6  and  S_18 
REMARK    6  A    between atoms: C_6  and  S_19 
REMARK    7  A    between atoms: C_7  and  C_20 
REMARK    8  A    between atoms: C_7  and  C_21 
REMARK    9  A    between atoms: C_9  and  C_24 
REMARK   10  A    between atoms: C_16  and  C_17 
REMARK   11  A    between atoms: S_19  and  C_20 
ROOT
HETATM    1  C           1     -45.347  57.737 -56.297  0.00  0.00     0.092 C 
HETATM    2  C           1     -43.066  57.102 -55.884  0.00  0.00     0.156 C 
HETATM    3  C           1     -44.514  58.676 -57.127  0.00  0.00     0.127 C 
HETATM    4  C           1     -43.123  57.991 -57.178  0.00  0.00     0.136 C 
HETATM    5  C           1     -43.062  57.113 -58.389  0.00  0.00     0.079 C 
HETATM    6  N           1     -43.074  56.524 -59.389  0.00  0.00    -0.196 NA
HETATM    7  C           1     -44.451  60.220 -56.736  0.00  0.00     0.248 C 
HETATM    8  C           1     -42.251  60.340 -57.760  0.00  0.00     0.105 C 
HETATM    9  N           1     -44.571  56.917 -55.643  0.00  0.00    -0.350 N 
HETATM   10  N           1     -43.538  61.013 -57.717  0.00  0.00    -0.040 N 
HETATM   11  C           1     -41.082  61.224 -58.127  0.00  0.00     0.075 C 
HETATM   12  C           1     -42.057  59.038 -57.452  0.00  0.00     0.036 C 
HETATM   13  H           1     -44.946  56.191 -55.016  0.00  0.00     0.163 HD
HETATM   14  H           1     -43.398  61.967 -57.313  0.00  0.00     0.284 HD
HETATM   15  H           1     -43.938  61.133 -58.669  0.00  0.00     0.284 HD
ENDROOT
BRANCH   2  16
HETATM   16  S           1     -42.372  55.435 -56.148  0.00  0.00    -0.125 SA
BRANCH  16  17
HETATM   17  C           1     -41.028  55.350 -54.927  0.00  0.00     0.077 C 
BRANCH  17  18
HETATM   18  C           1     -40.260  54.033 -55.127  0.00  0.00     0.010 C 
BRANCH  18  19
HETATM   19  C           1     -40.371  53.123 -53.892  0.00  0.00    -0.004 C 
HETATM   20  C           1     -40.423  51.638 -54.278  0.00  0.00     0.005 C 
ENDBRANCH  18  19
ENDBRANCH  17  18
ENDBRANCH  16  17
ENDBRANCH   2  16
BRANCH   2  21
HETATM   21  S           1     -42.298  58.028 -54.517  0.00  0.00    -0.125 SA
BRANCH  21  22
HETATM   22  C           1     -43.211  57.367 -53.090  0.00  0.00     0.077 C 
BRANCH  22  23
HETATM   23  C           1     -42.433  57.707 -51.809  0.00  0.00     0.010 C 
BRANCH  23  24
HETATM   24  C           1     -41.115  58.432 -52.123  0.00  0.00    -0.004 C 
HETATM   25  C           1     -40.763  59.467 -51.045  0.00  0.00     0.005 C 
ENDBRANCH  23  24
ENDBRANCH  22  23
ENDBRANCH  21  22
ENDBRANCH   2  21
BRANCH   3  26
HETATM   26  C           1     -44.981  58.925 -58.517  0.00  0.00     0.105 C 
HETATM   27  N           1     -45.998  59.092 -59.046  0.00  0.00    -0.151 N 
ENDBRANCH   3  26
BRANCH   1  28
HETATM   28  N           1     -46.613  57.742 -56.230  0.00  0.00    -0.388 N 
HETATM   29  H           1     -47.201  57.765 -57.099  0.00  0.00     0.157 HD
HETATM   30  H           1     -47.097  57.733 -55.298  0.00  0.00     0.157 HD
ENDBRANCH   1  28
BRANCH   7  31
HETATM   31  C           1     -44.168  60.547 -55.273  0.00  0.00    -0.026 A 
HETATM   32  C           1     -43.047  61.163 -54.849  0.00  0.00     0.009 A 
HETATM   33  C           1     -42.843  61.445 -53.553  0.00  0.00     0.001 A 
HETATM   34  C           1     -43.769  61.127 -52.638  0.00  0.00     0.000 A 
HETATM   35  C           1     -44.903  60.533 -53.037  0.00  0.00     0.001 A 
HETATM   36  C           1     -45.093  60.260 -54.337  0.00  0.00     0.009 A 
ENDBRANCH   7  31
TORSDOF 11
ENDMDL
MODEL 4
REMARK VINA RESULT:      -5.8      1.368      2.227
REMARK  11 active torsions:
REMARK  status: ('A' for Active; 'I' for Inactive)
REMARK    1  A    between atoms: C_1  and  C_17 
REMARK    2  A    between atoms: C_1  and  S_18 
REMARK    3  A    between atoms: C_2  and  N_23 
REMARK    4  A    between atoms: C_3  and  C_13 
REMARK    5  A    between atoms: C_6  and  S_18 
REMARK    6  A    between atoms: C_6  and  S_19 
REMARK    7  A    between atoms: C_7  and  C_20 
REMARK    8  A    between atoms: C_7  and  C_21 
REMARK    9  A    between atoms: C_9  and  C_24 
REMARK   10  A    between atoms: C_16  and  C_17 
REMARK   11  A    between atoms: S_19  and  C_20 
ROOT
HETATM    1  C           1     -44.512  58.157 -52.572  0.00  0.00     0.092 C 
HETATM    2  C           1     -42.792  58.175 -54.252  0.00  0.00     0.156 C 
HETATM    3  C           1     -43.290  58.709 -51.889  0.00  0.00     0.127 C 
HETATM    4  C           1     -42.354  59.102 -53.062  0.00  0.00     0.136 C 
HETATM    5  C           1     -42.608  60.532 -53.423  0.00  0.00     0.079 C 
HETATM    6  N           1     -42.813  61.663 -53.581  0.00  0.00    -0.196 NA
HETATM    7  C           1     -42.570  57.847 -50.758  0.00  0.00     0.248 C 
HETATM    8  C           1     -40.483  58.967 -51.301  0.00  0.00     0.105 C 
HETATM    9  N           1     -44.234  57.875 -53.816  0.00  0.00    -0.350 N 
HETATM   10  N           1     -41.332  58.596 -50.182  0.00  0.00    -0.040 N 
HETATM   11  C           1     -39.019  59.131 -50.964  0.00  0.00     0.075 C 
HETATM   12  C           1     -40.916  59.115 -52.573  0.00  0.00     0.036 C 
HETATM   13  H           1     -44.936  57.485 -54.459  0.00  0.00     0.163 HD
HETATM   14  H           1     -40.808  57.919 -49.581  0.00  0.00     0.284 HD
HETATM   15  H           1     -41.568  59.418 -49.592  0.00  0.00     0.284 HD
ENDROOT
BRANCH   2  16
HETATM   16  S           1     -42.902  59.024 -55.864  0.00  0.00    -0.125 SA
BRANCH  16  17
HETATM   17  C           1     -44.616  58.713 -56.379  0.00  0.00     0.077 C 
BRANCH  17  18
HETATM   18  C           1     -44.743  59.004 -57.884  0.00  0.00     0.010 C 
BRANCH  18  19
HETATM   19  C           1     -45.868  58.176 -58.526  0.00  0.00    -0.004 C 
HETATM   20  C           1     -47.108  58.100 -57.625  0.00  0.00     0.005 C 
ENDBRANCH  18  19
ENDBRANCH  17  18
ENDBRANCH  16  17
ENDBRANCH   2  16
BRANCH   2  21
HETATM   21  S           1     -41.788  56.655 -54.270  0.00  0.00    -0.125 SA
BRANCH  21  22
HETATM   22  C           1     -42.891  55.519 -55.165  0.00  0.00     0.077 C 
BRANCH  22  23
HETATM   23  C           1     -42.329  55.305 -56.581  0.00  0.00     0.010 C 
BRANCH  23  24
HETATM   24  C           1     -43.422  55.453 -57.651  0.00  0.00    -0.004 C 
HETATM   25  C           1     -42.852  55.966 -58.981  0.00  0.00     0.005 C 
ENDBRANCH  23  24
ENDBRANCH  22  23
ENDBRANCH  21  22
ENDBRANCH   2  21
BRANCH   3  26
HETATM   26  C           1     -43.497  59.897 -51.018  0.00  0.00     0.105 C 
HETATM   27  N           1     -44.355  60.323 -50.365  0.00  0.00    -0.151 N 
ENDBRANCH   3  26
BRANCH   1  28
HETATM   28  N           1     -45.642  57.980 -52.028  0.00  0.00    -0.388 N 
HETATM   29  H           1     -46.510  58.415 -52.427  0.00  0.00     0.157 HD
HETATM   30  H           1     -45.729  57.400 -51.156  0.00  0.00     0.157 HD
ENDBRANCH   1  28
BRANCH   7  31
HETATM   31  C           1     -42.273  56.388 -51.091  0.00  0.00    -0.026 A 
HETATM   32  C           1     -41.033  55.861 -51.100  0.00  0.00     0.009 A 
HETATM   33  C           1     -40.817  54.568 -51.385  0.00  0.00     0.001 A 
HETATM   34  C           1     -41.847  53.754 -51.659  0.00  0.00     0.000 A 
HETATM   35  C           1     -43.092  54.249 -51.637  0.00  0.00     0.001 A 
HETATM   36  C           1     -43.292  55.544 -51.347  0.00  0.00     0.009 A 
ENDBRANCH   7  31
TORSDOF 11
ENDMDL
MODEL 5
REMARK VINA RESULT:      -5.5     16.749     19.264
REMARK  11 active torsions:
REMARK  status: ('A' for Active; 'I' for Inactive)
REMARK    1  A    between atoms: C_1  and  C_17 
REMARK    2  A    between atoms: C_1  and  S_18 
REMARK    3  A    between atoms: C_2  and  N_23 
REMARK    4  A    between atoms: C_3  and  C_13 
REMARK    5  A    between atoms: C_6  and  S_18 
REMARK    6  A    between atoms: C_6  and  S_19 
REMARK    7  A    between atoms: C_7  and  C_20 
REMARK    8  A    between atoms: C_7  and  C_21 
REMARK    9  A    between atoms: C_9  and  C_24 
REMARK   10  A    between atoms: C_16  and  C_17 
REMARK   11  A    between atoms: S_19  and  C_20 
ROOT
HETATM    1  C           1     -35.152  42.130 -56.012  0.00  0.00     0.092 C 
HETATM    2  C           1     -35.827  40.727 -54.180  0.00  0.00     0.156 C 
HETATM    3  C           1     -35.824  40.941 -56.644  0.00  0.00     0.127 C 
HETATM    4  C           1     -36.604  40.289 -55.473  0.00  0.00     0.136 C 
HETATM    5  C           1     -37.988  40.857 -55.439  0.00  0.00     0.079 C 
HETATM    6  N           1     -39.060  41.291 -55.538  0.00  0.00    -0.196 NA
HETATM    7  C           1     -34.951  39.905 -57.485  0.00  0.00     0.248 C 
HETATM    8  C           1     -36.566  38.174 -56.937  0.00  0.00     0.105 C 
HETATM    9  N           1     -35.156  42.001 -54.713  0.00  0.00    -0.350 N 
HETATM   10  N           1     -35.834  38.754 -58.050  0.00  0.00    -0.040 N 
HETATM   11  C           1     -36.975  36.732 -57.126  0.00  0.00     0.075 C 
HETATM   12  C           1     -36.837  38.819 -55.781  0.00  0.00     0.036 C 
HETATM   13  H           1     -34.744  42.711 -54.091  0.00  0.00     0.163 HD
HETATM   14  H           1     -35.190  38.026 -58.437  0.00  0.00     0.284 HD
HETATM   15  H           1     -36.473  39.043 -58.818  0.00  0.00     0.284 HD
ENDROOT
BRANCH   2  16
HETATM   16  S           1     -36.899  41.242 -52.797  0.00  0.00    -0.125 SA
BRANCH  16  17
HETATM   17  C           1     -36.964  39.758 -51.749  0.00  0.00     0.077 C 
BRANCH  17  18
HETATM   18  C           1     -36.489  40.129 -50.334  0.00  0.00     0.010 C 
BRANCH  18  19
HETATM   19  C           1     -36.135  38.878 -49.513  0.00  0.00    -0.004 C 
HETATM   20  C           1     -35.495  37.785 -50.381  0.00  0.00     0.005 C 
ENDBRANCH  18  19
ENDBRANCH  17  18
ENDBRANCH  16  17
ENDBRANCH   2  16
BRANCH   2  21
HETATM   21  S           1     -34.581  39.473 -53.738  0.00  0.00    -0.125 SA
BRANCH  21  22
HETATM   22  C           1     -33.436  40.460 -52.726  0.00  0.00     0.077 C 
BRANCH  22  23
HETATM   23  C           1     -32.268  39.560 -52.289  0.00  0.00     0.010 C 
BRANCH  23  24
HETATM   24  C           1     -31.675  40.016 -50.946  0.00  0.00    -0.004 C 
HETATM   25  C           1     -32.768  40.315 -49.912  0.00  0.00     0.005 C 
ENDBRANCH  23  24
ENDBRANCH  22  23
ENDBRANCH  21  22
ENDBRANCH   2  21
BRANCH   3  26
HETATM   26  C           1     -36.771  41.226 -57.755  0.00  0.00     0.105 C 
HETATM   27  N           1     -36.778  41.890 -58.705  0.00  0.00    -0.151 N 
ENDBRANCH   3  26
BRANCH   1  28
HETATM   28  N           1     -34.648  43.108 -56.639  0.00  0.00    -0.388 N 
HETATM   29  H           1     -34.650  44.074 -56.228  0.00  0.00     0.157 HD
HETATM   30  H           1     -34.224  42.971 -57.590  0.00  0.00     0.157 HD
ENDBRANCH   1  28
BRANCH   7  31
HETATM   31  C           1     -33.669  39.398 -56.833  0.00  0.00    -0.026 A 
HETATM   32  C           1     -33.441  38.103 -56.541  0.00  0.00     0.009 A 
HETATM   33  C           1     -32.292  37.696 -55.979  0.00  0.00     0.001 A 
HETATM   34  C           1     -31.325  38.582 -55.702  0.00  0.00     0.000 A 
HETATM   35  C           1     -31.518  39.874 -56.001  0.00  0.00     0.001 A 
HETATM   36  C           1     -32.672  40.264 -56.565  0.00  0.00     0.009 A 
ENDBRANCH   7  31
TORSDOF 11
ENDMDL
MODEL 6
REMARK VINA RESULT:      -5.4      1.829      3.130
REMARK  11 active torsions:
REMARK  status: ('A' for Active; 'I' for Inactive)
REMARK    1  A    between atoms: C_1  and  C_17 
REMARK    2  A    between atoms: C_1  and  S_18 
REMARK    3  A    between atoms: C_2  and  N_23 
REMARK    4  A    between atoms: C_3  and  C_13 
REMARK    5  A    between atoms: C_6  and  S_18 
REMARK    6  A    between atoms: C_6  and  S_19 
REMARK    7  A    between atoms: C_7  and  C_20 
REMARK    8  A    between atoms: C_7  and  C_21 
REMARK    9  A    between atoms: C_9  and  C_24 
REMARK   10  A    between atoms: C_16  and  C_17 
REMARK   11  A    between atoms: S_19  and  C_20 
ROOT
HETATM    1  C           1     -44.554  58.146 -53.235  0.00  0.00     0.092 C 
HETATM    2  C           1     -43.280  58.975 -55.097  0.00  0.00     0.156 C 
HETATM    3  C           1     -43.207  58.506 -52.670  0.00  0.00     0.127 C 
HETATM    4  C           1     -42.576  59.409 -53.762  0.00  0.00     0.136 C 
HETATM    5  C           1     -42.911  60.836 -53.462  0.00  0.00     0.079 C 
HETATM    6  N           1     -43.151  61.916 -53.108  0.00  0.00    -0.196 NA
HETATM    7  C           1     -42.237  57.349 -52.160  0.00  0.00     0.248 C 
HETATM    8  C           1     -40.341  58.787 -52.649  0.00  0.00     0.105 C 
HETATM    9  N           1     -44.577  58.393 -54.517  0.00  0.00    -0.350 N 
HETATM   10  N           1     -40.900  57.933 -51.616  0.00  0.00    -0.040 N 
HETATM   11  C           1     -38.839  58.948 -52.600  0.00  0.00     0.075 C 
HETATM   12  C           1     -41.062  59.371 -53.632  0.00  0.00     0.036 C 
HETATM   13  H           1     -45.410  58.216 -55.094  0.00  0.00     0.163 HD
HETATM   14  H           1     -40.247  57.130 -51.462  0.00  0.00     0.284 HD
HETATM   15  H           1     -40.992  58.437 -50.712  0.00  0.00     0.284 HD
ENDROOT
BRANCH   2  16
HETATM   16  S           1     -43.770  60.365 -56.174  0.00  0.00    -0.125 SA
BRANCH  16  17
HETATM   17  C           1     -42.263  60.694 -57.135  0.00  0.00     0.077 C 
BRANCH  17  18
HETATM   18  C           1     -42.613  60.667 -58.632  0.00  0.00     0.010 C 
BRANCH  18  19
HETATM   19  C           1     -41.998  59.445 -59.333  0.00  0.00    -0.004 C 
HETATM   20  C           1     -42.558  59.256 -60.750  0.00  0.00     0.005 C 
ENDBRANCH  18  19
ENDBRANCH  17  18
ENDBRANCH  16  17
ENDBRANCH   2  16
BRANCH   2  21
HETATM   21  S           1     -42.305  57.684 -55.935  0.00  0.00    -0.125 SA
BRANCH  21  22
HETATM   22  C           1     -43.564  56.942 -57.017  0.00  0.00     0.077 C 
BRANCH  22  23
HETATM   23  C           1     -42.931  55.758 -57.765  0.00  0.00     0.010 C 
BRANCH  23  24
HETATM   24  C           1     -43.248  55.803 -59.268  0.00  0.00    -0.004 C 
HETATM   25  C           1     -44.346  54.801 -59.649  0.00  0.00     0.005 C 
ENDBRANCH  23  24
ENDBRANCH  22  23
ENDBRANCH  21  22
ENDBRANCH   2  21
BRANCH   3  26
HETATM   26  C           1     -43.205  59.241 -51.376  0.00  0.00     0.105 C 
HETATM   27  N           1     -43.999  59.616 -50.621  0.00  0.00    -0.151 N 
ENDBRANCH   3  26
BRANCH   1  28
HETATM   28  N           1     -45.523  57.664 -52.576  0.00  0.00    -0.388 N 
HETATM   29  H           1     -45.409  56.789 -52.008  0.00  0.00     0.157 HD
HETATM   30  H           1     -46.463  58.130 -52.593  0.00  0.00     0.157 HD
ENDBRANCH   1  28
BRANCH   7  31
HETATM   31  C           1     -42.024  56.167 -53.100  0.00  0.00    -0.026 A 
HETATM   32  C           1     -40.827  55.835 -53.624  0.00  0.00     0.009 A 
HETATM   33  C           1     -40.680  54.778 -54.437  0.00  0.00     0.001 A 
HETATM   34  C           1     -41.734  54.008 -54.742  0.00  0.00     0.000 A 
HETATM   35  C           1     -42.932  54.304 -54.218  0.00  0.00     0.001 A 
HETATM   36  C           1     -43.062  55.363 -53.404  0.00  0.00     0.009 A 
ENDBRANCH   7  31
TORSDOF 11
ENDMDL
MODEL 7
REMARK VINA RESULT:      -5.3      2.208      3.686
REMARK  11 active torsions:
REMARK  status: ('A' for Active; 'I' for Inactive)
REMARK    1  A    between atoms: C_1  and  C_17 
REMARK    2  A    between atoms: C_1  and  S_18 
REMARK    3  A    between atoms: C_2  and  N_23 
REMARK    4  A    between atoms: C_3  and  C_13 
REMARK    5  A    between atoms: C_6  and  S_18 
REMARK    6  A    between atoms: C_6  and  S_19 
REMARK    7  A    between atoms: C_7  and  C_20 
REMARK    8  A    between atoms: C_7  and  C_21 
REMARK    9  A    between atoms: C_9  and  C_24 
REMARK   10  A    between atoms: C_16  and  C_17 
REMARK   11  A    between atoms: S_19  and  C_20 
ROOT
HETATM    1  C           1     -44.865  57.242 -54.846  0.00  0.00     0.092 C 
HETATM    2  C           1     -43.285  58.235 -56.361  0.00  0.00     0.156 C 
HETATM    3  C           1     -43.812  57.868 -53.973  0.00  0.00     0.127 C 
HETATM    4  C           1     -43.066  58.837 -54.927  0.00  0.00     0.136 C 
HETATM    5  C           1     -43.712  60.185 -54.848  0.00  0.00     0.079 C 
HETATM    6  N           1     -44.222  61.211 -54.664  0.00  0.00    -0.196 NA
HETATM    7  C           1     -42.839  56.931 -53.126  0.00  0.00     0.248 C 
HETATM    8  C           1     -41.158  58.683 -53.208  0.00  0.00     0.105 C 
HETATM    9  N           1     -44.572  57.438 -56.103  0.00  0.00    -0.350 N 
HETATM   10  N           1     -41.828  57.774 -52.294  0.00  0.00    -0.040 N 
HETATM   11  C           1     -39.780  59.125 -52.772  0.00  0.00     0.075 C 
HETATM   12  C           1     -41.666  59.089 -54.393  0.00  0.00     0.036 C 
HETATM   13  H           1     -45.169  57.089 -56.865  0.00  0.00     0.163 HD
HETATM   14  H           1     -41.116  57.114 -51.905  0.00  0.00     0.284 HD
HETATM   15  H           1     -42.253  58.282 -51.494  0.00  0.00     0.284 HD
ENDROOT
BRANCH   2  16
HETATM   16  S           1     -43.686  59.471 -57.642  0.00  0.00    -0.125 SA
BRANCH  16  17
HETATM   17  C           1     -42.062  59.871 -58.353  0.00  0.00     0.077 C 
BRANCH  17  18
HETATM   18  C           1     -42.100  59.592 -59.865  0.00  0.00     0.010 C 
BRANCH  18  19
HETATM   19  C           1     -43.541  59.588 -60.402  0.00  0.00    -0.004 C 
HETATM   20  C           1     -43.684  60.448 -61.664  0.00  0.00     0.005 C 
ENDBRANCH  18  19
ENDBRANCH  17  18
ENDBRANCH  16  17
ENDBRANCH   2  16
BRANCH   2  21
HETATM   21  S           1     -41.909  57.123 -56.795  0.00  0.00    -0.125 SA
BRANCH  21  22
HETATM   22  C           1     -42.799  55.773 -57.627  0.00  0.00     0.077 C 
BRANCH  22  23
HETATM   23  C           1     -42.816  56.054 -59.138  0.00  0.00     0.010 C 
BRANCH  23  24
HETATM   24  C           1     -44.246  56.031 -59.702  0.00  0.00    -0.004 C 
HETATM   25  C           1     -44.670  54.617 -60.122  0.00  0.00     0.005 C 
ENDBRANCH  23  24
ENDBRANCH  22  23
ENDBRANCH  21  22
ENDBRANCH   2  21
BRANCH   3  26
HETATM   26  C           1     -44.297  58.632 -52.792  0.00  0.00     0.105 C 
HETATM   27  N           1     -45.032  58.449 -51.915  0.00  0.00    -0.151 N 
ENDBRANCH   3  26
BRANCH   1  28
HETATM   28  N           1     -45.882  56.609 -54.432  0.00  0.00    -0.388 N 
HETATM   29  H           1     -46.048  55.611 -54.709  0.00  0.00     0.157 HD
HETATM   30  H           1     -46.585  57.078 -53.809  0.00  0.00     0.157 HD
ENDBRANCH   1  28
BRANCH   7  31
HETATM   31  C           1     -42.173  55.780 -53.873  0.00  0.00    -0.026 A 
HETATM   32  C           1     -40.857  55.738 -54.159  0.00  0.00     0.009 A 
HETATM   33  C           1     -40.307  54.699 -54.806  0.00  0.00     0.001 A 
HETATM   34  C           1     -41.064  53.657 -55.178  0.00  0.00     0.000 A 
HETATM   35  C           1     -42.372  53.664 -54.887  0.00  0.00     0.001 A 
HETATM   36  C           1     -42.906  54.710 -54.237  0.00  0.00     0.009 A 
ENDBRANCH   7  31
TORSDOF 11
ENDMDL
MODEL 8
REMARK VINA RESULT:      -5.3      2.903      6.948
REMARK  11 active torsions:
REMARK  status: ('A' for Active; 'I' for Inactive)
REMARK    1  A    between atoms: C_1  and  C_17 
REMARK    2  A    between atoms: C_1  and  S_18 
REMARK    3  A    between atoms: C_2  and  N_23 
REMARK    4  A    between atoms: C_3  and  C_13 
REMARK    5  A    between atoms: C_6  and  S_18 
REMARK    6  A    between atoms: C_6  and  S_19 
REMARK    7  A    between atoms: C_7  and  C_20 
REMARK    8  A    between atoms: C_7  and  C_21 
REMARK    9  A    between atoms: C_9  and  C_24 
REMARK   10  A    between atoms: C_16  and  C_17 
REMARK   11  A    between atoms: S_19  and  C_20 
ROOT
HETATM    1  C           1     -42.161  60.177 -57.268  0.00  0.00     0.092 C 
HETATM    2  C           1     -43.424  58.934 -55.643  0.00  0.00     0.156 C 
HETATM    3  C           1     -43.606  60.425 -57.608  0.00  0.00     0.127 C 
HETATM    4  C           1     -44.369  59.982 -56.333  0.00  0.00     0.136 C 
HETATM    5  C           1     -44.538  61.168 -55.435  0.00  0.00     0.079 C 
HETATM    6  N           1     -44.693  62.154 -54.843  0.00  0.00    -0.196 NA
HETATM    7  C           1     -44.207  59.820 -58.955  0.00  0.00     0.248 C 
HETATM    8  C           1     -46.397  59.782 -57.903  0.00  0.00     0.105 C 
HETATM    9  N           1     -42.080  59.385 -56.233  0.00  0.00    -0.350 N 
HETATM   10  N           1     -45.711  60.191 -59.117  0.00  0.00    -0.040 N 
HETATM   11  C           1     -47.868  59.483 -58.073  0.00  0.00     0.075 C 
HETATM   12  C           1     -45.797  59.618 -56.703  0.00  0.00     0.036 C 
HETATM   13  H           1     -41.176  59.091 -55.838  0.00  0.00     0.163 HD
HETATM   14  H           1     -46.088  59.629 -59.915  0.00  0.00     0.284 HD
HETATM   15  H           1     -45.882  61.193 -59.333  0.00  0.00     0.284 HD
ENDROOT
BRANCH   2  16
HETATM   16  S           1     -43.287  59.122 -53.834  0.00  0.00    -0.125 SA
BRANCH  16  17
HETATM   17  C           1     -44.254  57.720 -53.198  0.00  0.00     0.077 C 
BRANCH  17  18
HETATM   18  C           1     -43.431  57.000 -52.117  0.00  0.00     0.010 C 
BRANCH  18  19
HETATM   19  C           1     -43.338  55.490 -52.391  0.00  0.00    -0.004 C 
HETATM   20  C           1     -42.462  54.773 -51.355  0.00  0.00     0.005 C 
ENDBRANCH  18  19
ENDBRANCH  17  18
ENDBRANCH  16  17
ENDBRANCH   2  16
BRANCH   2  21
HETATM   21  S           1     -43.843  57.249 -56.194  0.00  0.00    -0.125 SA
BRANCH  21  22
HETATM   22  C           1     -42.212  56.446 -56.136  0.00  0.00     0.077 C 
BRANCH  22  23
HETATM   23  C           1     -42.417  54.928 -56.007  0.00  0.00     0.010 C 
BRANCH  23  24
HETATM   24  C           1     -41.186  54.240 -55.396  0.00  0.00    -0.004 C 
HETATM   25  C           1     -40.371  55.203 -54.521  0.00  0.00     0.005 C 
ENDBRANCH  23  24
ENDBRANCH  22  23
ENDBRANCH  21  22
ENDBRANCH   2  21
BRANCH   3  26
HETATM   26  C           1     -43.980  61.828 -57.932  0.00  0.00     0.105 C 
HETATM   27  N           1     -43.530  62.697 -58.552  0.00  0.00    -0.151 N 
ENDBRANCH   3  26
BRANCH   1  28
HETATM   28  N           1     -41.167  60.653 -57.892  0.00  0.00    -0.388 N 
HETATM   29  H           1     -40.191  60.325 -57.687  0.00  0.00     0.157 HD
HETATM   30  H           1     -41.301  61.395 -58.623  0.00  0.00     0.157 HD
ENDBRANCH   1  28
BRANCH   7  31
HETATM   31  C           1     -43.932  58.344 -59.228  0.00  0.00    -0.026 A 
HETATM   32  C           1     -44.894  57.403 -59.285  0.00  0.00     0.009 A 
HETATM   33  C           1     -44.611  56.117 -59.542  0.00  0.00     0.001 A 
HETATM   34  C           1     -43.345  55.735 -59.764  0.00  0.00     0.000 A 
HETATM   35  C           1     -42.371  56.656 -59.734  0.00  0.00     0.001 A 
HETATM   36  C           1     -42.672  57.938 -59.478  0.00  0.00     0.009 A 
ENDBRANCH   7  31
TORSDOF 11
ENDMDL
MODEL 9
REMARK VINA RESULT:      -5.2     17.083     19.992
REMARK  11 active torsions:
REMARK  status: ('A' for Active; 'I' for Inactive)
REMARK    1  A    between atoms: C_1  and  C_17 
REMARK    2  A    between atoms: C_1  and  S_18 
REMARK    3  A    between atoms: C_2  and  N_23 
REMARK    4  A    between atoms: C_3  and  C_13 
REMARK    5  A    between atoms: C_6  and  S_18 
REMARK    6  A    between atoms: C_6  and  S_19 
REMARK    7  A    between atoms: C_7  and  C_20 
REMARK    8  A    between atoms: C_7  and  C_21 
REMARK    9  A    between atoms: C_9  and  C_24 
REMARK   10  A    between atoms: C_16  and  C_17 
REMARK   11  A    between atoms: S_19  and  C_20 
ROOT
HETATM    1  C           1     -35.185  38.105 -53.489  0.00  0.00     0.092 C 
HETATM    2  C           1     -35.031  40.394 -54.206  0.00  0.00     0.156 C 
HETATM    3  C           1     -33.785  38.267 -54.014  0.00  0.00     0.127 C 
HETATM    4  C           1     -33.582  39.804 -54.065  0.00  0.00     0.136 C 
HETATM    5  C           1     -32.983  40.255 -52.770  0.00  0.00     0.079 C 
HETATM    6  N           1     -32.447  40.503 -51.770  0.00  0.00    -0.196 NA
HETATM    7  C           1     -33.362  37.522 -55.358  0.00  0.00     0.248 C 
HETATM    8  C           1     -31.713  39.263 -55.748  0.00  0.00     0.105 C 
HETATM    9  N           1     -35.833  39.233 -53.601  0.00  0.00    -0.350 N 
HETATM   10  N           1     -31.878  37.820 -55.725  0.00  0.00    -0.040 N 
HETATM   11  C           1     -30.599  39.763 -56.638  0.00  0.00     0.075 C 
HETATM   12  C           1     -32.504  40.134 -55.083  0.00  0.00     0.036 C 
HETATM   13  H           1     -36.811  39.336 -53.297  0.00  0.00     0.163 HD
HETATM   14  H           1     -31.715  37.453 -56.691  0.00  0.00     0.284 HD
HETATM   15  H           1     -31.185  37.366 -55.098  0.00  0.00     0.284 HD
ENDROOT
BRANCH   2  16
HETATM   16  S           1     -35.353  41.852 -53.156  0.00  0.00    -0.125 SA
BRANCH  16  17
HETATM   17  C           1     -36.519  41.218 -51.914  0.00  0.00     0.077 C 
BRANCH  17  18
HETATM   18  C           1     -35.750  40.927 -50.615  0.00  0.00     0.010 C 
BRANCH  18  19
HETATM   19  C           1     -36.080  39.530 -50.064  0.00  0.00    -0.004 C 
HETATM   20  C           1     -34.814  38.753 -49.678  0.00  0.00     0.005 C 
ENDBRANCH  18  19
ENDBRANCH  17  18
ENDBRANCH  16  17
ENDBRANCH   2  16
BRANCH   2  21
HETATM   21  S           1     -35.449  40.628 -55.963  0.00  0.00    -0.125 SA
BRANCH  21  22
HETATM   22  C           1     -37.266  40.620 -55.894  0.00  0.00     0.077 C 
BRANCH  22  23
HETATM   23  C           1     -37.812  40.882 -57.308  0.00  0.00     0.010 C 
BRANCH  23  24
HETATM   24  C           1     -36.742  41.499 -58.222  0.00  0.00    -0.004 C 
HETATM   25  C           1     -37.330  41.947 -59.567  0.00  0.00     0.005 C 
ENDBRANCH  23  24
ENDBRANCH  22  23
ENDBRANCH  21  22
ENDBRANCH   2  21
BRANCH   3  26
HETATM   26  C           1     -32.697  37.664 -53.198  0.00  0.00     0.105 C 
HETATM   27  N           1     -32.616  36.868 -52.359  0.00  0.00    -0.151 N 
ENDBRANCH   3  26
BRANCH   1  28
HETATM   28  N           1     -35.675  37.036 -53.016  0.00  0.00    -0.388 N 
HETATM   29  H           1     -36.364  37.060 -52.225  0.00  0.00     0.157 HD
HETATM   30  H           1     -35.390  36.103 -53.403  0.00  0.00     0.157 HD
ENDBRANCH   1  28
BRANCH   7  31
HETATM   31  C           1     -34.304  37.668 -56.549  0.00  0.00    -0.026 A 
HETATM   32  C           1     -33.939  38.208 -57.728  0.00  0.00     0.009 A 
HETATM   33  C           1     -34.796  38.306 -58.756  0.00  0.00     0.001 A 
HETATM   34  C           1     -36.050  37.848 -58.637  0.00  0.00     0.000 A 
HETATM   35  C           1     -36.432  37.287 -57.481  0.00  0.00     0.001 A 
HETATM   36  C           1     -35.563  37.195 -56.463  0.00  0.00     0.009 A 
ENDBRANCH   7  31
TORSDOF 11
ENDMDL
MODEL 10
REMARK VINA RESULT:      -5.2      2.357      5.910
REMARK  11 active torsions:
REMARK  status: ('A' for Active; 'I' for Inactive)
REMARK    1  A    between atoms: C_1  and  C_17 
REMARK    2  A    between atoms: C_1  and  S_18 
REMARK    3  A    between atoms: C_2  and  N_23 
REMARK    4  A    between atoms: C_3  and  C_13 
REMARK    5  A    between atoms: C_6  and  S_18 
REMARK    6  A    between atoms: C_6  and  S_19 
REMARK    7  A    between atoms: C_7  and  C_20 
REMARK    8  A    between atoms: C_7  and  C_21 
REMARK    9  A    between atoms: C_9  and  C_24 
REMARK   10  A    between atoms: C_16  and  C_17 
REMARK   11  A    between atoms: S_19  and  C_20 
ROOT
HETATM    1  C           1     -41.723  59.003 -53.361  0.00  0.00     0.092 C 
HETATM    2  C           1     -43.876  58.411 -52.472  0.00  0.00     0.156 C 
HETATM    3  C           1     -42.664  59.039 -54.535  0.00  0.00     0.127 C 
HETATM    4  C           1     -44.070  59.077 -53.881  0.00  0.00     0.136 C 
HETATM    5  C           1     -44.482  60.505 -53.705  0.00  0.00     0.079 C 
HETATM    6  N           1     -44.752  61.634 -53.682  0.00  0.00    -0.196 NA
HETATM    7  C           1     -42.524  57.943 -55.684  0.00  0.00     0.248 C 
HETATM    8  C           1     -44.892  58.207 -56.159  0.00  0.00     0.105 C 
HETATM    9  N           1     -42.374  58.665 -52.281  0.00  0.00    -0.350 N 
HETATM   10  N           1     -43.589  58.157 -56.800  0.00  0.00    -0.040 N 
HETATM   11  C           1     -46.051  57.800 -57.039  0.00  0.00     0.075 C 
HETATM   12  C           1     -45.096  58.536 -54.864  0.00  0.00     0.036 C 
HETATM   13  H           1     -41.911  58.584 -51.366  0.00  0.00     0.163 HD
HETATM   14  H           1     -43.561  57.319 -57.425  0.00  0.00     0.284 HD
HETATM   15  H           1     -43.423  58.994 -57.393  0.00  0.00     0.284 HD
ENDROOT
BRANCH   2  16
HETATM   16  S           1     -44.727  59.275 -51.109  0.00  0.00    -0.125 SA
BRANCH  16  17
HETATM   17  C           1     -43.414  60.302 -50.386  0.00  0.00     0.077 C 
BRANCH  17  18
HETATM   18  C           1     -44.017  61.650 -49.959  0.00  0.00     0.010 C 
BRANCH  18  19
HETATM   19  C           1     -44.614  61.578 -48.543  0.00  0.00    -0.004 C 
HETATM   20  C           1     -44.817  62.973 -47.936  0.00  0.00     0.005 C 
ENDBRANCH  18  19
ENDBRANCH  17  18
ENDBRANCH  16  17
ENDBRANCH   2  16
BRANCH   2  21
HETATM   21  S           1     -44.226  56.626 -52.564  0.00  0.00    -0.125 SA
BRANCH  21  22
HETATM   22  C           1     -43.779  56.094 -50.884  0.00  0.00     0.077 C 
BRANCH  22  23
HETATM   23  C           1     -43.328  54.625 -50.938  0.00  0.00     0.010 C 
BRANCH  23  24
HETATM   24  C           1     -41.974  54.423 -50.240  0.00  0.00    -0.004 C 
HETATM   25  C           1     -41.066  55.652 -50.390  0.00  0.00     0.005 C 
ENDBRANCH  23  24
ENDBRANCH  22  23
ENDBRANCH  21  22
ENDBRANCH   2  21
BRANCH   3  26
HETATM   26  C           1     -42.530  60.197 -55.458  0.00  0.00     0.105 C 
HETATM   27  N           1     -41.814  60.513 -56.314  0.00  0.00    -0.151 N 
ENDBRANCH   3  26
BRANCH   1  28
HETATM   28  N           1     -40.481  59.252 -53.408  0.00  0.00    -0.388 N 
HETATM   29  H           1     -39.881  59.171 -52.551  0.00  0.00     0.157 HD
HETATM   30  H           1     -40.031  59.554 -54.307  0.00  0.00     0.157 HD
ENDBRANCH   1  28
BRANCH   7  31
HETATM   31  C           1     -42.423  56.488 -55.237  0.00  0.00    -0.026 A 
HETATM   32  C           1     -43.298  55.531 -55.606  0.00  0.00     0.009 A 
HETATM   33  C           1     -43.165  54.259 -55.201  0.00  0.00     0.001 A 
HETATM   34  C           1     -42.136  53.902 -54.419  0.00  0.00     0.000 A 
HETATM   35  C           1     -41.240  54.830 -54.056  0.00  0.00     0.001 A 
HETATM   36  C           1     -41.386  56.098 -54.471  0.00  0.00     0.009 A 
ENDBRANCH   7  31
TORSDOF 11
ENDMDL
