MODEL 1
REMARK VINA RESULT:      -8.1      0.000      0.000
REMARK  8 active torsions:
REMARK  status: ('A' for Active; 'I' for Inactive)
REMARK    1  A    between atoms: O_2  and  C_3 
REMARK    2  A    between atoms: C_4  and  O_5 
REMARK    3  A    between atoms: C_8  and  C_9 
REMARK       I    between atoms: C_9  and  N_10 
REMARK    4  A    between atoms: N_10  and  N_11 
REMARK       I    between atoms: N_11  and  C_12 
REMARK    5  A    between atoms: C_12  and  C_13 
REMARK    6  A    between atoms: C_13  and  S_14 
REMARK    7  A    between atoms: S_14  and  C_15 
REMARK    8  A    between atoms: C_18  and  C_19 
ROOT
HETATM    1  N   UNL     1     -42.786  58.382 -53.715  1.00  0.00    -0.267 N 
HETATM    2  C   UNL     1     -43.747  58.072 -52.772  1.00  0.00     0.245 C 
HETATM    3  O   UNL     1     -44.871  57.672 -53.083  1.00  0.00    -0.271 OA
HETATM    4  H   UNL     1     -41.791  58.333 -53.451  1.00  0.00     0.190 HD
ENDROOT
BRANCH   2   5
HETATM    5  C   UNL     1     -43.320  58.296 -51.334  1.00  0.00     0.187 C 
BRANCH   5   6
HETATM    6  S   UNL     1     -41.519  58.149 -51.163  1.00  0.00    -0.083 SA
BRANCH   6   7
HETATM    7  C   UNL     1     -41.360  56.449 -50.945  1.00  0.00     0.167 A 
HETATM    8  N   UNL     1     -41.517  55.779 -49.832  1.00  0.00    -0.235 NA
HETATM    9  C   UNL     1     -41.239  54.476 -50.173  1.00  0.00     0.149 A 
HETATM   10  C   UNL     1     -40.933  54.354 -51.520  1.00  0.00     0.062 A 
HETATM   11  N   UNL     1     -41.015  55.647 -51.988  1.00  0.00    -0.333 N 
HETATM   12  H   UNL     1     -40.821  55.965 -52.925  1.00  0.00     0.168 HD
BRANCH  10  13
HETATM   13  C   UNL     1     -40.567  53.203 -52.338  1.00  0.00    -0.008 A 
HETATM   14  C   UNL     1     -39.857  52.122 -51.791  1.00  0.00     0.017 A 
HETATM   15  C   UNL     1     -39.510  51.024 -52.584  1.00  0.00     0.043 A 
HETATM   16  C   UNL     1     -39.872  51.005 -53.924  1.00  0.00     0.116 A 
HETATM   17  F   UNL     1     -39.539  49.954 -54.684  1.00  0.00    -0.206 F 
HETATM   18  C   UNL     1     -40.571  52.064 -54.489  1.00  0.00     0.043 A 
HETATM   19  C   UNL     1     -40.916  53.162 -53.697  1.00  0.00     0.017 A 
ENDBRANCH  10  13
ENDBRANCH   6   7
ENDBRANCH   5   6
ENDBRANCH   2   5
BRANCH   1  20
HETATM   20  N   UNL     1     -43.083  58.081 -55.052  1.00  0.00    -0.263 N 
HETATM   21  C   UNL     1     -42.452  57.007 -55.649  1.00  0.00     0.270 C 
HETATM   22  O   UNL     1     -41.631  56.307 -55.061  1.00  0.00    -0.266 OA
HETATM   23  H   UNL     1     -43.878  58.578 -55.444  1.00  0.00     0.190 HD
BRANCH  21  24
HETATM   24  C   UNL     1     -42.818  56.705 -57.068  1.00  0.00     0.036 A 
HETATM   25  C   UNL     1     -42.815  57.769 -57.986  1.00  0.00     0.056 A 
HETATM   26  C   UNL     1     -43.171  57.579 -59.331  1.00  0.00     0.102 A 
HETATM   27  C   UNL     1     -43.506  56.285 -59.766  1.00  0.00     0.101 A 
HETATM   28  C   UNL     1     -43.532  55.232 -58.843  1.00  0.00     0.040 A 
HETATM   29  C   UNL     1     -43.194  55.433 -57.502  1.00  0.00     0.020 A 
BRANCH  26  30
HETATM   30  O   UNL     1     -43.221  58.600 -60.242  1.00  0.00    -0.353 OA
HETATM   31  C   UNL     1     -41.993  59.174 -60.673  1.00  0.00     0.210 C 
ENDBRANCH  26  30
BRANCH  27  32
HETATM   32  O   UNL     1     -43.878  55.889 -61.024  1.00  0.00    -0.353 OA
HETATM   33  C   UNL     1     -45.035  55.073 -61.144  1.00  0.00     0.210 C 
ENDBRANCH  27  32
ENDBRANCH  21  24
ENDBRANCH   1  20
TORSDOF 8
ENDMDL
MODEL 2
REMARK VINA RESULT:      -8.0      3.101      7.008
REMARK  8 active torsions:
REMARK  status: ('A' for Active; 'I' for Inactive)
REMARK    1  A    between atoms: O_2  and  C_3 
REMARK    2  A    between atoms: C_4  and  O_5 
REMARK    3  A    between atoms: C_8  and  C_9 
REMARK       I    between atoms: C_9  and  N_10 
REMARK    4  A    between atoms: N_10  and  N_11 
REMARK       I    between atoms: N_11  and  C_12 
REMARK    5  A    between atoms: C_12  and  C_13 
REMARK    6  A    between atoms: C_13  and  S_14 
REMARK    7  A    between atoms: S_14  and  C_15 
REMARK    8  A    between atoms: C_18  and  C_19 
ROOT
HETATM    1  N   UNL     1     -41.581  57.280 -50.402  1.00  0.00    -0.267 N 
HETATM    2  C   UNL     1     -40.987  58.470 -50.777  1.00  0.00     0.245 C 
HETATM    3  O   UNL     1     -39.930  58.507 -51.413  1.00  0.00    -0.271 OA
HETATM    4  H   UNL     1     -42.598  57.260 -50.236  1.00  0.00     0.190 HD
ENDROOT
BRANCH   2   5
HETATM    5  C   UNL     1     -41.717  59.717 -50.318  1.00  0.00     0.187 C 
BRANCH   5   6
HETATM    6  S   UNL     1     -43.296  59.901 -51.192  1.00  0.00    -0.083 SA
BRANCH   6   7
HETATM    7  C   UNL     1     -42.779  59.716 -52.823  1.00  0.00     0.167 A 
HETATM    8  N   UNL     1     -42.033  60.539 -53.512  1.00  0.00    -0.235 NA
HETATM    9  C   UNL     1     -41.947  59.965 -54.758  1.00  0.00     0.149 A 
HETATM   10  C   UNL     1     -42.632  58.761 -54.815  1.00  0.00     0.062 A 
HETATM   11  N   UNL     1     -43.163  58.633 -53.551  1.00  0.00    -0.333 N 
HETATM   12  H   UNL     1     -43.761  57.891 -53.218  1.00  0.00     0.168 HD
BRANCH  10  13
HETATM   13  C   UNL     1     -42.838  57.805 -55.898  1.00  0.00    -0.008 A 
HETATM   14  C   UNL     1     -42.539  56.444 -55.728  1.00  0.00     0.017 A 
HETATM   15  C   UNL     1     -42.740  55.536 -56.772  1.00  0.00     0.043 A 
HETATM   16  C   UNL     1     -43.239  55.987 -57.986  1.00  0.00     0.116 A 
HETATM   17  F   UNL     1     -43.431  55.117 -58.986  1.00  0.00    -0.206 F 
HETATM   18  C   UNL     1     -43.539  57.329 -58.179  1.00  0.00     0.043 A 
HETATM   19  C   UNL     1     -43.337  58.237 -57.137  1.00  0.00     0.017 A 
ENDBRANCH  10  13
ENDBRANCH   6   7
ENDBRANCH   5   6
ENDBRANCH   2   5
BRANCH   1  20
HETATM   20  N   UNL     1     -41.016  56.098 -50.903  1.00  0.00    -0.263 N 
HETATM   21  C   UNL     1     -41.662  55.431 -51.925  1.00  0.00     0.270 C 
HETATM   22  O   UNL     1     -42.720  55.824 -52.411  1.00  0.00    -0.266 OA
HETATM   23  H   UNL     1     -40.070  55.901 -50.587  1.00  0.00     0.190 HD
BRANCH  21  24
HETATM   24  C   UNL     1     -41.011  54.190 -52.446  1.00  0.00     0.036 A 
HETATM   25  C   UNL     1     -40.488  53.281 -51.509  1.00  0.00     0.056 A 
HETATM   26  C   UNL     1     -39.838  52.104 -51.913  1.00  0.00     0.102 A 
HETATM   27  C   UNL     1     -39.740  51.821 -53.286  1.00  0.00     0.101 A 
HETATM   28  C   UNL     1     -40.240  52.741 -54.217  1.00  0.00     0.040 A 
HETATM   29  C   UNL     1     -40.869  53.919 -53.808  1.00  0.00     0.020 A 
BRANCH  26  30
HETATM   30  O   UNL     1     -39.279  51.219 -51.030  1.00  0.00    -0.353 OA
HETATM   31  C   UNL     1     -40.077  50.134 -50.574  1.00  0.00     0.210 C 
ENDBRANCH  26  30
BRANCH  27  32
HETATM   32  O   UNL     1     -39.151  50.738 -53.883  1.00  0.00    -0.353 OA
HETATM   33  C   UNL     1     -39.992  49.833 -54.587  1.00  0.00     0.210 C 
ENDBRANCH  27  32
ENDBRANCH  21  24
ENDBRANCH   1  20
TORSDOF 8
ENDMDL
MODEL 3
REMARK VINA RESULT:      -7.9      2.985      7.418
REMARK  8 active torsions:
REMARK  status: ('A' for Active; 'I' for Inactive)
REMARK    1  A    between atoms: O_2  and  C_3 
REMARK    2  A    between atoms: C_4  and  O_5 
REMARK    3  A    between atoms: C_8  and  C_9 
REMARK       I    between atoms: C_9  and  N_10 
REMARK    4  A    between atoms: N_10  and  N_11 
REMARK       I    between atoms: N_11  and  C_12 
REMARK    5  A    between atoms: C_12  and  C_13 
REMARK    6  A    between atoms: C_13  and  S_14 
REMARK    7  A    between atoms: S_14  and  C_15 
REMARK    8  A    between atoms: C_18  and  C_19 
ROOT
HETATM    1  N   UNL     1     -42.199  58.166 -52.725  1.00  0.00    -0.267 N 
HETATM    2  C   UNL     1     -41.391  59.202 -53.153  1.00  0.00     0.245 C 
HETATM    3  O   UNL     1     -40.184  59.055 -53.359  1.00  0.00    -0.271 OA
HETATM    4  H   UNL     1     -43.208  58.201 -52.932  1.00  0.00     0.190 HD
ENDROOT
BRANCH   2   5
HETATM    5  C   UNL     1     -42.099  60.533 -53.315  1.00  0.00     0.187 C 
BRANCH   5   6
HETATM    6  S   UNL     1     -43.657  60.332 -54.223  1.00  0.00    -0.083 SA
BRANCH   6   7
HETATM    7  C   UNL     1     -43.079  59.671 -55.703  1.00  0.00     0.167 A 
HETATM    8  N   UNL     1     -42.006  60.029 -56.360  1.00  0.00    -0.235 NA
HETATM    9  C   UNL     1     -42.012  59.238 -57.485  1.00  0.00     0.149 A 
HETATM   10  C   UNL     1     -43.093  58.370 -57.495  1.00  0.00     0.062 A 
HETATM   11  N   UNL     1     -43.765  58.679 -56.333  1.00  0.00    -0.333 N 
HETATM   12  H   UNL     1     -44.631  58.277 -56.009  1.00  0.00     0.168 HD
BRANCH  10  13
HETATM   13  C   UNL     1     -43.530  57.364 -58.457  1.00  0.00    -0.008 A 
HETATM   14  C   UNL     1     -44.199  57.732 -59.635  1.00  0.00     0.017 A 
HETATM   15  C   UNL     1     -44.614  56.760 -60.550  1.00  0.00     0.043 A 
HETATM   16  C   UNL     1     -44.361  55.420 -60.289  1.00  0.00     0.116 A 
HETATM   17  F   UNL     1     -44.759  54.489 -61.166  1.00  0.00    -0.206 F 
HETATM   18  C   UNL     1     -43.704  55.032 -59.129  1.00  0.00     0.043 A 
HETATM   19  C   UNL     1     -43.291  56.003 -58.213  1.00  0.00     0.017 A 
ENDBRANCH  10  13
ENDBRANCH   6   7
ENDBRANCH   5   6
ENDBRANCH   2   5
BRANCH   1  20
HETATM   20  N   UNL     1     -41.626  56.887 -52.675  1.00  0.00    -0.263 N 
HETATM   21  C   UNL     1     -41.888  55.998 -53.699  1.00  0.00     0.270 C 
HETATM   22  O   UNL     1     -42.613  56.276 -54.651  1.00  0.00    -0.266 OA
HETATM   23  H   UNL     1     -40.912  56.759 -51.963  1.00  0.00     0.190 HD
BRANCH  21  24
HETATM   24  C   UNL     1     -41.234  54.656 -53.618  1.00  0.00     0.036 A 
HETATM   25  C   UNL     1     -41.009  54.111 -52.342  1.00  0.00     0.056 A 
HETATM   26  C   UNL     1     -40.379  52.868 -52.174  1.00  0.00     0.102 A 
HETATM   27  C   UNL     1     -39.995  52.145 -53.317  1.00  0.00     0.101 A 
HETATM   28  C   UNL     1     -40.198  52.702 -54.586  1.00  0.00     0.040 A 
HETATM   29  C   UNL     1     -40.809  53.947 -54.744  1.00  0.00     0.020 A 
BRANCH  26  30
HETATM   30  O   UNL     1     -40.105  52.328 -50.946  1.00  0.00    -0.353 OA
HETATM   31  C   UNL     1     -40.377  53.115 -49.793  1.00  0.00     0.210 C 
ENDBRANCH  26  30
BRANCH  27  32
HETATM   32  O   UNL     1     -39.372  50.925 -53.372  1.00  0.00    -0.353 OA
HETATM   33  C   UNL     1     -39.782  50.020 -54.387  1.00  0.00     0.210 C 
ENDBRANCH  27  32
ENDBRANCH  21  24
ENDBRANCH   1  20
TORSDOF 8
ENDMDL
MODEL 4
REMARK VINA RESULT:      -7.7      1.624      2.332
REMARK  8 active torsions:
REMARK  status: ('A' for Active; 'I' for Inactive)
REMARK    1  A    between atoms: O_2  and  C_3 
REMARK    2  A    between atoms: C_4  and  O_5 
REMARK    3  A    between atoms: C_8  and  C_9 
REMARK       I    between atoms: C_9  and  N_10 
REMARK    4  A    between atoms: N_10  and  N_11 
REMARK       I    between atoms: N_11  and  C_12 
REMARK    5  A    between atoms: C_12  and  C_13 
REMARK    6  A    between atoms: C_13  and  S_14 
REMARK    7  A    between atoms: S_14  and  C_15 
REMARK    8  A    between atoms: C_18  and  C_19 
ROOT
HETATM    1  N   UNL     1     -41.561  57.662 -54.199  1.00  0.00    -0.267 N 
HETATM    2  C   UNL     1     -41.038  58.745 -53.519  1.00  0.00     0.245 C 
HETATM    3  O   UNL     1     -41.062  59.888 -53.981  1.00  0.00    -0.271 OA
HETATM    4  H   UNL     1     -41.875  56.839 -53.663  1.00  0.00     0.190 HD
ENDROOT
BRANCH   2   5
HETATM    5  C   UNL     1     -40.406  58.410 -52.182  1.00  0.00     0.187 C 
BRANCH   5   6
HETATM    6  S   UNL     1     -41.672  57.967 -50.960  1.00  0.00    -0.083 SA
BRANCH   6   7
HETATM    7  C   UNL     1     -41.307  56.303 -50.716  1.00  0.00     0.167 A 
HETATM    8  N   UNL     1     -41.224  55.673 -49.573  1.00  0.00    -0.235 NA
HETATM    9  C   UNL     1     -40.867  54.389 -49.912  1.00  0.00     0.149 A 
HETATM   10  C   UNL     1     -40.757  54.234 -51.285  1.00  0.00     0.062 A 
HETATM   11  N   UNL     1     -41.042  55.490 -51.775  1.00  0.00    -0.333 N 
HETATM   12  H   UNL     1     -41.026  55.782 -52.741  1.00  0.00     0.168 HD
BRANCH  10  13
HETATM   13  C   UNL     1     -40.401  53.088 -52.114  1.00  0.00    -0.008 A 
HETATM   14  C   UNL     1     -40.629  53.097 -53.500  1.00  0.00     0.017 A 
HETATM   15  C   UNL     1     -40.285  51.992 -54.284  1.00  0.00     0.043 A 
HETATM   16  C   UNL     1     -39.713  50.878 -53.685  1.00  0.00     0.116 A 
HETATM   17  F   UNL     1     -39.384  49.819 -54.437  1.00  0.00    -0.206 F 
HETATM   18  C   UNL     1     -39.482  50.843 -52.316  1.00  0.00     0.043 A 
HETATM   19  C   UNL     1     -39.827  51.946 -51.532  1.00  0.00     0.017 A 
ENDBRANCH  10  13
ENDBRANCH   6   7
ENDBRANCH   5   6
ENDBRANCH   2   5
BRANCH   1  20
HETATM   20  N   UNL     1     -42.265  57.930 -55.382  1.00  0.00    -0.263 N 
HETATM   21  C   UNL     1     -43.168  56.994 -55.847  1.00  0.00     0.270 C 
HETATM   22  O   UNL     1     -43.376  55.928 -55.273  1.00  0.00    -0.266 OA
HETATM   23  H   UNL     1     -42.183  58.881 -55.731  1.00  0.00     0.190 HD
BRANCH  21  24
HETATM   24  C   UNL     1     -43.915  57.332 -57.098  1.00  0.00     0.036 A 
HETATM   25  C   UNL     1     -43.662  56.557 -58.243  1.00  0.00     0.056 A 
HETATM   26  C   UNL     1     -44.300  56.822 -59.465  1.00  0.00     0.102 A 
HETATM   27  C   UNL     1     -45.236  57.869 -59.526  1.00  0.00     0.101 A 
HETATM   28  C   UNL     1     -45.467  58.656 -58.390  1.00  0.00     0.040 A 
HETATM   29  C   UNL     1     -44.814  58.397 -57.183  1.00  0.00     0.020 A 
BRANCH  26  30
HETATM   30  O   UNL     1     -44.046  56.116 -60.610  1.00  0.00    -0.353 OA
HETATM   31  C   UNL     1     -44.789  54.925 -60.841  1.00  0.00     0.210 C 
ENDBRANCH  26  30
BRANCH  27  32
HETATM   32  O   UNL     1     -45.962  58.288 -60.610  1.00  0.00    -0.353 OA
HETATM   33  C   UNL     1     -47.266  57.749 -60.781  1.00  0.00     0.210 C 
ENDBRANCH  27  32
ENDBRANCH  21  24
ENDBRANCH   1  20
TORSDOF 8
ENDMDL
MODEL 5
REMARK VINA RESULT:      -7.5      1.408      2.609
REMARK  8 active torsions:
REMARK  status: ('A' for Active; 'I' for Inactive)
REMARK    1  A    between atoms: O_2  and  C_3 
REMARK    2  A    between atoms: C_4  and  O_5 
REMARK    3  A    between atoms: C_8  and  C_9 
REMARK       I    between atoms: C_9  and  N_10 
REMARK    4  A    between atoms: N_10  and  N_11 
REMARK       I    between atoms: N_11  and  C_12 
REMARK    5  A    between atoms: C_12  and  C_13 
REMARK    6  A    between atoms: C_13  and  S_14 
REMARK    7  A    between atoms: S_14  and  C_15 
REMARK    8  A    between atoms: C_18  and  C_19 
ROOT
HETATM    1  N   UNL     1     -41.847  58.245 -53.192  1.00  0.00    -0.267 N 
HETATM    2  C   UNL     1     -40.664  58.619 -52.586  1.00  0.00     0.245 C 
HETATM    3  O   UNL     1     -39.761  59.193 -53.199  1.00  0.00    -0.271 OA
HETATM    4  H   UNL     1     -42.693  58.137 -52.614  1.00  0.00     0.190 HD
ENDROOT
BRANCH   2   5
HETATM    5  C   UNL     1     -40.553  58.238 -51.123  1.00  0.00     0.187 C 
BRANCH   5   6
HETATM    6  S   UNL     1     -41.946  57.190 -50.618  1.00  0.00    -0.083 SA
BRANCH   6   7
HETATM    7  C   UNL     1     -41.183  55.649 -50.571  1.00  0.00     0.167 A 
HETATM    8  N   UNL     1     -40.539  55.118 -49.562  1.00  0.00    -0.235 NA
HETATM    9  C   UNL     1     -40.085  53.912 -50.041  1.00  0.00     0.149 A 
HETATM   10  C   UNL     1     -40.482  53.699 -51.351  1.00  0.00     0.062 A 
HETATM   11  N   UNL     1     -41.184  54.842 -51.666  1.00  0.00    -0.333 N 
HETATM   12  H   UNL     1     -41.601  55.072 -52.555  1.00  0.00     0.168 HD
BRANCH  10  13
HETATM   13  C   UNL     1     -40.245  52.596 -52.277  1.00  0.00    -0.008 A 
HETATM   14  C   UNL     1     -40.552  52.718 -53.642  1.00  0.00     0.017 A 
HETATM   15  C   UNL     1     -40.321  51.655 -54.520  1.00  0.00     0.043 A 
HETATM   16  C   UNL     1     -39.785  50.470 -54.036  1.00  0.00     0.116 A 
HETATM   17  F   UNL     1     -39.564  49.451 -54.877  1.00  0.00    -0.206 F 
HETATM   18  C   UNL     1     -39.476  50.324 -52.689  1.00  0.00     0.043 A 
HETATM   19  C   UNL     1     -39.708  51.386 -51.811  1.00  0.00     0.017 A 
ENDBRANCH  10  13
ENDBRANCH   6   7
ENDBRANCH   5   6
ENDBRANCH   2   5
BRANCH   1  20
HETATM   20  N   UNL     1     -42.055  58.679 -54.510  1.00  0.00    -0.263 N 
HETATM   21  C   UNL     1     -42.217  57.735 -55.505  1.00  0.00     0.270 C 
HETATM   22  O   UNL     1     -42.179  56.526 -55.287  1.00  0.00    -0.266 OA
HETATM   23  H   UNL     1     -42.240  59.673 -54.617  1.00  0.00     0.190 HD
BRANCH  21  24
HETATM   24  C   UNL     1     -42.462  58.242 -56.890  1.00  0.00     0.036 A 
HETATM   25  C   UNL     1     -42.968  57.337 -57.840  1.00  0.00     0.056 A 
HETATM   26  C   UNL     1     -43.203  57.722 -59.169  1.00  0.00     0.102 A 
HETATM   27  C   UNL     1     -42.951  59.054 -59.542  1.00  0.00     0.101 A 
HETATM   28  C   UNL     1     -42.423  59.946 -58.600  1.00  0.00     0.040 A 
HETATM   29  C   UNL     1     -42.176  59.550 -57.284  1.00  0.00     0.020 A 
BRANCH  26  30
HETATM   30  O   UNL     1     -43.654  56.857 -60.130  1.00  0.00    -0.353 OA
HETATM   31  C   UNL     1     -43.613  55.463 -59.848  1.00  0.00     0.210 C 
ENDBRANCH  26  30
BRANCH  27  32
HETATM   32  O   UNL     1     -43.112  59.628 -60.776  1.00  0.00    -0.353 OA
HETATM   33  C   UNL     1     -41.944  60.058 -61.462  1.00  0.00     0.210 C 
ENDBRANCH  27  32
ENDBRANCH  21  24
ENDBRANCH   1  20
TORSDOF 8
ENDMDL
MODEL 6
REMARK VINA RESULT:      -7.4      3.418      7.586
REMARK  8 active torsions:
REMARK  status: ('A' for Active; 'I' for Inactive)
REMARK    1  A    between atoms: O_2  and  C_3 
REMARK    2  A    between atoms: C_4  and  O_5 
REMARK    3  A    between atoms: C_8  and  C_9 
REMARK       I    between atoms: C_9  and  N_10 
REMARK    4  A    between atoms: N_10  and  N_11 
REMARK       I    between atoms: N_11  and  C_12 
REMARK    5  A    between atoms: C_12  and  C_13 
REMARK    6  A    between atoms: C_13  and  S_14 
REMARK    7  A    between atoms: S_14  and  C_15 
REMARK    8  A    between atoms: C_18  and  C_19 
ROOT
HETATM    1  N   UNL     1     -43.613  55.480 -56.555  1.00  0.00    -0.267 N 
HETATM    2  C   UNL     1     -43.134  56.641 -57.132  1.00  0.00     0.245 C 
HETATM    3  O   UNL     1     -41.980  57.039 -56.953  1.00  0.00    -0.271 OA
HETATM    4  H   UNL     1     -44.395  54.984 -57.005  1.00  0.00     0.190 HD
ENDROOT
BRANCH   2   5
HETATM    5  C   UNL     1     -44.146  57.398 -57.969  1.00  0.00     0.187 C 
BRANCH   5   6
HETATM    6  S   UNL     1     -44.246  59.134 -57.452  1.00  0.00    -0.083 SA
BRANCH   6   7
HETATM    7  C   UNL     1     -44.172  58.960 -55.741  1.00  0.00     0.167 A 
HETATM    8  N   UNL     1     -45.148  58.619 -54.940  1.00  0.00    -0.235 NA
HETATM    9  C   UNL     1     -44.595  58.667 -53.683  1.00  0.00     0.149 A 
HETATM   10  C   UNL     1     -43.254  59.017 -53.727  1.00  0.00     0.062 A 
HETATM   11  N   UNL     1     -43.014  59.206 -55.070  1.00  0.00    -0.333 N 
HETATM   12  H   UNL     1     -42.150  59.506 -55.495  1.00  0.00     0.168 HD
BRANCH  10  13
HETATM   13  C   UNL     1     -42.259  59.206 -52.677  1.00  0.00    -0.008 A 
HETATM   14  C   UNL     1     -40.923  58.818 -52.867  1.00  0.00     0.017 A 
HETATM   15  C   UNL     1     -39.978  59.002 -51.855  1.00  0.00     0.043 A 
HETATM   16  C   UNL     1     -40.365  59.575 -50.651  1.00  0.00     0.116 A 
HETATM   17  F   UNL     1     -39.459  59.751 -49.681  1.00  0.00    -0.206 F 
HETATM   18  C   UNL     1     -41.681  59.964 -50.438  1.00  0.00     0.043 A 
HETATM   19  C   UNL     1     -42.627  59.777 -51.449  1.00  0.00     0.017 A 
ENDBRANCH  10  13
ENDBRANCH   6   7
ENDBRANCH   5   6
ENDBRANCH   2   5
BRANCH   1  20
HETATM   20  N   UNL     1     -42.688  54.678 -55.871  1.00  0.00    -0.263 N 
HETATM   21  C   UNL     1     -42.735  54.634 -54.491  1.00  0.00     0.270 C 
HETATM   22  O   UNL     1     -43.550  55.277 -53.833  1.00  0.00    -0.266 OA
HETATM   23  H   UNL     1     -42.145  54.046 -56.454  1.00  0.00     0.190 HD
BRANCH  21  24
HETATM   24  C   UNL     1     -41.747  53.745 -53.804  1.00  0.00     0.036 A 
HETATM   25  C   UNL     1     -41.269  54.147 -52.545  1.00  0.00     0.056 A 
HETATM   26  C   UNL     1     -40.322  53.385 -51.843  1.00  0.00     0.102 A 
HETATM   27  C   UNL     1     -39.870  52.180 -52.407  1.00  0.00     0.101 A 
HETATM   28  C   UNL     1     -40.330  51.795 -53.673  1.00  0.00     0.040 A 
HETATM   29  C   UNL     1     -41.259  52.568 -54.373  1.00  0.00     0.020 A 
BRANCH  26  30
HETATM   30  O   UNL     1     -39.802  53.768 -50.635  1.00  0.00    -0.353 OA
HETATM   31  C   UNL     1     -40.506  53.397 -49.456  1.00  0.00     0.210 C 
ENDBRANCH  26  30
BRANCH  27  32
HETATM   32  O   UNL     1     -38.957  51.298 -51.890  1.00  0.00    -0.353 OA
HETATM   33  C   UNL     1     -39.455  50.129 -51.253  1.00  0.00     0.210 C 
ENDBRANCH  27  32
ENDBRANCH  21  24
ENDBRANCH   1  20
TORSDOF 8
ENDMDL
MODEL 7
REMARK VINA RESULT:      -7.3      4.542      9.671
REMARK  8 active torsions:
REMARK  status: ('A' for Active; 'I' for Inactive)
REMARK    1  A    between atoms: O_2  and  C_3 
REMARK    2  A    between atoms: C_4  and  O_5 
REMARK    3  A    between atoms: C_8  and  C_9 
REMARK       I    between atoms: C_9  and  N_10 
REMARK    4  A    between atoms: N_10  and  N_11 
REMARK       I    between atoms: N_11  and  C_12 
REMARK    5  A    between atoms: C_12  and  C_13 
REMARK    6  A    between atoms: C_13  and  S_14 
REMARK    7  A    between atoms: S_14  and  C_15 
REMARK    8  A    between atoms: C_18  and  C_19 
ROOT
HETATM    1  N   UNL     1     -41.973  56.304 -56.525  1.00  0.00    -0.267 N 
HETATM    2  C   UNL     1     -42.278  57.581 -56.093  1.00  0.00     0.245 C 
HETATM    3  O   UNL     1     -42.104  57.942 -54.927  1.00  0.00    -0.271 OA
HETATM    4  H   UNL     1     -41.760  56.151 -57.521  1.00  0.00     0.190 HD
ENDROOT
BRANCH   2   5
HETATM    5  C   UNL     1     -42.870  58.485 -57.156  1.00  0.00     0.187 C 
BRANCH   5   6
HETATM    6  S   UNL     1     -42.393  57.933 -58.817  1.00  0.00    -0.083 SA
BRANCH   6   7
HETATM    7  C   UNL     1     -43.855  57.186 -59.334  1.00  0.00     0.167 A 
HETATM    8  N   UNL     1     -44.181  55.925 -59.212  1.00  0.00    -0.235 NA
HETATM    9  C   UNL     1     -45.413  55.829 -59.816  1.00  0.00     0.149 A 
HETATM   10  C   UNL     1     -45.849  57.058 -60.287  1.00  0.00     0.062 A 
HETATM   11  N   UNL     1     -44.817  57.911 -59.965  1.00  0.00    -0.333 N 
HETATM   12  H   UNL     1     -44.753  58.894 -60.182  1.00  0.00     0.168 HD
BRANCH  10  13
HETATM   13  C   UNL     1     -47.061  57.459 -60.993  1.00  0.00    -0.008 A 
HETATM   14  C   UNL     1     -47.827  56.524 -61.708  1.00  0.00     0.017 A 
HETATM   15  C   UNL     1     -48.985  56.920 -62.382  1.00  0.00     0.043 A 
HETATM   16  C   UNL     1     -49.381  58.250 -62.342  1.00  0.00     0.116 A 
HETATM   17  F   UNL     1     -50.491  58.629 -62.988  1.00  0.00    -0.206 F 
HETATM   18  C   UNL     1     -48.639  59.194 -61.644  1.00  0.00     0.043 A 
HETATM   19  C   UNL     1     -47.479  58.800 -60.973  1.00  0.00     0.017 A 
ENDBRANCH  10  13
ENDBRANCH   6   7
ENDBRANCH   5   6
ENDBRANCH   2   5
BRANCH   1  20
HETATM   20  N   UNL     1     -41.311  55.464 -55.617  1.00  0.00    -0.263 N 
HETATM   21  C   UNL     1     -42.001  54.405 -55.063  1.00  0.00     0.270 C 
HETATM   22  O   UNL     1     -43.179  54.169 -55.324  1.00  0.00    -0.266 OA
HETATM   23  H   UNL     1     -40.305  55.597 -55.557  1.00  0.00     0.190 HD
BRANCH  21  24
HETATM   24  C   UNL     1     -41.249  53.520 -54.122  1.00  0.00     0.036 A 
HETATM   25  C   UNL     1     -41.129  53.936 -52.784  1.00  0.00     0.056 A 
HETATM   26  C   UNL     1     -40.418  53.179 -51.840  1.00  0.00     0.102 A 
HETATM   27  C   UNL     1     -39.842  51.962 -52.244  1.00  0.00     0.101 A 
HETATM   28  C   UNL     1     -39.942  51.562 -53.583  1.00  0.00     0.040 A 
HETATM   29  C   UNL     1     -40.636  52.331 -54.521  1.00  0.00     0.020 A 
BRANCH  26  30
HETATM   30  O   UNL     1     -40.245  53.575 -50.541  1.00  0.00    -0.353 OA
HETATM   31  C   UNL     1     -40.571  54.917 -50.202  1.00  0.00     0.210 C 
ENDBRANCH  26  30
BRANCH  27  32
HETATM   32  O   UNL     1     -39.115  51.082 -51.486  1.00  0.00    -0.353 OA
HETATM   33  C   UNL     1     -39.565  49.735 -51.425  1.00  0.00     0.210 C 
ENDBRANCH  27  32
ENDBRANCH  21  24
ENDBRANCH   1  20
TORSDOF 8
ENDMDL
MODEL 8
REMARK VINA RESULT:      -7.2      3.300      4.235
REMARK  8 active torsions:
REMARK  status: ('A' for Active; 'I' for Inactive)
REMARK    1  A    between atoms: O_2  and  C_3 
REMARK    2  A    between atoms: C_4  and  O_5 
REMARK    3  A    between atoms: C_8  and  C_9 
REMARK       I    between atoms: C_9  and  N_10 
REMARK    4  A    between atoms: N_10  and  N_11 
REMARK       I    between atoms: N_11  and  C_12 
REMARK    5  A    between atoms: C_12  and  C_13 
REMARK    6  A    between atoms: C_13  and  S_14 
REMARK    7  A    between atoms: S_14  and  C_15 
REMARK    8  A    between atoms: C_18  and  C_19 
ROOT
HETATM    1  N   UNL     1     -44.560  57.014 -57.164  1.00  0.00    -0.267 N 
HETATM    2  C   UNL     1     -43.437  57.797 -56.979  1.00  0.00     0.245 C 
HETATM    3  O   UNL     1     -43.173  58.753 -57.713  1.00  0.00    -0.271 OA
HETATM    4  H   UNL     1     -44.952  56.505 -56.358  1.00  0.00     0.190 HD
ENDROOT
BRANCH   2   5
HETATM    5  C   UNL     1     -42.545  57.368 -55.831  1.00  0.00     0.187 C 
BRANCH   5   6
HETATM    6  S   UNL     1     -43.454  57.388 -54.261  1.00  0.00    -0.083 SA
BRANCH   6   7
HETATM    7  C   UNL     1     -42.482  56.327 -53.319  1.00  0.00     0.167 A 
HETATM    8  N   UNL     1     -41.971  56.565 -52.138  1.00  0.00    -0.235 NA
HETATM    9  C   UNL     1     -41.249  55.434 -51.841  1.00  0.00     0.149 A 
HETATM   10  C   UNL     1     -41.346  54.486 -52.847  1.00  0.00     0.062 A 
HETATM   11  N   UNL     1     -42.144  55.096 -53.789  1.00  0.00    -0.333 N 
HETATM   12  H   UNL     1     -42.411  54.726 -54.689  1.00  0.00     0.168 HD
BRANCH  10  13
HETATM   13  C   UNL     1     -40.763  53.157 -52.997  1.00  0.00    -0.008 A 
HETATM   14  C   UNL     1     -40.039  52.561 -51.952  1.00  0.00     0.017 A 
HETATM   15  C   UNL     1     -39.485  51.288 -52.106  1.00  0.00     0.043 A 
HETATM   16  C   UNL     1     -39.652  50.608 -53.305  1.00  0.00     0.116 A 
HETATM   17  F   UNL     1     -39.121  49.387 -53.452  1.00  0.00    -0.206 F 
HETATM   18  C   UNL     1     -40.361  51.177 -54.355  1.00  0.00     0.043 A 
HETATM   19  C   UNL     1     -40.914  52.451 -54.201  1.00  0.00     0.017 A 
ENDBRANCH  10  13
ENDBRANCH   6   7
ENDBRANCH   5   6
ENDBRANCH   2   5
BRANCH   1  20
HETATM   20  N   UNL     1     -45.482  57.436 -58.132  1.00  0.00    -0.263 N 
HETATM   21  C   UNL     1     -45.562  56.743 -59.324  1.00  0.00     0.270 C 
HETATM   22  O   UNL     1     -44.851  55.774 -59.579  1.00  0.00    -0.266 OA
HETATM   23  H   UNL     1     -46.154  58.132 -57.819  1.00  0.00     0.190 HD
BRANCH  21  24
HETATM   24  C   UNL     1     -46.577  57.212 -60.317  1.00  0.00     0.036 A 
HETATM   25  C   UNL     1     -46.805  58.596 -60.418  1.00  0.00     0.056 A 
HETATM   26  C   UNL     1     -47.758  59.120 -61.306  1.00  0.00     0.102 A 
HETATM   27  C   UNL     1     -48.474  58.234 -62.130  1.00  0.00     0.101 A 
HETATM   28  C   UNL     1     -48.262  56.855 -62.010  1.00  0.00     0.040 A 
HETATM   29  C   UNL     1     -47.325  56.340 -61.111  1.00  0.00     0.020 A 
BRANCH  26  30
HETATM   30  O   UNL     1     -48.037  60.457 -61.399  1.00  0.00    -0.353 OA
HETATM   31  C   UNL     1     -48.865  61.040 -60.400  1.00  0.00     0.210 C 
ENDBRANCH  26  30
BRANCH  27  32
HETATM   32  O   UNL     1     -49.438  58.538 -63.056  1.00  0.00    -0.353 OA
HETATM   33  C   UNL     1     -50.781  58.638 -62.602  1.00  0.00     0.210 C 
ENDBRANCH  27  32
ENDBRANCH  21  24
ENDBRANCH   1  20
TORSDOF 8
ENDMDL
MODEL 9
REMARK VINA RESULT:      -7.1      4.852     10.012
REMARK  8 active torsions:
REMARK  status: ('A' for Active; 'I' for Inactive)
REMARK    1  A    between atoms: O_2  and  C_3 
REMARK    2  A    between atoms: C_4  and  O_5 
REMARK    3  A    between atoms: C_8  and  C_9 
REMARK       I    between atoms: C_9  and  N_10 
REMARK    4  A    between atoms: N_10  and  N_11 
REMARK       I    between atoms: N_11  and  C_12 
REMARK    5  A    between atoms: C_12  and  C_13 
REMARK    6  A    between atoms: C_13  and  S_14 
REMARK    7  A    between atoms: S_14  and  C_15 
REMARK    8  A    between atoms: C_18  and  C_19 
ROOT
HETATM    1  N   UNL     1     -42.112  56.151 -57.045  1.00  0.00    -0.267 N 
HETATM    2  C   UNL     1     -42.438  57.494 -57.056  1.00  0.00     0.245 C 
HETATM    3  O   UNL     1     -42.458  58.176 -56.028  1.00  0.00    -0.271 OA
HETATM    4  H   UNL     1     -41.733  55.722 -57.901  1.00  0.00     0.190 HD
ENDROOT
BRANCH   2   5
HETATM    5  C   UNL     1     -42.801  58.047 -58.420  1.00  0.00     0.187 C 
BRANCH   5   6
HETATM    6  S   UNL     1     -42.579  56.790 -59.709  1.00  0.00    -0.083 SA
BRANCH   6   7
HETATM    7  C   UNL     1     -44.219  56.428 -60.083  1.00  0.00     0.167 A 
HETATM    8  N   UNL     1     -44.805  55.260 -60.016  1.00  0.00    -0.235 NA
HETATM    9  C   UNL     1     -46.087  55.492 -60.457  1.00  0.00     0.149 A 
HETATM   10  C   UNL     1     -46.286  56.827 -60.771  1.00  0.00     0.062 A 
HETATM   11  N   UNL     1     -45.060  57.403 -60.524  1.00  0.00    -0.333 N 
HETATM   12  H   UNL     1     -44.803  58.368 -60.672  1.00  0.00     0.168 HD
BRANCH  10  13
HETATM   13  C   UNL     1     -47.449  57.548 -61.277  1.00  0.00    -0.008 A 
HETATM   14  C   UNL     1     -47.617  58.919 -61.026  1.00  0.00     0.017 A 
HETATM   15  C   UNL     1     -48.736  59.600 -61.516  1.00  0.00     0.043 A 
HETATM   16  C   UNL     1     -49.687  58.912 -62.257  1.00  0.00     0.116 A 
HETATM   17  F   UNL     1     -50.758  59.565 -62.726  1.00  0.00    -0.206 F 
HETATM   18  C   UNL     1     -49.545  57.555 -62.516  1.00  0.00     0.043 A 
HETATM   19  C   UNL     1     -48.428  56.874 -62.024  1.00  0.00     0.017 A 
ENDBRANCH  10  13
ENDBRANCH   6   7
ENDBRANCH   5   6
ENDBRANCH   2   5
BRANCH   1  20
HETATM   20  N   UNL     1     -41.651  55.616 -55.833  1.00  0.00    -0.263 N 
HETATM   21  C   UNL     1     -42.335  54.557 -55.269  1.00  0.00     0.270 C 
HETATM   22  O   UNL     1     -43.340  54.067 -55.779  1.00  0.00    -0.266 OA
HETATM   23  H   UNL     1     -40.735  55.940 -55.535  1.00  0.00     0.190 HD
BRANCH  21  24
HETATM   24  C   UNL     1     -41.794  54.001 -53.991  1.00  0.00     0.036 A 
HETATM   25  C   UNL     1     -40.792  53.018 -54.076  1.00  0.00     0.056 A 
HETATM   26  C   UNL     1     -40.247  52.424 -52.926  1.00  0.00     0.102 A 
HETATM   27  C   UNL     1     -40.698  52.851 -51.665  1.00  0.00     0.101 A 
HETATM   28  C   UNL     1     -41.714  53.812 -51.585  1.00  0.00     0.040 A 
HETATM   29  C   UNL     1     -42.264  54.385 -52.734  1.00  0.00     0.020 A 
BRANCH  26  30
HETATM   30  O   UNL     1     -39.302  51.434 -52.973  1.00  0.00    -0.353 OA
HETATM   31  C   UNL     1     -39.481  50.381 -53.912  1.00  0.00     0.210 C 
ENDBRANCH  26  30
BRANCH  27  32
HETATM   32  O   UNL     1     -40.300  52.405 -50.433  1.00  0.00    -0.353 OA
HETATM   33  C   UNL     1     -40.297  53.338 -49.361  1.00  0.00     0.210 C 
ENDBRANCH  27  32
ENDBRANCH  21  24
ENDBRANCH   1  20
TORSDOF 8
ENDMDL
MODEL 10
REMARK VINA RESULT:      -7.0      3.053      7.731
REMARK  8 active torsions:
REMARK  status: ('A' for Active; 'I' for Inactive)
REMARK    1  A    between atoms: O_2  and  C_3 
REMARK    2  A    between atoms: C_4  and  O_5 
REMARK    3  A    between atoms: C_8  and  C_9 
REMARK       I    between atoms: C_9  and  N_10 
REMARK    4  A    between atoms: N_10  and  N_11 
REMARK       I    between atoms: N_11  and  C_12 
REMARK    5  A    between atoms: C_12  and  C_13 
REMARK    6  A    between atoms: C_13  and  S_14 
REMARK    7  A    between atoms: S_14  and  C_15 
REMARK    8  A    between atoms: C_18  and  C_19 
ROOT
HETATM    1  N   UNL     1     -43.177  57.098 -52.555  1.00  0.00    -0.267 N 
HETATM    2  C   UNL     1     -44.246  57.514 -51.785  1.00  0.00     0.245 C 
HETATM    3  O   UNL     1     -44.747  56.802 -50.912  1.00  0.00    -0.271 OA
HETATM    4  H   UNL     1     -42.556  57.806 -52.973  1.00  0.00     0.190 HD
ENDROOT
BRANCH   2   5
HETATM    5  C   UNL     1     -44.771  58.896 -52.123  1.00  0.00     0.187 C 
BRANCH   5   6
HETATM    6  S   UNL     1     -43.605  59.789 -53.188  1.00  0.00    -0.083 SA
BRANCH   6   7
HETATM    7  C   UNL     1     -44.345  59.565 -54.725  1.00  0.00     0.167 A 
HETATM    8  N   UNL     1     -45.286  60.299 -55.263  1.00  0.00    -0.235 NA
HETATM    9  C   UNL     1     -45.560  59.683 -56.461  1.00  0.00     0.149 A 
HETATM   10  C   UNL     1     -44.753  58.574 -56.663  1.00  0.00     0.062 A 
HETATM   11  N   UNL     1     -43.985  58.522 -55.521  1.00  0.00    -0.333 N 
HETATM   12  H   UNL     1     -43.297  57.822 -55.285  1.00  0.00     0.168 HD
BRANCH  10  13
HETATM   13  C   UNL     1     -44.674  57.609 -57.755  1.00  0.00    -0.008 A 
HETATM   14  C   UNL     1     -45.660  57.563 -58.754  1.00  0.00     0.017 A 
HETATM   15  C   UNL     1     -45.575  56.634 -59.794  1.00  0.00     0.043 A 
HETATM   16  C   UNL     1     -44.506  55.750 -59.838  1.00  0.00     0.116 A 
HETATM   17  F   UNL     1     -44.424  54.860 -60.836  1.00  0.00    -0.206 F 
HETATM   18  C   UNL     1     -43.520  55.774 -58.860  1.00  0.00     0.043 A 
HETATM   19  C   UNL     1     -43.605  56.701 -57.818  1.00  0.00     0.017 A 
ENDBRANCH  10  13
ENDBRANCH   6   7
ENDBRANCH   5   6
ENDBRANCH   2   5
BRANCH   1  20
HETATM   20  N   UNL     1     -42.575  55.880 -52.206  1.00  0.00    -0.263 N 
HETATM   21  C   UNL     1     -41.493  55.437 -52.941  1.00  0.00     0.270 C 
HETATM   22  O   UNL     1     -41.038  56.060 -53.898  1.00  0.00    -0.266 OA
HETATM   23  H   UNL     1     -42.876  55.484 -51.320  1.00  0.00     0.190 HD
BRANCH  21  24
HETATM   24  C   UNL     1     -40.865  54.147 -52.517  1.00  0.00     0.036 A 
HETATM   25  C   UNL     1     -40.430  53.268 -53.524  1.00  0.00     0.056 A 
HETATM   26  C   UNL     1     -39.854  52.026 -53.215  1.00  0.00     0.102 A 
HETATM   27  C   UNL     1     -39.683  51.676 -51.865  1.00  0.00     0.101 A 
HETATM   28  C   UNL     1     -40.140  52.544 -50.864  1.00  0.00     0.040 A 
HETATM   29  C   UNL     1     -40.729  53.770 -51.180  1.00  0.00     0.020 A 
BRANCH  26  30
HETATM   30  O   UNL     1     -39.459  51.127 -54.170  1.00  0.00    -0.353 OA
HETATM   31  C   UNL     1     -40.284  49.992 -54.403  1.00  0.00     0.210 C 
ENDBRANCH  26  30
BRANCH  27  32
HETATM   32  O   UNL     1     -39.146  50.523 -51.354  1.00  0.00    -0.353 OA
HETATM   33  C   UNL     1     -39.958  49.745 -50.485  1.00  0.00     0.210 C 
ENDBRANCH  27  32
ENDBRANCH  21  24
ENDBRANCH   1  20
TORSDOF 8
ENDMDL
