MODEL 1
REMARK VINA RESULT:      -7.4      0.000      0.000
REMARK  4 active torsions:
REMARK  status: ('A' for Active; 'I' for Inactive)
REMARK    1  A    between atoms: S_2  and  N_3 
REMARK    2  A    between atoms: N_3  and  N_4 
REMARK    3  A    between atoms: C_10  and  C_11 
REMARK    4  A    between atoms: C_13  and  O_14 
ROOT
HETATM    1  N   UNL     1     -42.663  55.789 -54.364  1.00  0.00    -0.224 N 
HETATM    2  C   UNL     1     -41.766  54.738 -54.482  1.00  0.00     0.276 C 
HETATM    3  O   UNL     1     -41.404  54.305 -55.576  1.00  0.00    -0.266 OA
HETATM    4  C   UNL     1     -41.338  54.104 -53.220  1.00  0.00     0.055 A 
HETATM    5  C   UNL     1     -42.124  54.345 -52.083  1.00  0.00     0.026 A 
HETATM    6  N   UNL     1     -43.235  55.205 -52.153  1.00  0.00    -0.265 NA
HETATM    7  C   UNL     1     -43.043  56.347 -53.059  1.00  0.00     0.222 C 
HETATM    8  C   UNL     1     -40.270  53.205 -53.191  1.00  0.00     0.019 A 
HETATM    9  C   UNL     1     -39.983  52.526 -52.009  1.00  0.00     0.001 A 
HETATM   10  C   UNL     1     -40.779  52.724 -50.881  1.00  0.00     0.002 A 
HETATM   11  C   UNL     1     -41.856  53.616 -50.922  1.00  0.00     0.024 A 
HETATM   12  H   UNL     1     -43.607  55.473 -51.252  1.00  0.00     0.130 HD
ENDROOT
BRANCH   7  13
HETATM   13  C   UNL     1     -42.026  57.359 -52.499  1.00  0.00    -0.017 A 
HETATM   14  C   UNL     1     -42.035  57.726 -51.139  1.00  0.00     0.047 A 
HETATM   15  C   UNL     1     -41.094  58.623 -50.635  1.00  0.00     0.066 A 
HETATM   16  C   UNL     1     -40.126  59.180 -51.455  1.00  0.00     0.036 A 
HETATM   17  C   UNL     1     -40.078  58.817 -52.795  1.00  0.00     0.003 A 
HETATM   18  C   UNL     1     -41.007  57.906 -53.307  1.00  0.00     0.011 A 
BRANCH  15  19
HETATM   19  O   UNL     1     -41.087  58.979 -49.317  1.00  0.00    -0.361 OA
HETATM   20  H   UNL     1     -40.525  59.763 -49.210  1.00  0.00     0.217 HD
ENDBRANCH  15  19
ENDBRANCH   7  13
BRANCH   1  21
HETATM   21  N   UNL     1     -43.655  55.879 -55.467  1.00  0.00    -0.220 N 
HETATM   22  H   UNL     1     -43.939  54.955 -55.820  1.00  0.00     0.200 HD
BRANCH  21  23
HETATM   23  S   UNL     1     -43.459  57.009 -56.708  1.00  0.00     0.240 S 
HETATM   24  C   UNL     1     -43.288  55.929 -58.113  1.00  0.00     0.187 C 
HETATM   25  O   UNL     1     -42.209  57.709 -56.517  1.00  0.00    -0.205 OA
HETATM   26  O   UNL     1     -44.712  57.717 -56.843  1.00  0.00    -0.205 OA
ENDBRANCH  21  23
ENDBRANCH   1  21
TORSDOF 4
ENDMDL
MODEL 2
REMARK VINA RESULT:      -7.2      1.353      1.665
REMARK  4 active torsions:
REMARK  status: ('A' for Active; 'I' for Inactive)
REMARK    1  A    between atoms: S_2  and  N_3 
REMARK    2  A    between atoms: N_3  and  N_4 
REMARK    3  A    between atoms: C_10  and  C_11 
REMARK    4  A    between atoms: C_13  and  O_14 
ROOT
HETATM    1  N   UNL     1     -43.468  56.369 -54.595  1.00  0.00    -0.224 N 
HETATM    2  C   UNL     1     -42.621  55.521 -55.292  1.00  0.00     0.276 C 
HETATM    3  O   UNL     1     -42.604  55.477 -56.522  1.00  0.00    -0.266 OA
HETATM    4  C   UNL     1     -41.803  54.604 -54.475  1.00  0.00     0.055 A 
HETATM    5  C   UNL     1     -42.203  54.399 -53.146  1.00  0.00     0.026 A 
HETATM    6  N   UNL     1     -43.306  55.095 -52.619  1.00  0.00    -0.265 NA
HETATM    7  C   UNL     1     -43.440  56.468 -53.129  1.00  0.00     0.222 C 
HETATM    8  C   UNL     1     -40.752  53.878 -55.040  1.00  0.00     0.019 A 
HETATM    9  C   UNL     1     -40.091  52.923 -54.270  1.00  0.00     0.001 A 
HETATM   10  C   UNL     1     -40.503  52.680 -52.959  1.00  0.00     0.002 A 
HETATM   11  C   UNL     1     -41.566  53.401 -52.406  1.00  0.00     0.024 A 
HETATM   12  H   UNL     1     -43.387  55.037 -51.612  1.00  0.00     0.130 HD
ENDROOT
BRANCH   7  13
HETATM   13  C   UNL     1     -42.330  57.390 -52.592  1.00  0.00    -0.017 A 
HETATM   14  C   UNL     1     -42.191  57.637 -51.212  1.00  0.00     0.047 A 
HETATM   15  C   UNL     1     -41.167  58.453 -50.732  1.00  0.00     0.066 A 
HETATM   16  C   UNL     1     -40.259  59.045 -51.596  1.00  0.00     0.036 A 
HETATM   17  C   UNL     1     -40.358  58.799 -52.960  1.00  0.00     0.003 A 
HETATM   18  C   UNL     1     -41.371  57.969 -53.450  1.00  0.00     0.011 A 
BRANCH  15  19
HETATM   19  O   UNL     1     -41.016  58.692 -49.397  1.00  0.00    -0.361 OA
HETATM   20  H   UNL     1     -40.618  59.570 -49.281  1.00  0.00     0.217 HD
ENDBRANCH  15  19
ENDBRANCH   7  13
BRANCH   1  21
HETATM   21  N   UNL     1     -44.755  56.654 -55.280  1.00  0.00    -0.220 N 
HETATM   22  H   UNL     1     -44.957  55.986 -56.037  1.00  0.00     0.200 HD
BRANCH  21  23
HETATM   23  S   UNL     1     -45.179  58.237 -55.690  1.00  0.00     0.240 S 
HETATM   24  C   UNL     1     -43.670  58.793 -56.456  1.00  0.00     0.187 C 
HETATM   25  O   UNL     1     -45.384  59.001 -54.481  1.00  0.00    -0.205 OA
HETATM   26  O   UNL     1     -46.193  58.156 -56.717  1.00  0.00    -0.205 OA
ENDBRANCH  21  23
ENDBRANCH   1  21
TORSDOF 4
ENDMDL
MODEL 3
REMARK VINA RESULT:      -7.1      1.362      1.422
REMARK  4 active torsions:
REMARK  status: ('A' for Active; 'I' for Inactive)
REMARK    1  A    between atoms: S_2  and  N_3 
REMARK    2  A    between atoms: N_3  and  N_4 
REMARK    3  A    between atoms: C_10  and  C_11 
REMARK    4  A    between atoms: C_13  and  O_14 
ROOT
HETATM    1  N   UNL     1     -42.787  55.763 -55.330  1.00  0.00    -0.224 N 
HETATM    2  C   UNL     1     -41.763  54.893 -54.984  1.00  0.00     0.276 C 
HETATM    3  O   UNL     1     -40.993  54.422 -55.821  1.00  0.00    -0.266 OA
HETATM    4  C   UNL     1     -41.704  54.491 -53.565  1.00  0.00     0.055 A 
HETATM    5  C   UNL     1     -42.855  54.699 -52.791  1.00  0.00     0.026 A 
HETATM    6  N   UNL     1     -43.986  55.322 -53.350  1.00  0.00    -0.265 NA
HETATM    7  C   UNL     1     -43.663  56.376 -54.323  1.00  0.00     0.222 C 
HETATM    8  C   UNL     1     -40.593  53.818 -53.053  1.00  0.00     0.019 A 
HETATM    9  C   UNL     1     -40.630  53.336 -51.746  1.00  0.00     0.001 A 
HETATM   10  C   UNL     1     -41.783  53.500 -50.977  1.00  0.00     0.002 A 
HETATM   11  C   UNL     1     -42.897  54.162 -51.503  1.00  0.00     0.024 A 
HETATM   12  H   UNL     1     -44.677  55.610 -52.669  1.00  0.00     0.130 HD
ENDROOT
BRANCH   7  13
HETATM   13  C   UNL     1     -43.052  57.615 -53.643  1.00  0.00    -0.017 A 
HETATM   14  C   UNL     1     -43.509  58.058 -52.386  1.00  0.00     0.047 A 
HETATM   15  C   UNL     1     -42.933  59.166 -51.766  1.00  0.00     0.066 A 
HETATM   16  C   UNL     1     -41.898  59.864 -52.367  1.00  0.00     0.036 A 
HETATM   17  C   UNL     1     -41.410  59.435 -53.595  1.00  0.00     0.003 A 
HETATM   18  C   UNL     1     -41.970  58.315 -54.218  1.00  0.00     0.011 A 
BRANCH  15  19
HETATM   19  O   UNL     1     -43.360  59.599 -50.544  1.00  0.00    -0.361 OA
HETATM   20  H   UNL     1     -44.328  59.538 -50.513  1.00  0.00     0.217 HD
ENDBRANCH  15  19
ENDBRANCH   7  13
BRANCH   1  21
HETATM   21  N   UNL     1     -43.346  55.546 -56.689  1.00  0.00    -0.220 N 
HETATM   22  H   UNL     1     -43.081  54.633 -57.085  1.00  0.00     0.200 HD
BRANCH  21  23
HETATM   23  S   UNL     1     -43.308  56.781 -57.841  1.00  0.00     0.240 S 
HETATM   24  C   UNL     1     -43.060  55.836 -59.329  1.00  0.00     0.187 C 
HETATM   25  O   UNL     1     -42.137  57.599 -57.620  1.00  0.00    -0.205 OA
HETATM   26  O   UNL     1     -44.634  57.355 -57.897  1.00  0.00    -0.205 OA
ENDBRANCH  21  23
ENDBRANCH   1  21
TORSDOF 4
ENDMDL
MODEL 4
REMARK VINA RESULT:      -7.1      2.935      6.342
REMARK  4 active torsions:
REMARK  status: ('A' for Active; 'I' for Inactive)
REMARK    1  A    between atoms: S_2  and  N_3 
REMARK    2  A    between atoms: N_3  and  N_4 
REMARK    3  A    between atoms: C_10  and  C_11 
REMARK    4  A    between atoms: C_13  and  O_14 
ROOT
HETATM    1  N   UNL     1     -41.917  55.528 -50.562  1.00  0.00    -0.224 N 
HETATM    2  C   UNL     1     -41.707  56.898 -50.537  1.00  0.00     0.276 C 
HETATM    3  O   UNL     1     -40.865  57.419 -49.804  1.00  0.00    -0.266 OA
HETATM    4  C   UNL     1     -42.614  57.710 -51.371  1.00  0.00     0.055 A 
HETATM    5  C   UNL     1     -43.803  57.104 -51.803  1.00  0.00     0.026 A 
HETATM    6  N   UNL     1     -44.071  55.759 -51.491  1.00  0.00    -0.265 NA
HETATM    7  C   UNL     1     -42.875  54.902 -51.484  1.00  0.00     0.222 C 
HETATM    8  C   UNL     1     -42.354  59.061 -51.612  1.00  0.00     0.019 A 
HETATM    9  C   UNL     1     -43.301  59.827 -52.290  1.00  0.00     0.001 A 
HETATM   10  C   UNL     1     -44.506  59.248 -52.691  1.00  0.00     0.002 A 
HETATM   11  C   UNL     1     -44.764  57.898 -52.433  1.00  0.00     0.024 A 
HETATM   12  H   UNL     1     -44.841  55.360 -52.013  1.00  0.00     0.130 HD
ENDROOT
BRANCH   7  13
HETATM   13  C   UNL     1     -42.317  54.685 -52.903  1.00  0.00    -0.017 A 
HETATM   14  C   UNL     1     -43.175  54.584 -54.016  1.00  0.00     0.047 A 
HETATM   15  C   UNL     1     -42.660  54.413 -55.301  1.00  0.00     0.066 A 
HETATM   16  C   UNL     1     -41.293  54.335 -55.520  1.00  0.00     0.036 A 
HETATM   17  C   UNL     1     -40.424  54.457 -54.442  1.00  0.00     0.003 A 
HETATM   18  C   UNL     1     -40.929  54.645 -53.153  1.00  0.00     0.011 A 
BRANCH  15  19
HETATM   19  O   UNL     1     -43.479  54.322 -56.389  1.00  0.00    -0.361 OA
HETATM   20  H   UNL     1     -43.037  54.736 -57.147  1.00  0.00     0.217 HD
ENDBRANCH  15  19
ENDBRANCH   7  13
BRANCH   1  21
HETATM   21  N   UNL     1     -41.654  54.840 -49.272  1.00  0.00    -0.220 N 
HETATM   22  H   UNL     1     -41.877  55.429 -48.457  1.00  0.00     0.200 HD
BRANCH  21  23
HETATM   23  S   UNL     1     -40.240  53.943 -49.048  1.00  0.00     0.240 S 
HETATM   24  C   UNL     1     -40.626  52.481 -49.988  1.00  0.00     0.187 C 
HETATM   25  O   UNL     1     -40.129  53.574 -47.655  1.00  0.00    -0.205 OA
HETATM   26  O   UNL     1     -39.177  54.643 -49.734  1.00  0.00    -0.205 OA
ENDBRANCH  21  23
ENDBRANCH   1  21
TORSDOF 4
ENDMDL
MODEL 5
REMARK VINA RESULT:      -6.8      1.629      2.005
REMARK  4 active torsions:
REMARK  status: ('A' for Active; 'I' for Inactive)
REMARK    1  A    between atoms: S_2  and  N_3 
REMARK    2  A    between atoms: N_3  and  N_4 
REMARK    3  A    between atoms: C_10  and  C_11 
REMARK    4  A    between atoms: C_13  and  O_14 
ROOT
HETATM    1  N   UNL     1     -41.502  56.868 -54.274  1.00  0.00    -0.224 N 
HETATM    2  C   UNL     1     -40.867  55.656 -54.054  1.00  0.00     0.276 C 
HETATM    3  O   UNL     1     -40.129  55.141 -54.895  1.00  0.00    -0.266 OA
HETATM    4  C   UNL     1     -41.195  54.969 -52.790  1.00  0.00     0.055 A 
HETATM    5  C   UNL     1     -42.356  55.382 -52.119  1.00  0.00     0.026 A 
HETATM    6  N   UNL     1     -43.126  56.448 -52.617  1.00  0.00    -0.265 NA
HETATM    7  C   UNL     1     -42.329  57.513 -53.244  1.00  0.00     0.222 C 
HETATM    8  C   UNL     1     -40.450  53.873 -52.351  1.00  0.00     0.019 A 
HETATM    9  C   UNL     1     -40.872  53.169 -51.225  1.00  0.00     0.001 A 
HETATM   10  C   UNL     1     -42.046  53.543 -50.570  1.00  0.00     0.002 A 
HETATM   11  C   UNL     1     -42.794  54.633 -51.025  1.00  0.00     0.024 A 
HETATM   12  H   UNL     1     -43.815  56.801 -51.966  1.00  0.00     0.130 HD
ENDROOT
BRANCH   7  13
HETATM   13  C   UNL     1     -41.515  58.307 -52.205  1.00  0.00    -0.017 A 
HETATM   14  C   UNL     1     -40.137  58.542 -52.382  1.00  0.00     0.047 A 
HETATM   15  C   UNL     1     -39.414  59.284 -51.449  1.00  0.00     0.066 A 
HETATM   16  C   UNL     1     -40.026  59.808 -50.321  1.00  0.00     0.036 A 
HETATM   17  C   UNL     1     -41.389  59.612 -50.134  1.00  0.00     0.003 A 
HETATM   18  C   UNL     1     -42.127  58.884 -51.072  1.00  0.00     0.011 A 
BRANCH  15  19
HETATM   19  O   UNL     1     -38.081  59.527 -51.614  1.00  0.00    -0.361 OA
HETATM   20  H   UNL     1     -37.851  60.338 -51.132  1.00  0.00     0.217 HD
ENDBRANCH  15  19
ENDBRANCH   7  13
BRANCH   1  21
HETATM   21  N   UNL     1     -41.838  57.140 -55.695  1.00  0.00    -0.220 N 
HETATM   22  H   UNL     1     -41.759  58.138 -55.937  1.00  0.00     0.200 HD
BRANCH  21  23
HETATM   23  S   UNL     1     -43.178  56.408 -56.417  1.00  0.00     0.240 S 
HETATM   24  C   UNL     1     -44.331  57.765 -56.422  1.00  0.00     0.187 C 
HETATM   25  O   UNL     1     -43.688  55.381 -55.536  1.00  0.00    -0.205 OA
HETATM   26  O   UNL     1     -42.823  56.122 -57.789  1.00  0.00    -0.205 OA
ENDBRANCH  21  23
ENDBRANCH   1  21
TORSDOF 4
ENDMDL
MODEL 6
REMARK VINA RESULT:      -6.8     16.384     18.268
REMARK  4 active torsions:
REMARK  status: ('A' for Active; 'I' for Inactive)
REMARK    1  A    between atoms: S_2  and  N_3 
REMARK    2  A    between atoms: N_3  and  N_4 
REMARK    3  A    between atoms: C_10  and  C_11 
REMARK    4  A    between atoms: C_13  and  O_14 
ROOT
HETATM    1  N   UNL     1     -33.732  40.000 -56.605  1.00  0.00    -0.224 N 
HETATM    2  C   UNL     1     -34.476  39.291 -57.535  1.00  0.00     0.276 C 
HETATM    3  O   UNL     1     -34.108  38.203 -57.979  1.00  0.00    -0.266 OA
HETATM    4  C   UNL     1     -35.695  39.957 -58.035  1.00  0.00     0.055 A 
HETATM    5  C   UNL     1     -35.797  41.341 -57.835  1.00  0.00     0.026 A 
HETATM    6  N   UNL     1     -34.796  42.035 -57.131  1.00  0.00    -0.265 NA
HETATM    7  C   UNL     1     -34.205  41.265 -56.027  1.00  0.00     0.222 C 
HETATM    8  C   UNL     1     -36.642  39.256 -58.784  1.00  0.00     0.019 A 
HETATM    9  C   UNL     1     -37.710  39.949 -59.353  1.00  0.00     0.001 A 
HETATM   10  C   UNL     1     -37.804  41.332 -59.196  1.00  0.00     0.002 A 
HETATM   11  C   UNL     1     -36.843  42.028 -58.456  1.00  0.00     0.024 A 
HETATM   12  H   UNL     1     -35.056  42.976 -56.863  1.00  0.00     0.130 HD
ENDROOT
BRANCH   7  13
HETATM   13  C   UNL     1     -35.195  41.081 -54.862  1.00  0.00    -0.017 A 
HETATM   14  C   UNL     1     -35.475  39.804 -54.337  1.00  0.00     0.047 A 
HETATM   15  C   UNL     1     -36.353  39.650 -53.265  1.00  0.00     0.066 A 
HETATM   16  C   UNL     1     -36.976  40.745 -52.687  1.00  0.00     0.036 A 
HETATM   17  C   UNL     1     -36.699  42.019 -53.168  1.00  0.00     0.003 A 
HETATM   18  C   UNL     1     -35.807  42.186 -54.232  1.00  0.00     0.011 A 
BRANCH  15  19
HETATM   19  O   UNL     1     -36.626  38.420 -52.741  1.00  0.00    -0.361 OA
HETATM   20  H   UNL     1     -36.726  38.505 -51.780  1.00  0.00     0.217 HD
ENDBRANCH  15  19
ENDBRANCH   7  13
BRANCH   1  21
HETATM   21  N   UNL     1     -32.263  39.796 -56.707  1.00  0.00    -0.220 N 
HETATM   22  H   UNL     1     -31.992  39.295 -57.565  1.00  0.00     0.200 HD
BRANCH  21  23
HETATM   23  S   UNL     1     -31.370  39.297 -55.363  1.00  0.00     0.240 S 
HETATM   24  C   UNL     1     -32.218  37.789 -54.944  1.00  0.00     0.187 C 
HETATM   25  O   UNL     1     -31.565  40.243 -54.287  1.00  0.00    -0.205 OA
HETATM   26  O   UNL     1     -30.049  38.947 -55.833  1.00  0.00    -0.205 OA
ENDBRANCH  21  23
ENDBRANCH   1  21
TORSDOF 4
ENDMDL
MODEL 7
REMARK VINA RESULT:      -6.7      2.920      5.011
REMARK  4 active torsions:
REMARK  status: ('A' for Active; 'I' for Inactive)
REMARK    1  A    between atoms: S_2  and  N_3 
REMARK    2  A    between atoms: N_3  and  N_4 
REMARK    3  A    between atoms: C_10  and  C_11 
REMARK    4  A    between atoms: C_13  and  O_14 
ROOT
HETATM    1  N   UNL     1     -42.832  57.432 -51.498  1.00  0.00    -0.224 N 
HETATM    2  C   UNL     1     -42.379  57.693 -52.782  1.00  0.00     0.276 C 
HETATM    3  O   UNL     1     -41.980  58.807 -53.123  1.00  0.00    -0.266 OA
HETATM    4  C   UNL     1     -42.485  56.582 -53.747  1.00  0.00     0.055 A 
HETATM    5  C   UNL     1     -43.347  55.526 -53.416  1.00  0.00     0.026 A 
HETATM    6  N   UNL     1     -44.025  55.519 -52.184  1.00  0.00    -0.265 NA
HETATM    7  C   UNL     1     -43.245  56.087 -51.075  1.00  0.00     0.222 C 
HETATM    8  C   UNL     1     -41.851  56.644 -54.990  1.00  0.00     0.019 A 
HETATM    9  C   UNL     1     -42.085  55.638 -55.925  1.00  0.00     0.001 A 
HETATM   10  C   UNL     1     -42.970  54.602 -55.626  1.00  0.00     0.002 A 
HETATM   11  C   UNL     1     -43.612  54.555 -54.385  1.00  0.00     0.024 A 
HETATM   12  H   UNL     1     -44.453  54.632 -51.953  1.00  0.00     0.130 HD
ENDROOT
BRANCH   7  13
HETATM   13  C   UNL     1     -42.069  55.176 -50.675  1.00  0.00    -0.017 A 
HETATM   14  C   UNL     1     -41.691  54.080 -51.475  1.00  0.00     0.047 A 
HETATM   15  C   UNL     1     -40.608  53.276 -51.120  1.00  0.00     0.066 A 
HETATM   16  C   UNL     1     -39.876  53.529 -49.971  1.00  0.00     0.036 A 
HETATM   17  C   UNL     1     -40.211  54.619 -49.176  1.00  0.00     0.003 A 
HETATM   18  C   UNL     1     -41.284  55.441 -49.533  1.00  0.00     0.011 A 
BRANCH  15  19
HETATM   19  O   UNL     1     -40.226  52.217 -51.891  1.00  0.00    -0.361 OA
HETATM   20  H   UNL     1     -40.369  51.399 -51.389  1.00  0.00     0.217 HD
ENDBRANCH  15  19
ENDBRANCH   7  13
BRANCH   1  21
HETATM   21  N   UNL     1     -43.469  58.592 -50.822  1.00  0.00    -0.220 N 
HETATM   22  H   UNL     1     -43.219  58.655 -49.825  1.00  0.00     0.200 HD
BRANCH  21  23
HETATM   23  S   UNL     1     -45.092  58.965 -51.102  1.00  0.00     0.240 S 
HETATM   24  C   UNL     1     -45.363  60.211 -49.859  1.00  0.00     0.187 C 
HETATM   25  O   UNL     1     -45.905  57.814 -50.777  1.00  0.00    -0.205 OA
HETATM   26  O   UNL     1     -45.168  59.605 -52.396  1.00  0.00    -0.205 OA
ENDBRANCH  21  23
ENDBRANCH   1  21
TORSDOF 4
ENDMDL
MODEL 8
REMARK VINA RESULT:      -6.6     15.948     18.226
REMARK  4 active torsions:
REMARK  status: ('A' for Active; 'I' for Inactive)
REMARK    1  A    between atoms: S_2  and  N_3 
REMARK    2  A    between atoms: N_3  and  N_4 
REMARK    3  A    between atoms: C_10  and  C_11 
REMARK    4  A    between atoms: C_13  and  O_14 
ROOT
HETATM    1  N   UNL     1     -36.322  40.431 -55.429  1.00  0.00    -0.224 N 
HETATM    2  C   UNL     1     -36.643  41.492 -56.263  1.00  0.00     0.276 C 
HETATM    3  O   UNL     1     -36.811  42.634 -55.835  1.00  0.00    -0.266 OA
HETATM    4  C   UNL     1     -36.861  41.160 -57.684  1.00  0.00     0.055 A 
HETATM    5  C   UNL     1     -37.097  39.813 -57.998  1.00  0.00     0.026 A 
HETATM    6  N   UNL     1     -37.062  38.830 -56.993  1.00  0.00    -0.265 NA
HETATM    7  C   UNL     1     -36.057  39.083 -55.950  1.00  0.00     0.222 C 
HETATM    8  C   UNL     1     -36.953  42.162 -58.652  1.00  0.00     0.019 A 
HETATM    9  C   UNL     1     -37.294  41.818 -59.959  1.00  0.00     0.001 A 
HETATM   10  C   UNL     1     -37.570  40.488 -60.278  1.00  0.00     0.002 A 
HETATM   11  C   UNL     1     -37.490  39.493 -59.299  1.00  0.00     0.024 A 
HETATM   12  H   UNL     1     -37.039  37.881 -57.343  1.00  0.00     0.130 HD
ENDROOT
BRANCH   7  13
HETATM   13  C   UNL     1     -34.623  38.896 -56.479  1.00  0.00    -0.017 A 
HETATM   14  C   UNL     1     -33.578  39.749 -56.074  1.00  0.00     0.047 A 
HETATM   15  C   UNL     1     -32.277  39.557 -56.538  1.00  0.00     0.066 A 
HETATM   16  C   UNL     1     -31.975  38.524 -57.412  1.00  0.00     0.036 A 
HETATM   17  C   UNL     1     -32.982  37.652 -57.809  1.00  0.00     0.003 A 
HETATM   18  C   UNL     1     -34.286  37.827 -57.336  1.00  0.00     0.011 A 
BRANCH  15  19
HETATM   19  O   UNL     1     -31.254  40.370 -56.145  1.00  0.00    -0.361 OA
HETATM   20  H   UNL     1     -30.457  39.831 -56.021  1.00  0.00     0.217 HD
ENDBRANCH  15  19
ENDBRANCH   7  13
BRANCH   1  21
HETATM   21  N   UNL     1     -36.870  40.542 -54.053  1.00  0.00    -0.220 N 
HETATM   22  H   UNL     1     -37.810  40.962 -54.033  1.00  0.00     0.200 HD
BRANCH  21  23
HETATM   23  S   UNL     1     -35.898  41.084 -52.782  1.00  0.00     0.240 S 
HETATM   24  C   UNL     1     -36.771  40.407 -51.387  1.00  0.00     0.187 C 
HETATM   25  O   UNL     1     -35.973  42.526 -52.710  1.00  0.00    -0.205 OA
HETATM   26  O   UNL     1     -34.631  40.397 -52.889  1.00  0.00    -0.205 OA
ENDBRANCH  21  23
ENDBRANCH   1  21
TORSDOF 4
ENDMDL
MODEL 9
REMARK VINA RESULT:      -6.5      3.225      5.224
REMARK  4 active torsions:
REMARK  status: ('A' for Active; 'I' for Inactive)
REMARK    1  A    between atoms: S_2  and  N_3 
REMARK    2  A    between atoms: N_3  and  N_4 
REMARK    3  A    between atoms: C_10  and  C_11 
REMARK    4  A    between atoms: C_13  and  O_14 
ROOT
HETATM    1  N   UNL     1     -43.476  57.939 -52.187  1.00  0.00    -0.224 N 
HETATM    2  C   UNL     1     -43.549  56.578 -51.931  1.00  0.00     0.276 C 
HETATM    3  O   UNL     1     -44.269  56.116 -51.046  1.00  0.00    -0.266 OA
HETATM    4  C   UNL     1     -42.645  55.719 -52.719  1.00  0.00     0.055 A 
HETATM    5  C   UNL     1     -41.562  56.343 -53.357  1.00  0.00     0.026 A 
HETATM    6  N   UNL     1     -41.400  57.738 -53.284  1.00  0.00    -0.265 NA
HETATM    7  C   UNL     1     -42.668  58.484 -53.286  1.00  0.00     0.222 C 
HETATM    8  C   UNL     1     -42.792  54.331 -52.723  1.00  0.00     0.019 A 
HETATM    9  C   UNL     1     -41.838  53.546 -53.368  1.00  0.00     0.001 A 
HETATM   10  C   UNL     1     -40.735  54.149 -53.974  1.00  0.00     0.002 A 
HETATM   11  C   UNL     1     -40.588  55.539 -53.953  1.00  0.00     0.024 A 
HETATM   12  H   UNL     1     -40.721  58.110 -53.936  1.00  0.00     0.130 HD
ENDROOT
BRANCH   7  13
HETATM   13  C   UNL     1     -43.366  58.422 -54.657  1.00  0.00    -0.017 A 
HETATM   14  C   UNL     1     -44.720  58.049 -54.771  1.00  0.00     0.047 A 
HETATM   15  C   UNL     1     -45.352  58.021 -56.014  1.00  0.00     0.066 A 
HETATM   16  C   UNL     1     -44.668  58.357 -57.171  1.00  0.00     0.036 A 
HETATM   17  C   UNL     1     -43.339  58.753 -57.086  1.00  0.00     0.003 A 
HETATM   18  C   UNL     1     -42.701  58.800 -55.843  1.00  0.00     0.011 A 
BRANCH  15  19
HETATM   19  O   UNL     1     -46.665  57.670 -56.136  1.00  0.00    -0.361 OA
HETATM   20  H   UNL     1     -46.859  57.511 -57.073  1.00  0.00     0.217 HD
ENDBRANCH  15  19
ENDBRANCH   7  13
BRANCH   1  21
HETATM   21  N   UNL     1     -43.691  58.803 -50.997  1.00  0.00    -0.220 N 
HETATM   22  H   UNL     1     -43.366  58.362 -50.125  1.00  0.00     0.200 HD
BRANCH  21  23
HETATM   23  S   UNL     1     -45.145  59.637 -50.792  1.00  0.00     0.240 S 
HETATM   24  C   UNL     1     -44.617  60.962 -49.725  1.00  0.00     0.187 C 
HETATM   25  O   UNL     1     -46.070  58.803 -50.058  1.00  0.00    -0.205 OA
HETATM   26  O   UNL     1     -45.494  60.210 -52.072  1.00  0.00    -0.205 OA
ENDBRANCH  21  23
ENDBRANCH   1  21
TORSDOF 4
ENDMDL
MODEL 10
REMARK VINA RESULT:      -6.5      2.214      2.735
REMARK  4 active torsions:
REMARK  status: ('A' for Active; 'I' for Inactive)
REMARK    1  A    between atoms: S_2  and  N_3 
REMARK    2  A    between atoms: N_3  and  N_4 
REMARK    3  A    between atoms: C_10  and  C_11 
REMARK    4  A    between atoms: C_13  and  O_14 
ROOT
HETATM    1  N   UNL     1     -44.087  57.146 -56.263  1.00  0.00    -0.224 N 
HETATM    2  C   UNL     1     -43.066  56.250 -56.544  1.00  0.00     0.276 C 
HETATM    3  O   UNL     1     -42.612  56.110 -57.680  1.00  0.00    -0.266 OA
HETATM    4  C   UNL     1     -42.613  55.407 -55.421  1.00  0.00     0.055 A 
HETATM    5  C   UNL     1     -43.466  55.306 -54.311  1.00  0.00     0.026 A 
HETATM    6  N   UNL     1     -44.668  56.034 -54.267  1.00  0.00    -0.265 NA
HETATM    7  C   UNL     1     -44.581  57.361 -54.896  1.00  0.00     0.222 C 
HETATM    8  C   UNL     1     -41.447  54.646 -55.517  1.00  0.00     0.019 A 
HETATM    9  C   UNL     1     -41.125  53.759 -54.490  1.00  0.00     0.001 A 
HETATM   10  C   UNL     1     -41.983  53.618 -53.399  1.00  0.00     0.002 A 
HETATM   11  C   UNL     1     -43.157  54.374 -53.318  1.00  0.00     0.024 A 
HETATM   12  H   UNL     1     -45.105  56.056 -53.355  1.00  0.00     0.130 HD
ENDROOT
BRANCH   7  13
HETATM   13  C   UNL     1     -43.715  58.330 -54.070  1.00  0.00    -0.017 A 
HETATM   14  C   UNL     1     -43.885  58.454 -52.677  1.00  0.00     0.047 A 
HETATM   15  C   UNL     1     -43.079  59.315 -51.933  1.00  0.00     0.066 A 
HETATM   16  C   UNL     1     -42.092  60.075 -52.540  1.00  0.00     0.036 A 
HETATM   17  C   UNL     1     -41.886  59.954 -53.909  1.00  0.00     0.003 A 
HETATM   18  C   UNL     1     -42.677  59.081 -54.662  1.00  0.00     0.011 A 
BRANCH  15  19
HETATM   19  O   UNL     1     -43.227  59.437 -50.581  1.00  0.00    -0.361 OA
HETATM   20  H   UNL     1     -42.733  60.217 -50.283  1.00  0.00     0.217 HD
ENDBRANCH  15  19
ENDBRANCH   7  13
BRANCH   1  21
HETATM   21  N   UNL     1     -45.039  57.367 -57.382  1.00  0.00    -0.220 N 
HETATM   22  H   UNL     1     -45.203  56.514 -57.935  1.00  0.00     0.200 HD
BRANCH  21  23
HETATM   23  S   UNL     1     -44.923  58.747 -58.348  1.00  0.00     0.240 S 
HETATM   24  C   UNL     1     -44.740  58.008 -59.958  1.00  0.00     0.187 C 
HETATM   25  O   UNL     1     -43.700  59.449 -58.028  1.00  0.00    -0.205 OA
HETATM   26  O   UNL     1     -46.209  59.407 -58.307  1.00  0.00    -0.205 OA
ENDBRANCH  21  23
ENDBRANCH   1  21
TORSDOF 4
ENDMDL
