MODEL 1
REMARK VINA RESULT:      -8.8      0.000      0.000
REMARK  6 active torsions:
REMARK  status: ('A' for Active; 'I' for Inactive)
REMARK    1  A    between atoms: O_2  and  C_3 
REMARK    2  A    between atoms: C_6  and  N_7 
REMARK       I    between atoms: N_7  and  C_8 
REMARK       I    between atoms: C_8  and  N_9 
REMARK    3  A    between atoms: N_9  and  C_10 
REMARK    4  A    between atoms: C_10  and  C_11 
REMARK       I    between atoms: C_11  and  N_12 
REMARK    5  A    between atoms: N_12  and  N_13 
REMARK       I    between atoms: N_13  and  C_14 
REMARK       I    between atoms: C_14  and  N_15 
REMARK    6  A    between atoms: N_15  and  C_16 
ROOT
HETATM    1  C   UNL     1     -42.811  56.814 -58.366  1.00  0.00     0.253 C 
HETATM    2  N   UNL     1     -42.466  56.224 -57.165  1.00  0.00    -0.265 N 
HETATM    3  O   UNL     1     -43.524  56.258 -59.201  1.00  0.00    -0.270 OA
HETATM    4  H   UNL     1     -42.015  56.794 -56.446  1.00  0.00     0.190 HD
ENDROOT
BRANCH   2   5
HETATM    5  N   UNL     1     -43.154  55.052 -56.790  1.00  0.00    -0.249 N 
HETATM    6  C   UNL     1     -42.984  54.516 -55.524  1.00  0.00     0.339 C 
HETATM    7  N   UNL     1     -41.710  54.661 -55.022  1.00  0.00    -0.307 N 
HETATM    8  O   UNL     1     -43.928  53.949 -54.983  1.00  0.00    -0.245 OA
HETATM    9  H   UNL     1     -41.015  54.829 -55.729  1.00  0.00     0.170 HD
HETATM   10  H   UNL     1     -44.137  55.048 -57.070  1.00  0.00     0.192 HD
BRANCH   7  11
HETATM   11  C   UNL     1     -41.250  54.318 -53.723  1.00  0.00     0.047 A 
HETATM   12  C   UNL     1     -40.657  53.036 -53.489  1.00  0.00     0.001 A 
HETATM   13  C   UNL     1     -40.215  52.725 -52.175  1.00  0.00    -0.024 A 
HETATM   14  C   UNL     1     -40.484  52.028 -54.474  1.00  0.00     0.014 A 
HETATM   15  C   UNL     1     -39.649  51.471 -51.890  1.00  0.00     0.012 A 
HETATM   16  C   UNL     1     -40.342  53.666 -51.146  1.00  0.00     0.012 A 
HETATM   17  C   UNL     1     -39.504  50.504 -52.881  1.00  0.00     0.001 A 
HETATM   18  C   UNL     1     -39.920  50.784 -54.174  1.00  0.00     0.001 A 
HETATM   19  C   UNL     1     -40.900  54.914 -51.390  1.00  0.00     0.003 A 
HETATM   20  C   UNL     1     -41.348  55.236 -52.668  1.00  0.00     0.030 A 
ENDBRANCH   7  11
ENDBRANCH   2   5
BRANCH   1  21
HETATM   21  C   UNL     1     -42.392  58.282 -58.493  1.00  0.00     0.228 C 
BRANCH  21  22
HETATM   22  N   UNL     1     -42.626  59.127 -57.335  1.00  0.00    -0.334 N 
HETATM   23  C   UNL     1     -41.857  60.200 -57.017  1.00  0.00     0.321 C 
HETATM   24  N   UNL     1     -42.072  60.769 -55.798  1.00  0.00    -0.309 N 
HETATM   25  O   UNL     1     -41.065  60.698 -57.817  1.00  0.00    -0.247 OA
HETATM   26  H   UNL     1     -41.697  61.707 -55.732  1.00  0.00     0.170 HD
HETATM   27  H   UNL     1     -43.531  59.081 -56.883  1.00  0.00     0.164 HD
BRANCH  24  28
HETATM   28  C   UNL     1     -42.470  60.182 -54.578  1.00  0.00     0.036 A 
HETATM   29  C   UNL     1     -43.798  60.100 -54.150  1.00  0.00     0.032 A 
HETATM   30  C   UNL     1     -44.132  59.405 -52.979  1.00  0.00     0.039 A 
HETATM   31  C   UNL     1     -43.142  58.775 -52.230  1.00  0.00     0.068 A 
HETATM   32  C   UNL     1     -41.813  58.877 -52.638  1.00  0.00     0.039 A 
HETATM   33  C   UNL     1     -41.479  59.562 -53.811  1.00  0.00     0.032 A 
BRANCH  31  34
HETATM   34  O   UNL     1     -43.348  58.045 -51.093  1.00  0.00    -0.356 OA
HETATM   35  C   UNL     1     -44.376  57.061 -51.157  1.00  0.00     0.210 C 
ENDBRANCH  31  34
ENDBRANCH  24  28
ENDBRANCH  21  22
ENDBRANCH   1  21
TORSDOF 6
ENDMDL
MODEL 2
REMARK VINA RESULT:      -8.7      2.107      2.589
REMARK  6 active torsions:
REMARK  status: ('A' for Active; 'I' for Inactive)
REMARK    1  A    between atoms: O_2  and  C_3 
REMARK    2  A    between atoms: C_6  and  N_7 
REMARK       I    between atoms: N_7  and  C_8 
REMARK       I    between atoms: C_8  and  N_9 
REMARK    3  A    between atoms: N_9  and  C_10 
REMARK    4  A    between atoms: C_10  and  C_11 
REMARK       I    between atoms: C_11  and  N_12 
REMARK    5  A    between atoms: N_12  and  N_13 
REMARK       I    between atoms: N_13  and  C_14 
REMARK       I    between atoms: C_14  and  N_15 
REMARK    6  A    between atoms: N_15  and  C_16 
ROOT
HETATM    1  C   UNL     1     -42.874  57.864 -56.351  1.00  0.00     0.253 C 
HETATM    2  N   UNL     1     -41.989  56.835 -56.607  1.00  0.00    -0.265 N 
HETATM    3  O   UNL     1     -44.094  57.704 -56.325  1.00  0.00    -0.270 OA
HETATM    4  H   UNL     1     -40.991  56.990 -56.450  1.00  0.00     0.190 HD
ENDROOT
BRANCH   2   5
HETATM    5  N   UNL     1     -42.496  55.518 -56.598  1.00  0.00    -0.249 N 
HETATM    6  C   UNL     1     -42.440  54.757 -55.442  1.00  0.00     0.339 C 
HETATM    7  N   UNL     1     -41.319  54.983 -54.676  1.00  0.00    -0.307 N 
HETATM    8  O   UNL     1     -43.336  53.950 -55.214  1.00  0.00    -0.245 OA
HETATM    9  H   UNL     1     -40.560  55.402 -55.186  1.00  0.00     0.170 HD
HETATM   10  H   UNL     1     -43.399  55.426 -57.066  1.00  0.00     0.192 HD
BRANCH   7  11
HETATM   11  C   UNL     1     -41.025  54.444 -53.395  1.00  0.00     0.047 A 
HETATM   12  C   UNL     1     -40.507  53.114 -53.280  1.00  0.00     0.001 A 
HETATM   13  C   UNL     1     -40.232  52.606 -51.982  1.00  0.00    -0.024 A 
HETATM   14  C   UNL     1     -40.254  52.243 -54.372  1.00  0.00     0.014 A 
HETATM   15  C   UNL     1     -39.745  51.298 -51.815  1.00  0.00     0.012 A 
HETATM   16  C   UNL     1     -40.446  53.403 -50.851  1.00  0.00     0.012 A 
HETATM   17  C   UNL     1     -39.519  50.469 -52.911  1.00  0.00     0.001 A 
HETATM   18  C   UNL     1     -39.772  50.943 -54.190  1.00  0.00     0.001 A 
HETATM   19  C   UNL     1     -40.930  54.700 -50.977  1.00  0.00     0.003 A 
HETATM   20  C   UNL     1     -41.215  55.214 -52.239  1.00  0.00     0.030 A 
ENDBRANCH   7  11
ENDBRANCH   2   5
BRANCH   1  21
HETATM   21  C   UNL     1     -42.211  59.175 -55.917  1.00  0.00     0.228 C 
BRANCH  21  22
HETATM   22  N   UNL     1     -42.191  59.451 -54.490  1.00  0.00    -0.334 N 
HETATM   23  C   UNL     1     -41.498  58.710 -53.588  1.00  0.00     0.321 C 
HETATM   24  N   UNL     1     -41.738  58.965 -52.272  1.00  0.00    -0.309 N 
HETATM   25  O   UNL     1     -40.628  57.908 -53.930  1.00  0.00    -0.247 OA
HETATM   26  H   UNL     1     -41.010  58.609 -51.665  1.00  0.00     0.170 HD
HETATM   27  H   UNL     1     -42.490  60.366 -54.175  1.00  0.00     0.164 HD
BRANCH  24  28
HETATM   28  C   UNL     1     -42.922  59.381 -51.628  1.00  0.00     0.036 A 
HETATM   29  C   UNL     1     -44.098  58.626 -51.597  1.00  0.00     0.032 A 
HETATM   30  C   UNL     1     -45.202  59.051 -50.844  1.00  0.00     0.039 A 
HETATM   31  C   UNL     1     -45.138  60.229 -50.106  1.00  0.00     0.068 A 
HETATM   32  C   UNL     1     -43.977  60.999 -50.155  1.00  0.00     0.039 A 
HETATM   33  C   UNL     1     -42.871  60.572 -50.898  1.00  0.00     0.032 A 
BRANCH  31  34
HETATM   34  O   UNL     1     -46.134  60.727 -49.313  1.00  0.00    -0.356 OA
HETATM   35  C   UNL     1     -46.248  62.145 -49.264  1.00  0.00     0.210 C 
ENDBRANCH  31  34
ENDBRANCH  24  28
ENDBRANCH  21  22
ENDBRANCH   1  21
TORSDOF 6
ENDMDL
MODEL 3
REMARK VINA RESULT:      -8.5      2.338      3.420
REMARK  6 active torsions:
REMARK  status: ('A' for Active; 'I' for Inactive)
REMARK    1  A    between atoms: O_2  and  C_3 
REMARK    2  A    between atoms: C_6  and  N_7 
REMARK       I    between atoms: N_7  and  C_8 
REMARK       I    between atoms: C_8  and  N_9 
REMARK    3  A    between atoms: N_9  and  C_10 
REMARK    4  A    between atoms: C_10  and  C_11 
REMARK       I    between atoms: C_11  and  N_12 
REMARK    5  A    between atoms: N_12  and  N_13 
REMARK       I    between atoms: N_13  and  C_14 
REMARK       I    between atoms: C_14  and  N_15 
REMARK    6  A    between atoms: N_15  and  C_16 
ROOT
HETATM    1  C   UNL     1     -43.014  58.191 -56.010  1.00  0.00     0.253 C 
HETATM    2  N   UNL     1     -42.401  57.008 -56.376  1.00  0.00    -0.265 N 
HETATM    3  O   UNL     1     -44.229  58.287 -55.841  1.00  0.00    -0.270 OA
HETATM    4  H   UNL     1     -41.381  56.947 -56.338  1.00  0.00     0.190 HD
ENDROOT
BRANCH   2   5
HETATM    5  N   UNL     1     -43.169  55.826 -56.315  1.00  0.00    -0.249 N 
HETATM    6  C   UNL     1     -42.893  54.863 -55.358  1.00  0.00     0.339 C 
HETATM    7  N   UNL     1     -41.555  54.735 -55.063  1.00  0.00    -0.307 N 
HETATM    8  O   UNL     1     -43.816  54.202 -54.892  1.00  0.00    -0.245 OA
HETATM    9  H   UNL     1     -40.948  55.099 -55.777  1.00  0.00     0.170 HD
HETATM   10  H   UNL     1     -44.173  55.988 -56.406  1.00  0.00     0.192 HD
BRANCH   7  11
HETATM   11  C   UNL     1     -40.966  53.920 -54.059  1.00  0.00     0.047 A 
HETATM   12  C   UNL     1     -40.897  54.389 -52.707  1.00  0.00     0.001 A 
HETATM   13  C   UNL     1     -40.296  53.549 -51.730  1.00  0.00    -0.024 A 
HETATM   14  C   UNL     1     -41.374  55.648 -52.257  1.00  0.00     0.014 A 
HETATM   15  C   UNL     1     -40.181  53.974 -50.396  1.00  0.00     0.012 A 
HETATM   16  C   UNL     1     -39.805  52.288 -52.090  1.00  0.00     0.012 A 
HETATM   17  C   UNL     1     -40.653  55.221 -49.995  1.00  0.00     0.001 A 
HETATM   18  C   UNL     1     -41.252  56.057 -50.925  1.00  0.00     0.001 A 
HETATM   19  C   UNL     1     -39.897  51.836 -53.400  1.00  0.00     0.003 A 
HETATM   20  C   UNL     1     -40.475  52.646 -54.374  1.00  0.00     0.030 A 
ENDBRANCH   7  11
ENDBRANCH   2   5
BRANCH   1  21
HETATM   21  C   UNL     1     -42.044  59.320 -55.650  1.00  0.00     0.228 C 
BRANCH  21  22
HETATM   22  N   UNL     1     -42.073  59.788 -54.274  1.00  0.00    -0.334 N 
HETATM   23  C   UNL     1     -41.222  59.348 -53.311  1.00  0.00     0.321 C 
HETATM   24  N   UNL     1     -41.501  59.722 -52.031  1.00  0.00    -0.309 N 
HETATM   25  O   UNL     1     -40.199  58.720 -53.579  1.00  0.00    -0.247 OA
HETATM   26  H   UNL     1     -40.706  59.623 -51.412  1.00  0.00     0.170 HD
HETATM   27  H   UNL     1     -42.568  60.648 -54.071  1.00  0.00     0.164 HD
BRANCH  24  28
HETATM   28  C   UNL     1     -42.743  59.950 -51.400  1.00  0.00     0.036 A 
HETATM   29  C   UNL     1     -43.806  59.044 -51.425  1.00  0.00     0.032 A 
HETATM   30  C   UNL     1     -44.972  59.287 -50.684  1.00  0.00     0.039 A 
HETATM   31  C   UNL     1     -45.080  60.433 -49.901  1.00  0.00     0.068 A 
HETATM   32  C   UNL     1     -44.033  61.353 -49.895  1.00  0.00     0.039 A 
HETATM   33  C   UNL     1     -42.866  61.108 -50.627  1.00  0.00     0.032 A 
BRANCH  31  34
HETATM   34  O   UNL     1     -46.148  60.761 -49.114  1.00  0.00    -0.356 OA
HETATM   35  C   UNL     1     -45.859  61.531 -47.951  1.00  0.00     0.210 C 
ENDBRANCH  31  34
ENDBRANCH  24  28
ENDBRANCH  21  22
ENDBRANCH   1  21
TORSDOF 6
ENDMDL
MODEL 4
REMARK VINA RESULT:      -8.4      2.474      5.400
REMARK  6 active torsions:
REMARK  status: ('A' for Active; 'I' for Inactive)
REMARK    1  A    between atoms: O_2  and  C_3 
REMARK    2  A    between atoms: C_6  and  N_7 
REMARK       I    between atoms: N_7  and  C_8 
REMARK       I    between atoms: C_8  and  N_9 
REMARK    3  A    between atoms: N_9  and  C_10 
REMARK    4  A    between atoms: C_10  and  C_11 
REMARK       I    between atoms: C_11  and  N_12 
REMARK    5  A    between atoms: N_12  and  N_13 
REMARK       I    between atoms: N_13  and  C_14 
REMARK       I    between atoms: C_14  and  N_15 
REMARK    6  A    between atoms: N_15  and  C_16 
ROOT
HETATM    1  C   UNL     1     -43.849  59.448 -52.127  1.00  0.00     0.253 C 
HETATM    2  N   UNL     1     -43.636  58.452 -51.193  1.00  0.00    -0.265 N 
HETATM    3  O   UNL     1     -43.003  60.300 -52.396  1.00  0.00    -0.270 OA
HETATM    4  H   UNL     1     -44.303  57.680 -51.133  1.00  0.00     0.190 HD
ENDROOT
BRANCH   2   5
HETATM    5  N   UNL     1     -42.320  58.270 -50.718  1.00  0.00    -0.249 N 
HETATM    6  C   UNL     1     -41.436  57.456 -51.407  1.00  0.00     0.339 C 
HETATM    7  N   UNL     1     -42.026  56.363 -51.999  1.00  0.00    -0.307 N 
HETATM    8  O   UNL     1     -40.241  57.740 -51.409  1.00  0.00    -0.245 OA
HETATM    9  H   UNL     1     -42.917  56.122 -51.602  1.00  0.00     0.170 HD
HETATM   10  H   UNL     1     -41.874  59.136 -50.412  1.00  0.00     0.192 HD
BRANCH   7  11
HETATM   11  C   UNL     1     -41.414  55.410 -52.856  1.00  0.00     0.047 A 
HETATM   12  C   UNL     1     -40.932  54.172 -52.320  1.00  0.00     0.001 A 
HETATM   13  C   UNL     1     -40.319  53.245 -53.206  1.00  0.00    -0.024 A 
HETATM   14  C   UNL     1     -41.006  53.794 -50.953  1.00  0.00     0.014 A 
HETATM   15  C   UNL     1     -39.808  52.028 -52.724  1.00  0.00     0.012 A 
HETATM   16  C   UNL     1     -40.212  53.538 -54.571  1.00  0.00     0.012 A 
HETATM   17  C   UNL     1     -39.891  51.696 -51.375  1.00  0.00     0.001 A 
HETATM   18  C   UNL     1     -40.491  52.579 -50.490  1.00  0.00     0.001 A 
HETATM   19  C   UNL     1     -40.702  54.733 -55.082  1.00  0.00     0.003 A 
HETATM   20  C   UNL     1     -41.299  55.659 -54.230  1.00  0.00     0.030 A 
ENDBRANCH   7  11
ENDBRANCH   2   5
BRANCH   1  21
HETATM   21  C   UNL     1     -45.143  59.295 -52.931  1.00  0.00     0.228 C 
BRANCH  21  22
HETATM   22  N   UNL     1     -45.029  58.655 -54.230  1.00  0.00    -0.334 N 
HETATM   23  C   UNL     1     -44.650  57.362 -54.403  1.00  0.00     0.321 C 
HETATM   24  N   UNL     1     -44.392  56.965 -55.680  1.00  0.00    -0.309 N 
HETATM   25  O   UNL     1     -44.626  56.557 -53.472  1.00  0.00    -0.247 OA
HETATM   26  H   UNL     1     -44.402  55.958 -55.787  1.00  0.00     0.170 HD
HETATM   27  H   UNL     1     -45.483  59.093 -55.022  1.00  0.00     0.164 HD
BRANCH  24  28
HETATM   28  C   UNL     1     -43.861  57.690 -56.768  1.00  0.00     0.036 A 
HETATM   29  C   UNL     1     -42.502  57.976 -56.925  1.00  0.00     0.032 A 
HETATM   30  C   UNL     1     -42.031  58.605 -58.086  1.00  0.00     0.039 A 
HETATM   31  C   UNL     1     -42.913  58.944 -59.108  1.00  0.00     0.068 A 
HETATM   32  C   UNL     1     -44.274  58.686 -58.945  1.00  0.00     0.039 A 
HETATM   33  C   UNL     1     -44.744  58.051 -57.791  1.00  0.00     0.032 A 
BRANCH  31  34
HETATM   34  O   UNL     1     -42.569  59.529 -60.295  1.00  0.00    -0.356 OA
HETATM   35  C   UNL     1     -43.649  59.945 -61.126  1.00  0.00     0.210 C 
ENDBRANCH  31  34
ENDBRANCH  24  28
ENDBRANCH  21  22
ENDBRANCH   1  21
TORSDOF 6
ENDMDL
MODEL 5
REMARK VINA RESULT:      -8.3      2.256      5.301
REMARK  6 active torsions:
REMARK  status: ('A' for Active; 'I' for Inactive)
REMARK    1  A    between atoms: O_2  and  C_3 
REMARK    2  A    between atoms: C_6  and  N_7 
REMARK       I    between atoms: N_7  and  C_8 
REMARK       I    between atoms: C_8  and  N_9 
REMARK    3  A    between atoms: N_9  and  C_10 
REMARK    4  A    between atoms: C_10  and  C_11 
REMARK       I    between atoms: C_11  and  N_12 
REMARK    5  A    between atoms: N_12  and  N_13 
REMARK       I    between atoms: N_13  and  C_14 
REMARK       I    between atoms: C_14  and  N_15 
REMARK    6  A    between atoms: N_15  and  C_16 
ROOT
HETATM    1  C   UNL     1     -43.941  58.677 -53.292  1.00  0.00     0.253 C 
HETATM    2  N   UNL     1     -42.610  58.389 -53.060  1.00  0.00    -0.265 N 
HETATM    3  O   UNL     1     -44.765  58.796 -52.385  1.00  0.00    -0.270 OA
HETATM    4  H   UNL     1     -41.945  58.469 -53.833  1.00  0.00     0.190 HD
ENDROOT
BRANCH   2   5
HETATM    5  N   UNL     1     -42.143  58.477 -51.732  1.00  0.00    -0.249 N 
HETATM    6  C   UNL     1     -41.447  57.422 -51.164  1.00  0.00     0.339 C 
HETATM    7  N   UNL     1     -41.877  56.182 -51.579  1.00  0.00    -0.307 N 
HETATM    8  O   UNL     1     -40.562  57.660 -50.348  1.00  0.00    -0.245 OA
HETATM    9  H   UNL     1     -42.807  56.184 -51.960  1.00  0.00     0.170 HD
HETATM   10  H   UNL     1     -41.710  59.375 -51.510  1.00  0.00     0.192 HD
BRANCH   7  11
HETATM   11  C   UNL     1     -41.302  54.921 -51.266  1.00  0.00     0.047 A 
HETATM   12  C   UNL     1     -40.861  54.055 -52.318  1.00  0.00     0.001 A 
HETATM   13  C   UNL     1     -40.297  52.798 -51.967  1.00  0.00    -0.024 A 
HETATM   14  C   UNL     1     -40.955  54.346 -53.704  1.00  0.00     0.014 A 
HETATM   15  C   UNL     1     -39.873  51.903 -52.963  1.00  0.00     0.012 A 
HETATM   16  C   UNL     1     -40.162  52.436 -50.622  1.00  0.00     0.012 A 
HETATM   17  C   UNL     1     -39.991  52.220 -54.314  1.00  0.00     0.001 A 
HETATM   18  C   UNL     1     -40.530  53.443 -54.684  1.00  0.00     0.001 A 
HETATM   19  C   UNL     1     -40.574  53.294 -49.609  1.00  0.00     0.003 A 
HETATM   20  C   UNL     1     -41.137  54.526 -49.931  1.00  0.00     0.030 A 
ENDBRANCH   7  11
ENDBRANCH   2   5
BRANCH   1  21
HETATM   21  C   UNL     1     -44.270  59.020 -54.748  1.00  0.00     0.228 C 
BRANCH  21  22
HETATM   22  N   UNL     1     -43.627  58.208 -55.768  1.00  0.00    -0.334 N 
HETATM   23  C   UNL     1     -42.467  58.553 -56.385  1.00  0.00     0.321 C 
HETATM   24  N   UNL     1     -42.097  57.799 -57.457  1.00  0.00    -0.309 N 
HETATM   25  O   UNL     1     -41.735  59.442 -55.953  1.00  0.00    -0.247 OA
HETATM   26  H   UNL     1     -41.118  57.905 -57.691  1.00  0.00     0.170 HD
HETATM   27  H   UNL     1     -43.902  57.237 -55.851  1.00  0.00     0.164 HD
BRANCH  24  28
HETATM   28  C   UNL     1     -42.888  57.140 -58.422  1.00  0.00     0.036 A 
HETATM   29  C   UNL     1     -43.147  55.766 -58.410  1.00  0.00     0.032 A 
HETATM   30  C   UNL     1     -44.031  55.196 -59.336  1.00  0.00     0.039 A 
HETATM   31  C   UNL     1     -44.675  55.994 -60.277  1.00  0.00     0.068 A 
HETATM   32  C   UNL     1     -44.399  57.361 -60.311  1.00  0.00     0.039 A 
HETATM   33  C   UNL     1     -43.524  57.933 -59.382  1.00  0.00     0.032 A 
BRANCH  31  34
HETATM   34  O   UNL     1     -45.578  55.559 -61.206  1.00  0.00    -0.356 OA
HETATM   35  C   UNL     1     -46.900  56.075 -61.086  1.00  0.00     0.210 C 
ENDBRANCH  31  34
ENDBRANCH  24  28
ENDBRANCH  21  22
ENDBRANCH   1  21
TORSDOF 6
ENDMDL
MODEL 6
REMARK VINA RESULT:      -8.1      2.334      7.528
REMARK  6 active torsions:
REMARK  status: ('A' for Active; 'I' for Inactive)
REMARK    1  A    between atoms: O_2  and  C_3 
REMARK    2  A    between atoms: C_6  and  N_7 
REMARK       I    between atoms: N_7  and  C_8 
REMARK       I    between atoms: C_8  and  N_9 
REMARK    3  A    between atoms: N_9  and  C_10 
REMARK    4  A    between atoms: C_10  and  C_11 
REMARK       I    between atoms: C_11  and  N_12 
REMARK    5  A    between atoms: N_12  and  N_13 
REMARK       I    between atoms: N_13  and  C_14 
REMARK       I    between atoms: C_14  and  N_15 
REMARK    6  A    between atoms: N_15  and  C_16 
ROOT
HETATM    1  C   UNL     1     -41.440  59.564 -51.967  1.00  0.00     0.253 C 
HETATM    2  N   UNL     1     -41.532  59.606 -53.345  1.00  0.00    -0.265 N 
HETATM    3  O   UNL     1     -41.926  60.431 -51.240  1.00  0.00    -0.270 OA
HETATM    4  H   UNL     1     -41.260  58.781 -53.883  1.00  0.00     0.190 HD
ENDROOT
BRANCH   2   5
HETATM    5  N   UNL     1     -42.420  60.543 -53.914  1.00  0.00    -0.249 N 
HETATM    6  C   UNL     1     -42.822  60.413 -55.233  1.00  0.00     0.339 C 
HETATM    7  N   UNL     1     -41.849  59.912 -56.067  1.00  0.00    -0.307 N 
HETATM    8  O   UNL     1     -43.953  60.769 -55.551  1.00  0.00    -0.245 OA
HETATM    9  H   UNL     1     -40.917  60.012 -55.705  1.00  0.00     0.170 HD
HETATM   10  H   UNL     1     -43.204  60.785 -53.304  1.00  0.00     0.192 HD
BRANCH   7  11
HETATM   11  C   UNL     1     -41.983  59.565 -57.439  1.00  0.00     0.047 A 
HETATM   12  C   UNL     1     -42.362  58.233 -57.805  1.00  0.00     0.001 A 
HETATM   13  C   UNL     1     -42.479  57.920 -59.187  1.00  0.00    -0.024 A 
HETATM   14  C   UNL     1     -42.619  57.179 -56.889  1.00  0.00     0.014 A 
HETATM   15  C   UNL     1     -42.824  56.621 -59.598  1.00  0.00     0.012 A 
HETATM   16  C   UNL     1     -42.249  58.904 -60.156  1.00  0.00     0.012 A 
HETATM   17  C   UNL     1     -43.060  55.611 -58.669  1.00  0.00     0.001 A 
HETATM   18  C   UNL     1     -42.960  55.891 -57.314  1.00  0.00     0.001 A 
HETATM   19  C   UNL     1     -41.903  60.198 -59.787  1.00  0.00     0.003 A 
HETATM   20  C   UNL     1     -41.773  60.523 -58.439  1.00  0.00     0.030 A 
ENDBRANCH   7  11
ENDBRANCH   2   5
BRANCH   1  21
HETATM   21  C   UNL     1     -40.851  58.265 -51.411  1.00  0.00     0.228 C 
BRANCH  21  22
HETATM   22  N   UNL     1     -41.288  57.031 -52.043  1.00  0.00    -0.334 N 
HETATM   23  C   UNL     1     -42.431  56.377 -51.710  1.00  0.00     0.321 C 
HETATM   24  N   UNL     1     -42.602  55.135 -52.242  1.00  0.00    -0.309 N 
HETATM   25  O   UNL     1     -43.315  56.906 -51.037  1.00  0.00    -0.247 OA
HETATM   26  H   UNL     1     -43.565  54.823 -52.205  1.00  0.00     0.170 HD
HETATM   27  H   UNL     1     -40.872  56.774 -52.930  1.00  0.00     0.164 HD
BRANCH  24  28
HETATM   28  C   UNL     1     -41.651  54.145 -52.566  1.00  0.00     0.036 A 
HETATM   29  C   UNL     1     -40.871  53.476 -51.620  1.00  0.00     0.032 A 
HETATM   30  C   UNL     1     -40.024  52.425 -52.003  1.00  0.00     0.039 A 
HETATM   31  C   UNL     1     -39.958  52.026 -53.335  1.00  0.00     0.068 A 
HETATM   32  C   UNL     1     -40.714  52.709 -54.287  1.00  0.00     0.039 A 
HETATM   33  C   UNL     1     -41.566  53.752 -53.905  1.00  0.00     0.032 A 
BRANCH  31  34
HETATM   34  O   UNL     1     -39.198  51.000 -53.822  1.00  0.00    -0.356 OA
HETATM   35  C   UNL     1     -39.908  49.928 -54.433  1.00  0.00     0.210 C 
ENDBRANCH  31  34
ENDBRANCH  24  28
ENDBRANCH  21  22
ENDBRANCH   1  21
TORSDOF 6
ENDMDL
MODEL 7
REMARK VINA RESULT:      -8.0      2.555      5.573
REMARK  6 active torsions:
REMARK  status: ('A' for Active; 'I' for Inactive)
REMARK    1  A    between atoms: O_2  and  C_3 
REMARK    2  A    between atoms: C_6  and  N_7 
REMARK       I    between atoms: N_7  and  C_8 
REMARK       I    between atoms: C_8  and  N_9 
REMARK    3  A    between atoms: N_9  and  C_10 
REMARK    4  A    between atoms: C_10  and  C_11 
REMARK       I    between atoms: C_11  and  N_12 
REMARK    5  A    between atoms: N_12  and  N_13 
REMARK       I    between atoms: N_13  and  C_14 
REMARK       I    between atoms: C_14  and  N_15 
REMARK    6  A    between atoms: N_15  and  C_16 
ROOT
HETATM    1  C   UNL     1     -43.808  59.888 -52.015  1.00  0.00     0.253 C 
HETATM    2  N   UNL     1     -43.499  59.076 -50.941  1.00  0.00    -0.265 N 
HETATM    3  O   UNL     1     -43.033  60.737 -52.454  1.00  0.00    -0.270 OA
HETATM    4  H   UNL     1     -44.108  58.282 -50.729  1.00  0.00     0.190 HD
ENDROOT
BRANCH   2   5
HETATM    5  N   UNL     1     -42.160  59.060 -50.496  1.00  0.00    -0.249 N 
HETATM    6  C   UNL     1     -41.361  57.952 -50.725  1.00  0.00     0.339 C 
HETATM    7  N   UNL     1     -42.036  56.754 -50.667  1.00  0.00    -0.307 N 
HETATM    8  O   UNL     1     -40.160  58.112 -50.920  1.00  0.00    -0.245 OA
HETATM    9  H   UNL     1     -42.905  56.805 -50.164  1.00  0.00     0.170 HD
HETATM   10  H   UNL     1     -41.659  59.930 -50.682  1.00  0.00     0.192 HD
BRANCH   7  11
HETATM   11  C   UNL     1     -41.525  55.461 -50.960  1.00  0.00     0.047 A 
HETATM   12  C   UNL     1     -41.158  55.125 -52.303  1.00  0.00     0.001 A 
HETATM   13  C   UNL     1     -40.657  53.819 -52.560  1.00  0.00    -0.024 A 
HETATM   14  C   UNL     1     -41.269  55.995 -53.418  1.00  0.00     0.014 A 
HETATM   15  C   UNL     1     -40.307  53.433 -53.864  1.00  0.00     0.012 A 
HETATM   16  C   UNL     1     -40.511  52.901 -51.513  1.00  0.00     0.012 A 
HETATM   17  C   UNL     1     -40.438  54.312 -54.935  1.00  0.00     0.001 A 
HETATM   18  C   UNL     1     -40.917  55.595 -54.712  1.00  0.00     0.001 A 
HETATM   19  C   UNL     1     -40.850  53.246 -50.211  1.00  0.00     0.003 A 
HETATM   20  C   UNL     1     -41.352  54.517 -49.939  1.00  0.00     0.030 A 
ENDBRANCH   7  11
ENDBRANCH   2   5
BRANCH   1  21
HETATM   21  C   UNL     1     -45.111  59.520 -52.731  1.00  0.00     0.228 C 
BRANCH  21  22
HETATM   22  N   UNL     1     -44.983  58.773 -53.971  1.00  0.00    -0.334 N 
HETATM   23  C   UNL     1     -44.498  57.506 -54.041  1.00  0.00     0.321 C 
HETATM   24  N   UNL     1     -44.247  57.015 -55.286  1.00  0.00    -0.309 N 
HETATM   25  O   UNL     1     -44.372  56.797 -53.043  1.00  0.00    -0.247 OA
HETATM   26  H   UNL     1     -44.172  56.005 -55.301  1.00  0.00     0.170 HD
HETATM   27  H   UNL     1     -45.500  59.095 -54.780  1.00  0.00     0.164 HD
BRANCH  24  28
HETATM   28  C   UNL     1     -43.818  57.677 -56.456  1.00  0.00     0.036 A 
HETATM   29  C   UNL     1     -42.515  58.141 -56.654  1.00  0.00     0.032 A 
HETATM   30  C   UNL     1     -42.130  58.691 -57.885  1.00  0.00     0.039 A 
HETATM   31  C   UNL     1     -43.041  58.773 -58.934  1.00  0.00     0.068 A 
HETATM   32  C   UNL     1     -44.350  58.336 -58.732  1.00  0.00     0.039 A 
HETATM   33  C   UNL     1     -44.733  57.779 -57.508  1.00  0.00     0.032 A 
BRANCH  31  34
HETATM   34  O   UNL     1     -42.775  59.258 -60.184  1.00  0.00    -0.356 OA
HETATM   35  C   UNL     1     -42.440  60.640 -60.263  1.00  0.00     0.210 C 
ENDBRANCH  31  34
ENDBRANCH  24  28
ENDBRANCH  21  22
ENDBRANCH   1  21
TORSDOF 6
ENDMDL
MODEL 8
REMARK VINA RESULT:      -8.0      3.544      5.927
REMARK  6 active torsions:
REMARK  status: ('A' for Active; 'I' for Inactive)
REMARK    1  A    between atoms: O_2  and  C_3 
REMARK    2  A    between atoms: C_6  and  N_7 
REMARK       I    between atoms: N_7  and  C_8 
REMARK       I    between atoms: C_8  and  N_9 
REMARK    3  A    between atoms: N_9  and  C_10 
REMARK    4  A    between atoms: C_10  and  C_11 
REMARK       I    between atoms: C_11  and  N_12 
REMARK    5  A    between atoms: N_12  and  N_13 
REMARK       I    between atoms: N_13  and  C_14 
REMARK       I    between atoms: C_14  and  N_15 
REMARK    6  A    between atoms: N_15  and  C_16 
ROOT
HETATM    1  C   UNL     1     -42.667  57.314 -57.099  1.00  0.00     0.253 C 
HETATM    2  N   UNL     1     -42.827  57.076 -55.748  1.00  0.00    -0.265 N 
HETATM    3  O   UNL     1     -42.135  58.334 -57.538  1.00  0.00    -0.270 OA
HETATM    4  H   UNL     1     -43.119  56.145 -55.441  1.00  0.00     0.190 HD
ENDROOT
BRANCH   2   5
HETATM    5  N   UNL     1     -42.141  57.918 -54.848  1.00  0.00    -0.249 N 
HETATM    6  C   UNL     1     -41.374  57.376 -53.830  1.00  0.00     0.339 C 
HETATM    7  N   UNL     1     -41.886  56.212 -53.304  1.00  0.00    -0.307 N 
HETATM    8  O   UNL     1     -40.360  57.965 -53.467  1.00  0.00    -0.245 OA
HETATM    9  H   UNL     1     -42.867  56.086 -53.482  1.00  0.00     0.170 HD
HETATM   10  H   UNL     1     -41.663  58.698 -55.304  1.00  0.00     0.192 HD
BRANCH   7  11
HETATM   11  C   UNL     1     -41.285  55.366 -52.333  1.00  0.00     0.047 A 
HETATM   12  C   UNL     1     -40.766  54.089 -52.720  1.00  0.00     0.001 A 
HETATM   13  C   UNL     1     -40.178  53.267 -51.721  1.00  0.00    -0.024 A 
HETATM   14  C   UNL     1     -40.804  53.561 -54.038  1.00  0.00     0.014 A 
HETATM   15  C   UNL     1     -39.677  51.995 -52.046  1.00  0.00     0.012 A 
HETATM   16  C   UNL     1     -40.094  53.715 -50.397  1.00  0.00     0.012 A 
HETATM   17  C   UNL     1     -39.741  51.507 -53.348  1.00  0.00     0.001 A 
HETATM   18  C   UNL     1     -40.303  52.292 -54.345  1.00  0.00     0.001 A 
HETATM   19  C   UNL     1     -40.582  54.966 -50.038  1.00  0.00     0.003 A 
HETATM   20  C   UNL     1     -41.170  55.783 -51.000  1.00  0.00     0.030 A 
ENDBRANCH   7  11
ENDBRANCH   2   5
BRANCH   1  21
HETATM   21  C   UNL     1     -43.031  56.129 -57.998  1.00  0.00     0.228 C 
BRANCH  21  22
HETATM   22  N   UNL     1     -44.395  56.087 -58.496  1.00  0.00    -0.334 N 
HETATM   23  C   UNL     1     -44.831  55.197 -59.426  1.00  0.00     0.321 C 
HETATM   24  N   UNL     1     -46.073  55.410 -59.942  1.00  0.00    -0.309 N 
HETATM   25  O   UNL     1     -44.183  54.195 -59.727  1.00  0.00    -0.247 OA
HETATM   26  H   UNL     1     -46.457  54.588 -60.392  1.00  0.00     0.170 HD
HETATM   27  H   UNL     1     -45.115  56.560 -57.963  1.00  0.00     0.164 HD
BRANCH  24  28
HETATM   28  C   UNL     1     -46.763  56.617 -60.184  1.00  0.00     0.036 A 
HETATM   29  C   UNL     1     -46.661  57.748 -59.369  1.00  0.00     0.032 A 
HETATM   30  C   UNL     1     -47.288  58.950 -59.730  1.00  0.00     0.039 A 
HETATM   31  C   UNL     1     -48.014  59.035 -60.915  1.00  0.00     0.068 A 
HETATM   32  C   UNL     1     -48.141  57.902 -61.717  1.00  0.00     0.039 A 
HETATM   33  C   UNL     1     -47.509  56.705 -61.363  1.00  0.00     0.032 A 
BRANCH  31  34
HETATM   34  O   UNL     1     -48.640  60.155 -61.386  1.00  0.00    -0.356 OA
HETATM   35  C   UNL     1     -49.678  59.941 -62.337  1.00  0.00     0.210 C 
ENDBRANCH  31  34
ENDBRANCH  24  28
ENDBRANCH  21  22
ENDBRANCH   1  21
TORSDOF 6
ENDMDL
MODEL 9
REMARK VINA RESULT:      -7.8      2.444      5.328
REMARK  6 active torsions:
REMARK  status: ('A' for Active; 'I' for Inactive)
REMARK    1  A    between atoms: O_2  and  C_3 
REMARK    2  A    between atoms: C_6  and  N_7 
REMARK       I    between atoms: N_7  and  C_8 
REMARK       I    between atoms: C_8  and  N_9 
REMARK    3  A    between atoms: N_9  and  C_10 
REMARK    4  A    between atoms: C_10  and  C_11 
REMARK       I    between atoms: C_11  and  N_12 
REMARK    5  A    between atoms: N_12  and  N_13 
REMARK       I    between atoms: N_13  and  C_14 
REMARK       I    between atoms: C_14  and  N_15 
REMARK    6  A    between atoms: N_15  and  C_16 
ROOT
HETATM    1  C   UNL     1     -43.233  59.404 -53.000  1.00  0.00     0.253 C 
HETATM    2  N   UNL     1     -43.415  58.653 -51.854  1.00  0.00    -0.265 N 
HETATM    3  O   UNL     1     -42.306  60.202 -53.135  1.00  0.00    -0.270 OA
HETATM    4  H   UNL     1     -44.097  57.892 -51.864  1.00  0.00     0.190 HD
ENDROOT
BRANCH   2   5
HETATM    5  N   UNL     1     -42.363  58.630 -50.914  1.00  0.00    -0.249 N 
HETATM    6  C   UNL     1     -41.504  57.544 -50.853  1.00  0.00     0.339 C 
HETATM    7  N   UNL     1     -42.109  56.337 -51.122  1.00  0.00    -0.307 N 
HETATM    8  O   UNL     1     -40.330  57.728 -50.547  1.00  0.00    -0.245 OA
HETATM    9  H   UNL     1     -43.107  56.352 -51.005  1.00  0.00     0.170 HD
HETATM   10  H   UNL     1     -41.856  59.514 -50.847  1.00  0.00     0.192 HD
BRANCH   7  11
HETATM   11  C   UNL     1     -41.484  55.067 -51.243  1.00  0.00     0.047 A 
HETATM   12  C   UNL     1     -41.067  54.595 -52.529  1.00  0.00     0.001 A 
HETATM   13  C   UNL     1     -40.451  53.317 -52.613  1.00  0.00    -0.024 A 
HETATM   14  C   UNL     1     -41.233  55.304 -53.748  1.00  0.00     0.014 A 
HETATM   15  C   UNL     1     -40.047  52.799 -53.855  1.00  0.00     0.012 A 
HETATM   16  C   UNL     1     -40.244  52.556 -51.457  1.00  0.00     0.012 A 
HETATM   17  C   UNL     1     -40.235  53.520 -55.031  1.00  0.00     0.001 A 
HETATM   18  C   UNL     1     -40.826  54.774 -54.977  1.00  0.00     0.001 A 
HETATM   19  C   UNL     1     -40.634  53.034 -50.212  1.00  0.00     0.003 A 
HETATM   20  C   UNL     1     -41.247  54.279 -50.108  1.00  0.00     0.030 A 
ENDBRANCH   7  11
ENDBRANCH   2   5
BRANCH   1  21
HETATM   21  C   UNL     1     -44.164  59.027 -54.156  1.00  0.00     0.228 C 
BRANCH  21  22
HETATM   22  N   UNL     1     -43.665  59.272 -55.499  1.00  0.00    -0.334 N 
HETATM   23  C   UNL     1     -43.945  60.392 -56.214  1.00  0.00     0.321 C 
HETATM   24  N   UNL     1     -43.578  60.388 -57.526  1.00  0.00    -0.309 N 
HETATM   25  O   UNL     1     -44.423  61.399 -55.693  1.00  0.00    -0.247 OA
HETATM   26  H   UNL     1     -43.540  61.318 -57.925  1.00  0.00     0.170 HD
HETATM   27  H   UNL     1     -42.881  58.721 -55.827  1.00  0.00     0.164 HD
BRANCH  24  28
HETATM   28  C   UNL     1     -43.517  59.324 -58.450  1.00  0.00     0.036 A 
HETATM   29  C   UNL     1     -42.330  58.689 -58.828  1.00  0.00     0.032 A 
HETATM   30  C   UNL     1     -42.355  57.566 -59.667  1.00  0.00     0.039 A 
HETATM   31  C   UNL     1     -43.567  57.059 -60.127  1.00  0.00     0.068 A 
HETATM   32  C   UNL     1     -44.751  57.705 -59.775  1.00  0.00     0.039 A 
HETATM   33  C   UNL     1     -44.729  58.821 -58.931  1.00  0.00     0.032 A 
BRANCH  31  34
HETATM   34  O   UNL     1     -43.719  55.956 -60.920  1.00  0.00    -0.356 OA
HETATM   35  C   UNL     1     -44.872  55.158 -60.671  1.00  0.00     0.210 C 
ENDBRANCH  31  34
ENDBRANCH  24  28
ENDBRANCH  21  22
ENDBRANCH   1  21
TORSDOF 6
ENDMDL
MODEL 10
REMARK VINA RESULT:      -7.7      2.383      5.060
REMARK  6 active torsions:
REMARK  status: ('A' for Active; 'I' for Inactive)
REMARK    1  A    between atoms: O_2  and  C_3 
REMARK    2  A    between atoms: C_6  and  N_7 
REMARK       I    between atoms: N_7  and  C_8 
REMARK       I    between atoms: C_8  and  N_9 
REMARK    3  A    between atoms: N_9  and  C_10 
REMARK    4  A    between atoms: C_10  and  C_11 
REMARK       I    between atoms: C_11  and  N_12 
REMARK    5  A    between atoms: N_12  and  N_13 
REMARK       I    between atoms: N_13  and  C_14 
REMARK       I    between atoms: C_14  and  N_15 
REMARK    6  A    between atoms: N_15  and  C_16 
ROOT
HETATM    1  C   UNL     1     -43.001  56.033 -56.174  1.00  0.00     0.253 C 
HETATM    2  N   UNL     1     -41.786  56.607 -55.852  1.00  0.00    -0.265 N 
HETATM    3  O   UNL     1     -43.956  56.014 -55.397  1.00  0.00    -0.270 OA
HETATM    4  H   UNL     1     -41.092  56.741 -56.590  1.00  0.00     0.190 HD
ENDROOT
BRANCH   2   5
HETATM    5  N   UNL     1     -41.726  57.404 -54.690  1.00  0.00    -0.249 N 
HETATM    6  C   UNL     1     -41.228  56.880 -53.508  1.00  0.00     0.339 C 
HETATM    7  N   UNL     1     -41.521  55.549 -53.319  1.00  0.00    -0.307 N 
HETATM    8  O   UNL     1     -40.619  57.617 -52.738  1.00  0.00    -0.245 OA
HETATM    9  H   UNL     1     -42.299  55.226 -53.866  1.00  0.00     0.170 HD
HETATM   10  H   UNL     1     -41.375  58.348 -54.860  1.00  0.00     0.192 HD
BRANCH   7  11
HETATM   11  C   UNL     1     -41.064  54.705 -52.270  1.00  0.00     0.047 A 
HETATM   12  C   UNL     1     -40.551  53.403 -52.573  1.00  0.00     0.001 A 
HETATM   13  C   UNL     1     -40.110  52.584 -51.497  1.00  0.00    -0.024 A 
HETATM   14  C   UNL     1     -40.458  52.848 -53.876  1.00  0.00     0.014 A 
HETATM   15  C   UNL     1     -39.621  51.289 -51.740  1.00  0.00     0.012 A 
HETATM   16  C   UNL     1     -40.162  53.059 -50.181  1.00  0.00     0.012 A 
HETATM   17  C   UNL     1     -39.554  50.776 -53.032  1.00  0.00     0.001 A 
HETATM   18  C   UNL     1     -39.970  51.556 -54.100  1.00  0.00     0.001 A 
HETATM   19  C   UNL     1     -40.642  54.332 -49.903  1.00  0.00     0.003 A 
HETATM   20  C   UNL     1     -41.088  55.147 -50.941  1.00  0.00     0.030 A 
ENDBRANCH   7  11
ENDBRANCH   2   5
BRANCH   1  21
HETATM   21  C   UNL     1     -43.125  55.593 -57.635  1.00  0.00     0.228 C 
BRANCH  21  22
HETATM   22  N   UNL     1     -43.639  56.579 -58.570  1.00  0.00    -0.334 N 
HETATM   23  C   UNL     1     -43.799  56.348 -59.899  1.00  0.00     0.321 C 
HETATM   24  N   UNL     1     -44.095  57.426 -60.677  1.00  0.00    -0.309 N 
HETATM   25  O   UNL     1     -43.770  55.213 -60.373  1.00  0.00    -0.247 OA
HETATM   26  H   UNL     1     -44.481  57.165 -61.576  1.00  0.00     0.170 HD
HETATM   27  H   UNL     1     -44.134  57.381 -58.197  1.00  0.00     0.164 HD
BRANCH  24  28
HETATM   28  C   UNL     1     -43.706  58.776 -60.546  1.00  0.00     0.036 A 
HETATM   29  C   UNL     1     -44.556  59.790 -60.098  1.00  0.00     0.032 A 
HETATM   30  C   UNL     1     -44.072  61.090 -59.888  1.00  0.00     0.039 A 
HETATM   31  C   UNL     1     -42.730  61.384 -60.112  1.00  0.00     0.068 A 
HETATM   32  C   UNL     1     -41.884  60.382 -60.586  1.00  0.00     0.039 A 
HETATM   33  C   UNL     1     -42.364  59.083 -60.788  1.00  0.00     0.032 A 
BRANCH  31  34
HETATM   34  O   UNL     1     -42.138  62.600 -59.913  1.00  0.00    -0.356 OA
HETATM   35  C   UNL     1     -41.045  62.915 -60.770  1.00  0.00     0.210 C 
ENDBRANCH  31  34
ENDBRANCH  24  28
ENDBRANCH  21  22
ENDBRANCH   1  21
TORSDOF 6
ENDMDL
