MODEL 1
REMARK VINA RESULT:      -8.7      0.000      0.000
REMARK  6 active torsions:
REMARK  status: ('A' for Active; 'I' for Inactive)
REMARK    1  A    between atoms: N_7  and  C_8 
REMARK    2  A    between atoms: C_8  and  C_9 
REMARK    3  A    between atoms: C_9  and  N_10 
REMARK    4  A    between atoms: C_17  and  C_18 
REMARK    5  A    between atoms: C_18  and  N_19 
REMARK       I    between atoms: N_19  and  C_20 
REMARK    6  A    between atoms: C_20  and  C_21 
ROOT
HETATM    1  C   UNL     1     -39.531  49.908 -53.420  1.00  0.00     0.001 A 
HETATM    2  C   UNL     1     -39.835  51.153 -53.977  1.00  0.00     0.014 A 
HETATM    3  C   UNL     1     -40.129  52.237 -53.142  1.00  0.00     0.008 A 
HETATM    4  C   UNL     1     -40.108  52.068 -51.758  1.00  0.00     0.046 A 
HETATM    5  C   UNL     1     -40.392  53.216 -50.878  1.00  0.00     0.274 A 
HETATM    6  O   UNL     1     -40.310  53.104 -49.658  1.00  0.00    -0.266 OA
HETATM    7  N   UNL     1     -40.743  54.408 -51.506  1.00  0.00    -0.232 N 
HETATM    8  N   UNL     1     -40.754  54.582 -52.858  1.00  0.00    -0.172 NA
HETATM    9  C   UNL     1     -40.468  53.588 -53.645  1.00  0.00     0.084 A 
HETATM   10  C   UNL     1     -39.802  50.819 -51.202  1.00  0.00     0.018 A 
HETATM   11  C   UNL     1     -39.517  49.739 -52.036  1.00  0.00     0.001 A 
ENDROOT
BRANCH   9  12
HETATM   12  C   UNL     1     -40.467  53.875 -55.145  1.00  0.00     0.185 C 
BRANCH  12  13
HETATM   13  N   UNL     1     -41.109  55.149 -55.403  1.00  0.00    -0.351 N 
HETATM   14  C   UNL     1     -42.409  55.233 -55.850  1.00  0.00     0.253 C 
HETATM   15  O   UNL     1     -43.143  54.252 -55.940  1.00  0.00    -0.268 OA
HETATM   16  H   UNL     1     -40.537  55.985 -55.395  1.00  0.00     0.163 HD
BRANCH  14  17
HETATM   17  C   UNL     1     -42.944  56.589 -56.182  1.00  0.00     0.055 A 
HETATM   18  C   UNL     1     -43.839  57.329 -55.392  1.00  0.00     0.049 A 
HETATM   19 CL   UNL     1     -44.449  56.793 -53.865  1.00  0.00    -0.083 Cl
HETATM   20  C   UNL     1     -44.268  58.597 -55.816  1.00  0.00     0.026 A 
HETATM   21  C   UNL     1     -43.806  59.138 -57.017  1.00  0.00     0.021 A 
HETATM   22  C   UNL     1     -42.911  58.413 -57.794  1.00  0.00     0.012 A 
HETATM   23 BR   UNL     1     -42.273  59.140 -59.418  1.00  0.00    -0.051 Br
HETATM   24  C   UNL     1     -42.478  57.152 -57.385  1.00  0.00     0.038 A 
ENDBRANCH  14  17
ENDBRANCH  12  13
ENDBRANCH   9  12
BRANCH   7  25
HETATM   25  C   UNL     1     -40.880  55.614 -50.700  1.00  0.00     0.182 C 
BRANCH  25  26
HETATM   26  C   UNL     1     -41.862  56.632 -51.290  1.00  0.00     0.256 C 
BRANCH  26  27
HETATM   27  N   UNL     1     -41.157  57.897 -51.752  1.00  0.00    -0.070 N 
HETATM   28  H   UNL     1     -40.248  57.944 -51.272  1.00  0.00     0.279 HD
HETATM   29  C   UNL     1     -41.924  59.159 -51.388  1.00  0.00     0.235 C 
HETATM   30  C   UNL     1     -42.374  59.728 -52.717  1.00  0.00     0.029 C 
HETATM   31  C   UNL     1     -41.233  59.369 -53.646  1.00  0.00     0.029 C 
HETATM   32  C   UNL     1     -40.914  57.940 -53.252  1.00  0.00     0.235 C 
ENDBRANCH  26  27
ENDBRANCH  25  26
ENDBRANCH   7  25
TORSDOF 6
ENDMDL
MODEL 2
REMARK VINA RESULT:      -8.5      1.648      1.974
REMARK  6 active torsions:
REMARK  status: ('A' for Active; 'I' for Inactive)
REMARK    1  A    between atoms: N_7  and  C_8 
REMARK    2  A    between atoms: C_8  and  C_9 
REMARK    3  A    between atoms: C_9  and  N_10 
REMARK    4  A    between atoms: C_17  and  C_18 
REMARK    5  A    between atoms: C_18  and  N_19 
REMARK       I    between atoms: N_19  and  C_20 
REMARK    6  A    between atoms: C_20  and  C_21 
ROOT
HETATM    1  C   UNL     1     -39.496  49.947 -53.358  1.00  0.00     0.001 A 
HETATM    2  C   UNL     1     -39.803  51.180 -53.940  1.00  0.00     0.014 A 
HETATM    3  C   UNL     1     -40.146  52.268 -53.131  1.00  0.00     0.008 A 
HETATM    4  C   UNL     1     -40.172  52.115 -51.745  1.00  0.00     0.046 A 
HETATM    5  C   UNL     1     -40.509  53.269 -50.889  1.00  0.00     0.274 A 
HETATM    6  O   UNL     1     -40.468  53.172 -49.666  1.00  0.00    -0.266 OA
HETATM    7  N   UNL     1     -40.859  54.446 -51.545  1.00  0.00    -0.232 N 
HETATM    8  N   UNL     1     -40.824  54.604 -52.898  1.00  0.00    -0.172 NA
HETATM    9  C   UNL     1     -40.492  53.606 -53.662  1.00  0.00     0.084 A 
HETATM   10  C   UNL     1     -39.863  50.879 -51.163  1.00  0.00     0.018 A 
HETATM   11  C   UNL     1     -39.529  49.795 -51.972  1.00  0.00     0.001 A 
ENDROOT
BRANCH   9  12
HETATM   12  C   UNL     1     -40.442  53.876 -55.164  1.00  0.00     0.185 C 
BRANCH  12  13
HETATM   13  N   UNL     1     -41.214  55.061 -55.479  1.00  0.00    -0.351 N 
HETATM   14  C   UNL     1     -42.533  54.991 -55.870  1.00  0.00     0.253 C 
HETATM   15  O   UNL     1     -43.171  53.941 -55.860  1.00  0.00    -0.268 OA
HETATM   16  H   UNL     1     -40.726  55.946 -55.552  1.00  0.00     0.163 HD
BRANCH  14  17
HETATM   17  C   UNL     1     -43.209  56.263 -56.267  1.00  0.00     0.055 A 
HETATM   18  C   UNL     1     -43.380  56.720 -57.585  1.00  0.00     0.049 A 
HETATM   19 CL   UNL     1     -42.856  55.849 -58.984  1.00  0.00    -0.083 Cl
HETATM   20  C   UNL     1     -44.036  57.937 -57.827  1.00  0.00     0.026 A 
HETATM   21  C   UNL     1     -44.530  58.701 -56.768  1.00  0.00     0.021 A 
HETATM   22  C   UNL     1     -44.373  58.245 -55.465  1.00  0.00     0.012 A 
HETATM   23 BR   UNL     1     -45.046  59.267 -54.025  1.00  0.00    -0.051 Br
HETATM   24  C   UNL     1     -43.723  57.038 -55.210  1.00  0.00     0.038 A 
ENDBRANCH  14  17
ENDBRANCH  12  13
ENDBRANCH   9  12
BRANCH   7  25
HETATM   25  C   UNL     1     -41.047  55.659 -50.759  1.00  0.00     0.182 C 
BRANCH  25  26
HETATM   26  C   UNL     1     -42.258  56.488 -51.201  1.00  0.00     0.256 C 
BRANCH  26  27
HETATM   27  N   UNL     1     -41.939  57.974 -51.247  1.00  0.00    -0.070 N 
HETATM   28  H   UNL     1     -42.777  58.486 -50.941  1.00  0.00     0.279 HD
HETATM   29  C   UNL     1     -41.605  58.455 -52.650  1.00  0.00     0.235 C 
HETATM   30  C   UNL     1     -40.138  58.827 -52.587  1.00  0.00     0.029 C 
HETATM   31  C   UNL     1     -39.982  59.362 -51.179  1.00  0.00     0.029 C 
HETATM   32  C   UNL     1     -40.776  58.370 -50.351  1.00  0.00     0.235 C 
ENDBRANCH  26  27
ENDBRANCH  25  26
ENDBRANCH   7  25
TORSDOF 6
ENDMDL
MODEL 3
REMARK VINA RESULT:      -8.5      2.985      6.711
REMARK  6 active torsions:
REMARK  status: ('A' for Active; 'I' for Inactive)
REMARK    1  A    between atoms: N_7  and  C_8 
REMARK    2  A    between atoms: C_8  and  C_9 
REMARK    3  A    between atoms: C_9  and  N_10 
REMARK    4  A    between atoms: C_17  and  C_18 
REMARK    5  A    between atoms: C_18  and  N_19 
REMARK       I    between atoms: N_19  and  C_20 
REMARK    6  A    between atoms: C_20  and  C_21 
ROOT
HETATM    1  C   UNL     1     -42.821  55.952 -59.655  1.00  0.00     0.001 A 
HETATM    2  C   UNL     1     -43.098  55.806 -58.293  1.00  0.00     0.014 A 
HETATM    3  C   UNL     1     -42.780  56.837 -57.402  1.00  0.00     0.008 A 
HETATM    4  C   UNL     1     -42.195  58.008 -57.883  1.00  0.00     0.046 A 
HETATM    5  C   UNL     1     -41.883  59.106 -56.949  1.00  0.00     0.274 A 
HETATM    6  O   UNL     1     -41.434  60.170 -57.363  1.00  0.00    -0.266 OA
HETATM    7  N   UNL     1     -42.134  58.863 -55.601  1.00  0.00    -0.232 N 
HETATM    8  N   UNL     1     -42.716  57.725 -55.127  1.00  0.00    -0.172 NA
HETATM    9  C   UNL     1     -43.031  56.765 -55.945  1.00  0.00     0.084 A 
HETATM   10  C   UNL     1     -41.920  58.153 -59.249  1.00  0.00     0.018 A 
HETATM   11  C   UNL     1     -42.231  57.121 -60.133  1.00  0.00     0.001 A 
ENDROOT
BRANCH   9  12
HETATM   12  C   UNL     1     -43.712  55.539 -55.339  1.00  0.00     0.185 C 
BRANCH  12  13
HETATM   13  N   UNL     1     -42.719  54.667 -54.746  1.00  0.00    -0.351 N 
HETATM   14  C   UNL     1     -42.565  54.557 -53.382  1.00  0.00     0.253 C 
HETATM   15  O   UNL     1     -43.332  55.090 -52.585  1.00  0.00    -0.268 OA
HETATM   16  H   UNL     1     -42.027  54.243 -55.354  1.00  0.00     0.163 HD
BRANCH  14  17
HETATM   17  C   UNL     1     -41.446  53.706 -52.875  1.00  0.00     0.055 A 
HETATM   18  C   UNL     1     -40.699  53.948 -51.710  1.00  0.00     0.049 A 
HETATM   19 CL   UNL     1     -40.985  55.276 -50.640  1.00  0.00    -0.083 Cl
HETATM   20  C   UNL     1     -39.669  53.070 -51.339  1.00  0.00     0.026 A 
HETATM   21  C   UNL     1     -39.381  51.946 -52.116  1.00  0.00     0.021 A 
HETATM   22  C   UNL     1     -40.126  51.696 -53.262  1.00  0.00     0.012 A 
HETATM   23 BR   UNL     1     -39.749  50.173 -54.315  1.00  0.00    -0.051 Br
HETATM   24  C   UNL     1     -41.151  52.562 -53.641  1.00  0.00     0.038 A 
ENDBRANCH  14  17
ENDBRANCH  12  13
ENDBRANCH   9  12
BRANCH   7  25
HETATM   25  C   UNL     1     -41.997  59.960 -54.651  1.00  0.00     0.182 C 
BRANCH  25  26
HETATM   26  C   UNL     1     -42.676  59.687 -53.304  1.00  0.00     0.256 C 
BRANCH  26  27
HETATM   27  N   UNL     1     -41.837  58.777 -52.422  1.00  0.00    -0.070 N 
HETATM   28  H   UNL     1     -42.027  57.805 -52.701  1.00  0.00     0.279 HD
HETATM   29  C   UNL     1     -42.195  58.901 -50.949  1.00  0.00     0.235 C 
HETATM   30  C   UNL     1     -40.974  59.528 -50.311  1.00  0.00     0.029 C 
HETATM   31  C   UNL     1     -39.831  58.945 -51.116  1.00  0.00     0.029 C 
HETATM   32  C   UNL     1     -40.342  59.031 -52.540  1.00  0.00     0.235 C 
ENDBRANCH  26  27
ENDBRANCH  25  26
ENDBRANCH   7  25
TORSDOF 6
ENDMDL
MODEL 4
REMARK VINA RESULT:      -8.3      2.087      2.476
REMARK  6 active torsions:
REMARK  status: ('A' for Active; 'I' for Inactive)
REMARK    1  A    between atoms: N_7  and  C_8 
REMARK    2  A    between atoms: C_8  and  C_9 
REMARK    3  A    between atoms: C_9  and  N_10 
REMARK    4  A    between atoms: C_17  and  C_18 
REMARK    5  A    between atoms: C_18  and  N_19 
REMARK       I    between atoms: N_19  and  C_20 
REMARK    6  A    between atoms: C_20  and  C_21 
ROOT
HETATM    1  C   UNL     1     -39.624  51.578 -53.787  1.00  0.00     0.001 A 
HETATM    2  C   UNL     1     -40.616  52.414 -54.307  1.00  0.00     0.014 A 
HETATM    3  C   UNL     1     -41.372  53.218 -53.446  1.00  0.00     0.008 A 
HETATM    4  C   UNL     1     -41.122  53.185 -52.075  1.00  0.00     0.046 A 
HETATM    5  C   UNL     1     -41.900  54.051 -51.170  1.00  0.00     0.274 A 
HETATM    6  O   UNL     1     -41.647  54.088 -49.969  1.00  0.00    -0.266 OA
HETATM    7  N   UNL     1     -42.910  54.811 -51.754  1.00  0.00    -0.232 N 
HETATM    8  N   UNL     1     -43.151  54.855 -53.095  1.00  0.00    -0.172 NA
HETATM    9  C   UNL     1     -42.447  54.125 -53.908  1.00  0.00     0.084 A 
HETATM   10  C   UNL     1     -40.125  52.348 -51.556  1.00  0.00     0.018 A 
HETATM   11  C   UNL     1     -39.379  51.543 -52.415  1.00  0.00     0.001 A 
ENDROOT
BRANCH   9  12
HETATM   12  C   UNL     1     -42.755  54.260 -55.398  1.00  0.00     0.185 C 
BRANCH  12  13
HETATM   13  N   UNL     1     -42.606  55.642 -55.809  1.00  0.00    -0.351 N 
HETATM   14  C   UNL     1     -42.869  56.053 -57.096  1.00  0.00     0.253 C 
HETATM   15  O   UNL     1     -43.359  55.309 -57.941  1.00  0.00    -0.268 OA
HETATM   16  H   UNL     1     -42.158  56.288 -55.169  1.00  0.00     0.163 HD
BRANCH  14  17
HETATM   17  C   UNL     1     -42.588  57.480 -57.442  1.00  0.00     0.055 A 
HETATM   18  C   UNL     1     -42.171  57.950 -58.698  1.00  0.00     0.049 A 
HETATM   19 CL   UNL     1     -41.947  56.935 -60.081  1.00  0.00    -0.083 Cl
HETATM   20  C   UNL     1     -41.941  59.320 -58.896  1.00  0.00     0.026 A 
HETATM   21  C   UNL     1     -42.128  60.229 -57.854  1.00  0.00     0.021 A 
HETATM   22  C   UNL     1     -42.553  59.770 -56.613  1.00  0.00     0.012 A 
HETATM   23 BR   UNL     1     -42.818  60.994 -55.198  1.00  0.00    -0.051 Br
HETATM   24  C   UNL     1     -42.785  58.411 -56.403  1.00  0.00     0.038 A 
ENDBRANCH  14  17
ENDBRANCH  12  13
ENDBRANCH   9  12
BRANCH   7  25
HETATM   25  C   UNL     1     -43.606  55.801 -50.942  1.00  0.00     0.182 C 
BRANCH  25  26
HETATM   26  C   UNL     1     -43.175  57.242 -51.237  1.00  0.00     0.256 C 
BRANCH  26  27
HETATM   27  N   UNL     1     -41.726  57.317 -51.690  1.00  0.00    -0.070 N 
HETATM   28  H   UNL     1     -41.384  56.355 -51.816  1.00  0.00     0.279 HD
HETATM   29  C   UNL     1     -40.827  57.983 -50.660  1.00  0.00     0.235 C 
HETATM   30  C   UNL     1     -40.396  59.281 -51.311  1.00  0.00     0.029 C 
HETATM   31  C   UNL     1     -40.297  58.911 -52.776  1.00  0.00     0.029 C 
HETATM   32  C   UNL     1     -41.540  58.071 -52.997  1.00  0.00     0.235 C 
ENDBRANCH  26  27
ENDBRANCH  25  26
ENDBRANCH   7  25
TORSDOF 6
ENDMDL
MODEL 5
REMARK VINA RESULT:      -8.2      3.076      6.810
REMARK  6 active torsions:
REMARK  status: ('A' for Active; 'I' for Inactive)
REMARK    1  A    between atoms: N_7  and  C_8 
REMARK    2  A    between atoms: C_8  and  C_9 
REMARK    3  A    between atoms: C_9  and  N_10 
REMARK    4  A    between atoms: C_17  and  C_18 
REMARK    5  A    between atoms: C_18  and  N_19 
REMARK       I    between atoms: N_19  and  C_20 
REMARK    6  A    between atoms: C_20  and  C_21 
ROOT
HETATM    1  C   UNL     1     -42.712  56.487 -59.962  1.00  0.00     0.001 A 
HETATM    2  C   UNL     1     -42.861  55.977 -58.670  1.00  0.00     0.014 A 
HETATM    3  C   UNL     1     -42.617  56.797 -57.563  1.00  0.00     0.008 A 
HETATM    4  C   UNL     1     -42.234  58.124 -57.759  1.00  0.00     0.046 A 
HETATM    5  C   UNL     1     -42.002  58.997 -56.593  1.00  0.00     0.274 A 
HETATM    6  O   UNL     1     -41.734  60.185 -56.746  1.00  0.00    -0.266 OA
HETATM    7  N   UNL     1     -42.113  58.401 -55.340  1.00  0.00    -0.232 N 
HETATM    8  N   UNL     1     -42.497  57.108 -55.143  1.00  0.00    -0.172 NA
HETATM    9  C   UNL     1     -42.742  56.338 -56.161  1.00  0.00     0.084 A 
HETATM   10  C   UNL     1     -42.088  58.635 -59.056  1.00  0.00     0.018 A 
HETATM   11  C   UNL     1     -42.324  57.813 -60.156  1.00  0.00     0.001 A 
ENDROOT
BRANCH   9  12
HETATM   12  C   UNL     1     -43.202  54.915 -55.854  1.00  0.00     0.185 C 
BRANCH  12  13
HETATM   13  N   UNL     1     -42.619  54.467 -54.606  1.00  0.00    -0.351 N 
HETATM   14  C   UNL     1     -41.341  53.957 -54.538  1.00  0.00     0.253 C 
HETATM   15  O   UNL     1     -40.575  53.962 -55.498  1.00  0.00    -0.268 OA
HETATM   16  H   UNL     1     -43.221  54.392 -53.793  1.00  0.00     0.163 HD
BRANCH  14  17
HETATM   17  C   UNL     1     -40.871  53.430 -53.221  1.00  0.00     0.055 A 
HETATM   18  C   UNL     1     -40.235  52.194 -53.014  1.00  0.00     0.049 A 
HETATM   19 CL   UNL     1     -39.858  51.081 -54.283  1.00  0.00    -0.083 Cl
HETATM   20  C   UNL     1     -39.840  51.814 -51.723  1.00  0.00     0.026 A 
HETATM   21  C   UNL     1     -40.066  52.658 -50.634  1.00  0.00     0.021 A 
HETATM   22  C   UNL     1     -40.683  53.886 -50.836  1.00  0.00     0.012 A 
HETATM   23 BR   UNL     1     -40.985  55.039 -49.369  1.00  0.00    -0.051 Br
HETATM   24  C   UNL     1     -41.082  54.276 -52.114  1.00  0.00     0.038 A 
ENDBRANCH  14  17
ENDBRANCH  12  13
ENDBRANCH   9  12
BRANCH   7  25
HETATM   25  C   UNL     1     -42.051  59.243 -54.153  1.00  0.00     0.182 C 
BRANCH  25  26
HETATM   26  C   UNL     1     -42.507  58.529 -52.875  1.00  0.00     0.256 C 
BRANCH  26  27
HETATM   27  N   UNL     1     -41.329  58.123 -52.004  1.00  0.00    -0.070 N 
HETATM   28  H   UNL     1     -41.220  57.103 -52.078  1.00  0.00     0.279 HD
HETATM   29  C   UNL     1     -41.551  58.447 -50.535  1.00  0.00     0.235 C 
HETATM   30  C   UNL     1     -40.542  59.533 -50.227  1.00  0.00     0.029 C 
HETATM   31  C   UNL     1     -39.362  59.159 -51.101  1.00  0.00     0.029 C 
HETATM   32  C   UNL     1     -40.020  58.780 -52.413  1.00  0.00     0.235 C 
ENDBRANCH  26  27
ENDBRANCH  25  26
ENDBRANCH   7  25
TORSDOF 6
ENDMDL
MODEL 6
REMARK VINA RESULT:      -8.1      1.318      1.675
REMARK  6 active torsions:
REMARK  status: ('A' for Active; 'I' for Inactive)
REMARK    1  A    between atoms: N_7  and  C_8 
REMARK    2  A    between atoms: C_8  and  C_9 
REMARK    3  A    between atoms: C_9  and  N_10 
REMARK    4  A    between atoms: C_17  and  C_18 
REMARK    5  A    between atoms: C_18  and  N_19 
REMARK       I    between atoms: N_19  and  C_20 
REMARK    6  A    between atoms: C_20  and  C_21 
ROOT
HETATM    1  C   UNL     1     -39.793  51.090 -53.872  1.00  0.00     0.001 A 
HETATM    2  C   UNL     1     -40.321  52.299 -54.331  1.00  0.00     0.014 A 
HETATM    3  C   UNL     1     -40.597  53.329 -53.425  1.00  0.00     0.008 A 
HETATM    4  C   UNL     1     -40.333  53.143 -52.069  1.00  0.00     0.046 A 
HETATM    5  C   UNL     1     -40.599  54.238 -51.116  1.00  0.00     0.274 A 
HETATM    6  O   UNL     1     -40.308  54.118 -49.930  1.00  0.00    -0.266 OA
HETATM    7  N   UNL     1     -41.179  55.389 -51.641  1.00  0.00    -0.232 N 
HETATM    8  N   UNL     1     -41.428  55.581 -52.967  1.00  0.00    -0.172 NA
HETATM    9  C   UNL     1     -41.163  54.639 -53.823  1.00  0.00     0.084 A 
HETATM   10  C   UNL     1     -39.802  51.931 -51.610  1.00  0.00     0.018 A 
HETATM   11  C   UNL     1     -39.536  50.904 -52.514  1.00  0.00     0.001 A 
ENDROOT
BRANCH   9  12
HETATM   12  C   UNL     1     -41.436  54.946 -55.293  1.00  0.00     0.185 C 
BRANCH  12  13
HETATM   13  N   UNL     1     -41.953  56.293 -55.427  1.00  0.00    -0.351 N 
HETATM   14  C   UNL     1     -42.612  56.713 -56.561  1.00  0.00     0.253 C 
HETATM   15  O   UNL     1     -42.911  55.948 -57.474  1.00  0.00    -0.268 OA
HETATM   16  H   UNL     1     -41.692  56.980 -54.729  1.00  0.00     0.163 HD
BRANCH  14  17
HETATM   17  C   UNL     1     -43.016  58.150 -56.639  1.00  0.00     0.055 A 
HETATM   18  C   UNL     1     -44.179  58.703 -56.077  1.00  0.00     0.049 A 
HETATM   19 CL   UNL     1     -45.331  57.797 -55.158  1.00  0.00    -0.083 Cl
HETATM   20  C   UNL     1     -44.447  60.073 -56.220  1.00  0.00     0.026 A 
HETATM   21  C   UNL     1     -43.561  60.901 -56.912  1.00  0.00     0.021 A 
HETATM   22  C   UNL     1     -42.404  60.360 -57.459  1.00  0.00     0.012 A 
HETATM   23 BR   UNL     1     -41.195  61.473 -58.391  1.00  0.00    -0.051 Br
HETATM   24  C   UNL     1     -42.127  59.000 -57.325  1.00  0.00     0.038 A 
ENDBRANCH  14  17
ENDBRANCH  12  13
ENDBRANCH   9  12
BRANCH   7  25
HETATM   25  C   UNL     1     -41.319  56.559 -50.783  1.00  0.00     0.182 C 
BRANCH  25  26
HETATM   26  C   UNL     1     -40.983  57.877 -51.492  1.00  0.00     0.256 C 
BRANCH  26  27
HETATM   27  N   UNL     1     -42.089  58.306 -52.442  1.00  0.00    -0.070 N 
HETATM   28  H   UNL     1     -42.390  57.477 -52.971  1.00  0.00     0.279 HD
HETATM   29  C   UNL     1     -41.621  59.341 -53.453  1.00  0.00     0.235 C 
HETATM   30  C   UNL     1     -42.369  60.604 -53.081  1.00  0.00     0.029 C 
HETATM   31  C   UNL     1     -43.701  60.078 -52.587  1.00  0.00     0.029 C 
HETATM   32  C   UNL     1     -43.301  58.892 -51.733  1.00  0.00     0.235 C 
ENDBRANCH  26  27
ENDBRANCH  25  26
ENDBRANCH   7  25
TORSDOF 6
ENDMDL
MODEL 7
REMARK VINA RESULT:      -7.8      3.418      7.777
REMARK  6 active torsions:
REMARK  status: ('A' for Active; 'I' for Inactive)
REMARK    1  A    between atoms: N_7  and  C_8 
REMARK    2  A    between atoms: C_8  and  C_9 
REMARK    3  A    between atoms: C_9  and  N_10 
REMARK    4  A    between atoms: C_17  and  C_18 
REMARK    5  A    between atoms: C_18  and  N_19 
REMARK       I    between atoms: N_19  and  C_20 
REMARK    6  A    between atoms: C_20  and  C_21 
ROOT
HETATM    1  C   UNL     1     -42.891  59.028 -52.160  1.00  0.00     0.001 A 
HETATM    2  C   UNL     1     -43.194  57.929 -52.969  1.00  0.00     0.014 A 
HETATM    3  C   UNL     1     -42.946  57.987 -54.345  1.00  0.00     0.008 A 
HETATM    4  C   UNL     1     -42.390  59.140 -54.898  1.00  0.00     0.046 A 
HETATM    5  C   UNL     1     -42.104  59.192 -56.344  1.00  0.00     0.274 A 
HETATM    6  O   UNL     1     -41.550  60.171 -56.837  1.00  0.00    -0.266 OA
HETATM    7  N   UNL     1     -42.487  58.083 -57.093  1.00  0.00    -0.232 N 
HETATM    8  N   UNL     1     -43.021  56.949 -56.556  1.00  0.00    -0.172 NA
HETATM    9  C   UNL     1     -43.242  56.875 -55.277  1.00  0.00     0.084 A 
HETATM   10  C   UNL     1     -42.085  60.239 -54.085  1.00  0.00     0.018 A 
HETATM   11  C   UNL     1     -42.340  60.181 -52.716  1.00  0.00     0.001 A 
ENDROOT
BRANCH   9  12
HETATM   12  C   UNL     1     -43.807  55.558 -54.751  1.00  0.00     0.185 C 
BRANCH  12  13
HETATM   13  N   UNL     1     -42.726  54.694 -54.321  1.00  0.00    -0.351 N 
HETATM   14  C   UNL     1     -42.638  54.221 -53.031  1.00  0.00     0.253 C 
HETATM   15  O   UNL     1     -43.525  54.396 -52.200  1.00  0.00    -0.268 OA
HETATM   16  H   UNL     1     -41.941  54.559 -54.948  1.00  0.00     0.163 HD
BRANCH  14  17
HETATM   17  C   UNL     1     -41.430  53.421 -52.664  1.00  0.00     0.055 A 
HETATM   18  C   UNL     1     -40.604  53.650 -51.551  1.00  0.00     0.049 A 
HETATM   19 CL   UNL     1     -40.881  54.898 -50.386  1.00  0.00    -0.083 Cl
HETATM   20  C   UNL     1     -39.496  52.823 -51.315  1.00  0.00     0.026 A 
HETATM   21  C   UNL     1     -39.205  51.763 -52.176  1.00  0.00     0.021 A 
HETATM   22  C   UNL     1     -40.026  51.525 -53.271  1.00  0.00     0.012 A 
HETATM   23 BR   UNL     1     -39.646  50.088 -54.437  1.00  0.00    -0.051 Br
HETATM   24  C   UNL     1     -41.131  52.340 -53.517  1.00  0.00     0.038 A 
ENDBRANCH  14  17
ENDBRANCH  12  13
ENDBRANCH   9  12
BRANCH   7  25
HETATM   25  C   UNL     1     -42.091  58.008 -58.493  1.00  0.00     0.182 C 
BRANCH  25  26
HETATM   26  C   UNL     1     -43.278  58.009 -59.462  1.00  0.00     0.256 C 
BRANCH  26  27
HETATM   27  N   UNL     1     -44.231  56.857 -59.190  1.00  0.00    -0.070 N 
HETATM   28  H   UNL     1     -44.238  56.686 -58.176  1.00  0.00     0.279 HD
HETATM   29  C   UNL     1     -43.792  55.566 -59.862  1.00  0.00     0.235 C 
HETATM   30  C   UNL     1     -44.847  55.307 -60.918  1.00  0.00     0.029 C 
HETATM   31  C   UNL     1     -46.112  55.831 -60.271  1.00  0.00     0.029 C 
HETATM   32  C   UNL     1     -45.657  57.133 -59.643  1.00  0.00     0.235 C 
ENDBRANCH  26  27
ENDBRANCH  25  26
ENDBRANCH   7  25
TORSDOF 6
ENDMDL
MODEL 8
REMARK VINA RESULT:      -7.8      3.125      5.331
REMARK  6 active torsions:
REMARK  status: ('A' for Active; 'I' for Inactive)
REMARK    1  A    between atoms: N_7  and  C_8 
REMARK    2  A    between atoms: C_8  and  C_9 
REMARK    3  A    between atoms: C_9  and  N_10 
REMARK    4  A    between atoms: C_17  and  C_18 
REMARK    5  A    between atoms: C_18  and  N_19 
REMARK       I    between atoms: N_19  and  C_20 
REMARK    6  A    between atoms: C_20  and  C_21 
ROOT
HETATM    1  C   UNL     1     -40.190  52.185 -50.653  1.00  0.00     0.001 A 
HETATM    2  C   UNL     1     -40.859  53.412 -50.663  1.00  0.00     0.014 A 
HETATM    3  C   UNL     1     -41.041  54.098 -51.868  1.00  0.00     0.008 A 
HETATM    4  C   UNL     1     -40.559  53.547 -53.055  1.00  0.00     0.046 A 
HETATM    5  C   UNL     1     -40.772  54.257 -54.330  1.00  0.00     0.274 A 
HETATM    6  O   UNL     1     -40.418  53.754 -55.392  1.00  0.00    -0.266 OA
HETATM    7  N   UNL     1     -41.394  55.500 -54.251  1.00  0.00    -0.232 N 
HETATM    8  N   UNL     1     -41.877  56.038 -53.096  1.00  0.00    -0.172 NA
HETATM    9  C   UNL     1     -41.730  55.405 -51.970  1.00  0.00     0.084 A 
HETATM   10  C   UNL     1     -39.890  52.316 -53.044  1.00  0.00     0.018 A 
HETATM   11  C   UNL     1     -39.704  51.638 -51.840  1.00  0.00     0.001 A 
ENDROOT
BRANCH   9  12
HETATM   12  C   UNL     1     -42.331  56.058 -50.728  1.00  0.00     0.185 C 
BRANCH  12  13
HETATM   13  N   UNL     1     -42.972  57.307 -51.089  1.00  0.00    -0.351 N 
HETATM   14  C   UNL     1     -44.338  57.471 -51.027  1.00  0.00     0.253 C 
HETATM   15  O   UNL     1     -45.086  56.621 -50.550  1.00  0.00    -0.268 OA
HETATM   16  H   UNL     1     -42.411  58.023 -51.536  1.00  0.00     0.163 HD
BRANCH  14  17
HETATM   17  C   UNL     1     -44.906  58.763 -51.517  1.00  0.00     0.055 A 
HETATM   18  C   UNL     1     -45.135  59.098 -52.862  1.00  0.00     0.049 A 
HETATM   19 CL   UNL     1     -44.822  58.032 -54.187  1.00  0.00    -0.083 Cl
HETATM   20  C   UNL     1     -45.676  60.350 -53.193  1.00  0.00     0.026 A 
HETATM   21  C   UNL     1     -45.998  61.271 -52.195  1.00  0.00     0.021 A 
HETATM   22  C   UNL     1     -45.785  60.938 -50.862  1.00  0.00     0.012 A 
HETATM   23 BR   UNL     1     -46.226  62.174 -49.503  1.00  0.00    -0.051 Br
HETATM   24  C   UNL     1     -45.247  59.698 -50.520  1.00  0.00     0.038 A 
ENDBRANCH  14  17
ENDBRANCH  12  13
ENDBRANCH   9  12
BRANCH   7  25
HETATM   25  C   UNL     1     -41.774  56.176 -55.485  1.00  0.00     0.182 C 
BRANCH  25  26
HETATM   26  C   UNL     1     -42.984  55.540 -56.179  1.00  0.00     0.256 C 
BRANCH  26  27
HETATM   27  N   UNL     1     -43.464  56.373 -57.356  1.00  0.00    -0.070 N 
HETATM   28  H   UNL     1     -44.390  56.751 -57.118  1.00  0.00     0.279 HD
HETATM   29  C   UNL     1     -43.624  55.552 -58.626  1.00  0.00     0.235 C 
HETATM   30  C   UNL     1     -42.550  56.074 -59.557  1.00  0.00     0.029 C 
HETATM   31  C   UNL     1     -42.480  57.546 -59.205  1.00  0.00     0.029 C 
HETATM   32  C   UNL     1     -42.540  57.535 -57.690  1.00  0.00     0.235 C 
ENDBRANCH  26  27
ENDBRANCH  25  26
ENDBRANCH   7  25
TORSDOF 6
ENDMDL
MODEL 9
REMARK VINA RESULT:      -7.8      2.566      3.194
REMARK  6 active torsions:
REMARK  status: ('A' for Active; 'I' for Inactive)
REMARK    1  A    between atoms: N_7  and  C_8 
REMARK    2  A    between atoms: C_8  and  C_9 
REMARK    3  A    between atoms: C_9  and  N_10 
REMARK    4  A    between atoms: C_17  and  C_18 
REMARK    5  A    between atoms: C_18  and  N_19 
REMARK       I    between atoms: N_19  and  C_20 
REMARK    6  A    between atoms: C_20  and  C_21 
ROOT
HETATM    1  C   UNL     1     -39.990  52.193 -53.883  1.00  0.00     0.001 A 
HETATM    2  C   UNL     1     -40.750  53.050 -54.684  1.00  0.00     0.014 A 
HETATM    3  C   UNL     1     -41.561  54.023 -54.090  1.00  0.00     0.008 A 
HETATM    4  C   UNL     1     -41.598  54.136 -52.701  1.00  0.00     0.046 A 
HETATM    5  C   UNL     1     -42.433  55.178 -52.074  1.00  0.00     0.274 A 
HETATM    6  O   UNL     1     -42.424  55.338 -50.857  1.00  0.00    -0.266 OA
HETATM    7  N   UNL     1     -43.206  55.954 -52.935  1.00  0.00    -0.232 N 
HETATM    8  N   UNL     1     -43.165  55.855 -54.293  1.00  0.00    -0.172 NA
HETATM    9  C   UNL     1     -42.404  54.966 -54.859  1.00  0.00     0.084 A 
HETATM   10  C   UNL     1     -40.834  53.277 -51.900  1.00  0.00     0.018 A 
HETATM   11  C   UNL     1     -40.033  52.303 -52.494  1.00  0.00     0.001 A 
ENDROOT
BRANCH   9  12
HETATM   12  C   UNL     1     -42.387  54.946 -56.387  1.00  0.00     0.185 C 
BRANCH  12  13
HETATM   13  N   UNL     1     -43.492  55.728 -56.902  1.00  0.00    -0.351 N 
HETATM   14  C   UNL     1     -43.510  56.203 -58.195  1.00  0.00     0.253 C 
HETATM   15  O   UNL     1     -42.660  55.894 -59.025  1.00  0.00    -0.268 OA
HETATM   16  H   UNL     1     -44.195  56.055 -56.249  1.00  0.00     0.163 HD
BRANCH  14  17
HETATM   17  C   UNL     1     -44.649  57.084 -58.596  1.00  0.00     0.055 A 
HETATM   18  C   UNL     1     -44.928  58.353 -58.062  1.00  0.00     0.049 A 
HETATM   19 CL   UNL     1     -43.958  59.126 -56.858  1.00  0.00    -0.083 Cl
HETATM   20  C   UNL     1     -46.032  59.084 -58.526  1.00  0.00     0.026 A 
HETATM   21  C   UNL     1     -46.859  58.565 -59.524  1.00  0.00     0.021 A 
HETATM   22  C   UNL     1     -46.579  57.315 -60.063  1.00  0.00     0.012 A 
HETATM   23 BR   UNL     1     -47.687  56.607 -61.420  1.00  0.00    -0.051 Br
HETATM   24  C   UNL     1     -45.485  56.578 -59.610  1.00  0.00     0.038 A 
ENDBRANCH  14  17
ENDBRANCH  12  13
ENDBRANCH   9  12
BRANCH   7  25
HETATM   25  C   UNL     1     -43.927  57.098 -52.393  1.00  0.00     0.182 C 
BRANCH  25  26
HETATM   26  C   UNL     1     -43.850  58.343 -53.284  1.00  0.00     0.256 C 
BRANCH  26  27
HETATM   27  N   UNL     1     -42.714  59.265 -52.872  1.00  0.00    -0.070 N 
HETATM   28  H   UNL     1     -43.092  60.218 -52.798  1.00  0.00     0.279 HD
HETATM   29  C   UNL     1     -41.593  59.303 -53.899  1.00  0.00     0.235 C 
HETATM   30  C   UNL     1     -40.417  58.647 -53.205  1.00  0.00     0.029 C 
HETATM   31  C   UNL     1     -40.596  59.067 -51.761  1.00  0.00     0.029 C 
HETATM   32  C   UNL     1     -42.085  58.890 -51.539  1.00  0.00     0.235 C 
ENDBRANCH  26  27
ENDBRANCH  25  26
ENDBRANCH   7  25
TORSDOF 6
ENDMDL
MODEL 10
REMARK VINA RESULT:      -7.7      3.495      7.927
REMARK  6 active torsions:
REMARK  status: ('A' for Active; 'I' for Inactive)
REMARK    1  A    between atoms: N_7  and  C_8 
REMARK    2  A    between atoms: C_8  and  C_9 
REMARK    3  A    between atoms: C_9  and  N_10 
REMARK    4  A    between atoms: C_17  and  C_18 
REMARK    5  A    between atoms: C_18  and  N_19 
REMARK       I    between atoms: N_19  and  C_20 
REMARK    6  A    between atoms: C_20  and  C_21 
ROOT
HETATM    1  C   UNL     1     -45.531  60.398 -50.625  1.00  0.00     0.001 A 
HETATM    2  C   UNL     1     -44.809  59.230 -50.882  1.00  0.00     0.014 A 
HETATM    3  C   UNL     1     -44.655  58.780 -52.198  1.00  0.00     0.008 A 
HETATM    4  C   UNL     1     -45.218  59.508 -53.246  1.00  0.00     0.046 A 
HETATM    5  C   UNL     1     -45.035  59.049 -54.635  1.00  0.00     0.274 A 
HETATM    6  O   UNL     1     -45.462  59.715 -55.575  1.00  0.00    -0.266 OA
HETATM    7  N   UNL     1     -44.354  57.847 -54.807  1.00  0.00    -0.232 N 
HETATM    8  N   UNL     1     -43.792  57.138 -53.788  1.00  0.00    -0.172 NA
HETATM    9  C   UNL     1     -43.913  57.551 -52.562  1.00  0.00     0.084 A 
HETATM   10  C   UNL     1     -45.940  60.680 -52.986  1.00  0.00     0.018 A 
HETATM   11  C   UNL     1     -46.098  61.121 -51.673  1.00  0.00     0.001 A 
ENDROOT
BRANCH   9  12
HETATM   12  C   UNL     1     -43.223  56.720 -51.482  1.00  0.00     0.185 C 
BRANCH  12  13
HETATM   13  N   UNL     1     -42.616  55.546 -52.078  1.00  0.00    -0.351 N 
HETATM   14  C   UNL     1     -41.400  55.058 -51.653  1.00  0.00     0.253 C 
HETATM   15  O   UNL     1     -40.815  55.506 -50.670  1.00  0.00    -0.268 OA
HETATM   16  H   UNL     1     -43.028  55.168 -52.923  1.00  0.00     0.163 HD
BRANCH  14  17
HETATM   17  C   UNL     1     -40.814  53.904 -52.399  1.00  0.00     0.055 A 
HETATM   18  C   UNL     1     -40.564  53.867 -53.782  1.00  0.00     0.049 A 
HETATM   19 CL   UNL     1     -40.866  55.191 -54.852  1.00  0.00    -0.083 Cl
HETATM   20  C   UNL     1     -40.008  52.719 -54.365  1.00  0.00     0.026 A 
HETATM   21  C   UNL     1     -39.692  51.606 -53.583  1.00  0.00     0.021 A 
HETATM   22  C   UNL     1     -39.927  51.644 -52.214  1.00  0.00     0.012 A 
HETATM   23 BR   UNL     1     -39.495  50.147 -51.145  1.00  0.00    -0.051 Br
HETATM   24  C   UNL     1     -40.480  52.779 -51.621  1.00  0.00     0.038 A 
ENDBRANCH  14  17
ENDBRANCH  12  13
ENDBRANCH   9  12
BRANCH   7  25
HETATM   25  C   UNL     1     -44.004  57.424 -56.157  1.00  0.00     0.182 C 
BRANCH  25  26
HETATM   26  C   UNL     1     -42.585  57.829 -56.573  1.00  0.00     0.256 C 
BRANCH  26  27
HETATM   27  N   UNL     1     -42.125  57.083 -57.814  1.00  0.00    -0.070 N 
HETATM   28  H   UNL     1     -41.152  56.786 -57.661  1.00  0.00     0.279 HD
HETATM   29  C   UNL     1     -42.138  57.957 -59.059  1.00  0.00     0.235 C 
HETATM   30  C   UNL     1     -43.230  57.368 -59.928  1.00  0.00     0.029 C 
HETATM   31  C   UNL     1     -43.139  55.885 -59.630  1.00  0.00     0.029 C 
HETATM   32  C   UNL     1     -42.963  55.852 -58.125  1.00  0.00     0.235 C 
ENDBRANCH  26  27
ENDBRANCH  25  26
ENDBRANCH   7  25
TORSDOF 6
ENDMDL
