MODEL 1
REMARK VINA RESULT:      -8.8      0.000      0.000
REMARK  5 active torsions:
REMARK  status: ('A' for Active; 'I' for Inactive)
REMARK    1  A    between atoms: C_8  and  C_9 
REMARK    2  A    between atoms: C_13  and  C_14 
REMARK    3  A    between atoms: C_14  and  O_15 
REMARK    4  A    between atoms: O_15  and  C_16 
REMARK    5  A    between atoms: C_27  and  N_28 
ROOT
HETATM    1  C   UNL     1     -42.095  54.960 -55.940  1.00  0.00     0.073 C 
HETATM    2  C   UNL     1     -42.536  56.376 -55.977  1.00  0.00     0.062 A 
HETATM    3  N   UNL     1     -43.362  56.804 -56.946  1.00  0.00    -0.177 NA
HETATM    4  N   UNL     1     -43.546  58.113 -56.674  1.00  0.00    -0.256 N 
HETATM    5  H   UNL     1     -44.138  58.663 -57.287  1.00  0.00     0.191 HD
HETATM    6  C   UNL     1     -42.879  58.515 -55.563  1.00  0.00     0.175 A 
HETATM    7  C   UNL     1     -42.213  57.420 -55.080  1.00  0.00     0.035 A 
HETATM    8  C   UNL     1     -41.367  57.523 -53.854  1.00  0.00     0.111 A 
HETATM    9  C   UNL     1     -41.430  58.966 -53.320  1.00  0.00     0.067 A 
HETATM   10  C   UNL     1     -40.660  59.226 -52.036  1.00  0.00     0.020 C 
HETATM   11  N   UNL     1     -40.021  59.442 -50.971  1.00  0.00    -0.096 N 
HETATM   12  C   UNL     1     -42.142  59.964 -53.905  1.00  0.00     0.139 A 
HETATM   13  O   UNL     1     -42.896  59.749 -55.074  1.00  0.00    -0.279 OA
ENDROOT
BRANCH   8  14
HETATM   14  C   UNL     1     -41.747  56.476 -52.822  1.00  0.00    -0.003 A 
HETATM   15  S   UNL     1     -43.329  56.470 -52.165  1.00  0.00    -0.098 SA
HETATM   16  C   UNL     1     -43.026  55.067 -51.239  1.00  0.00    -0.013 A 
HETATM   17  C   UNL     1     -44.126  54.473 -50.422  1.00  0.00     0.057 C 
HETATM   18  C   UNL     1     -41.714  54.633 -51.360  1.00  0.00    -0.020 A 
HETATM   19  C   UNL     1     -40.991  55.442 -52.300  1.00  0.00     0.026 A 
BRANCH  18  20
HETATM   20  C   UNL     1     -41.120  53.459 -50.627  1.00  0.00     0.215 C 
BRANCH  20  21
HETATM   21  O   UNL     1     -39.856  53.108 -51.190  1.00  0.00    -0.347 OA
BRANCH  21  22
HETATM   22  C   UNL     1     -39.832  52.059 -52.066  1.00  0.00     0.069 A 
HETATM   23  C   UNL     1     -39.559  50.725 -51.748  1.00  0.00     0.040 A 
HETATM   24  C   UNL     1     -39.575  49.750 -52.750  1.00  0.00     0.045 A 
HETATM   25  C   UNL     1     -39.860  50.111 -54.061  1.00  0.00     0.116 A 
HETATM   26  F   UNL     1     -39.874  49.173 -55.016  1.00  0.00    -0.206 F 
HETATM   27  C   UNL     1     -40.132  51.431 -54.393  1.00  0.00     0.045 A 
HETATM   28  C   UNL     1     -40.117  52.404 -53.392  1.00  0.00     0.040 A 
ENDBRANCH  21  22
ENDBRANCH  20  21
ENDBRANCH  18  20
ENDBRANCH   8  14
BRANCH  12  29
HETATM   29  N   UNL     1     -42.226  61.260 -53.448  1.00  0.00    -0.282 NA
HETATM   30  H   UNL     1     -42.663  61.924 -54.082  1.00  0.00     0.126 HD
HETATM   31  H   UNL     1     -41.342  61.591 -53.072  1.00  0.00     0.126 HD
ENDBRANCH  12  29
TORSDOF 5
ENDMDL
MODEL 2
REMARK VINA RESULT:      -8.5      2.550      4.442
REMARK  5 active torsions:
REMARK  status: ('A' for Active; 'I' for Inactive)
REMARK    1  A    between atoms: C_8  and  C_9 
REMARK    2  A    between atoms: C_13  and  C_14 
REMARK    3  A    between atoms: C_14  and  O_15 
REMARK    4  A    between atoms: O_15  and  C_16 
REMARK    5  A    between atoms: C_27  and  N_28 
ROOT
HETATM    1  C   UNL     1     -43.019  59.711 -54.590  1.00  0.00     0.073 C 
HETATM    2  C   UNL     1     -42.501  59.735 -55.980  1.00  0.00     0.062 A 
HETATM    3  N   UNL     1     -41.789  60.785 -56.420  1.00  0.00    -0.177 NA
HETATM    4  N   UNL     1     -41.489  60.473 -57.699  1.00  0.00    -0.256 N 
HETATM    5  H   UNL     1     -40.953  61.132 -58.252  1.00  0.00     0.191 HD
HETATM    6  C   UNL     1     -41.973  59.260 -58.068  1.00  0.00     0.175 A 
HETATM    7  C   UNL     1     -42.634  58.747 -56.984  1.00  0.00     0.035 A 
HETATM    8  C   UNL     1     -43.298  57.412 -57.058  1.00  0.00     0.111 A 
HETATM    9  C   UNL     1     -43.074  56.817 -58.460  1.00  0.00     0.067 A 
HETATM   10  C   UNL     1     -43.645  55.427 -58.683  1.00  0.00     0.020 C 
HETATM   11  N   UNL     1     -44.119  54.273 -58.868  1.00  0.00    -0.096 N 
HETATM   12  C   UNL     1     -42.388  57.442 -59.452  1.00  0.00     0.139 A 
HETATM   13  O   UNL     1     -41.814  58.714 -59.268  1.00  0.00    -0.279 OA
ENDROOT
BRANCH   8  14
HETATM   14  C   UNL     1     -42.847  56.499 -55.931  1.00  0.00    -0.003 A 
HETATM   15  S   UNL     1     -43.932  56.121 -54.661  1.00  0.00    -0.098 SA
HETATM   16  C   UNL     1     -42.814  55.070 -53.911  1.00  0.00    -0.013 A 
HETATM   17  C   UNL     1     -43.219  54.320 -52.684  1.00  0.00     0.057 C 
HETATM   18  C   UNL     1     -41.593  55.049 -54.567  1.00  0.00    -0.020 A 
HETATM   19  C   UNL     1     -41.633  55.861 -55.750  1.00  0.00     0.026 A 
BRANCH  18  20
HETATM   20  C   UNL     1     -40.385  54.267 -54.123  1.00  0.00     0.215 C 
BRANCH  20  21
HETATM   21  O   UNL     1     -40.488  52.908 -54.547  1.00  0.00    -0.347 OA
BRANCH  21  22
HETATM   22  C   UNL     1     -40.163  51.943 -53.635  1.00  0.00     0.069 A 
HETATM   23  C   UNL     1     -39.937  50.591 -53.911  1.00  0.00     0.040 A 
HETATM   24  C   UNL     1     -39.605  49.711 -52.875  1.00  0.00     0.045 A 
HETATM   25  C   UNL     1     -39.503  50.185 -51.573  1.00  0.00     0.116 A 
HETATM   26  F   UNL     1     -39.184  49.338 -50.586  1.00  0.00    -0.206 F 
HETATM   27  C   UNL     1     -39.726  51.524 -51.283  1.00  0.00     0.045 A 
HETATM   28  C   UNL     1     -40.056  52.402 -52.317  1.00  0.00     0.040 A 
ENDBRANCH  21  22
ENDBRANCH  20  21
ENDBRANCH  18  20
ENDBRANCH   8  14
BRANCH  12  29
HETATM   29  N   UNL     1     -42.162  56.934 -60.711  1.00  0.00    -0.282 NA
HETATM   30  H   UNL     1     -42.993  56.761 -61.272  1.00  0.00     0.126 HD
HETATM   31  H   UNL     1     -41.522  56.145 -60.696  1.00  0.00     0.126 HD
ENDBRANCH  12  29
TORSDOF 5
ENDMDL
MODEL 3
REMARK VINA RESULT:      -8.2      3.115      4.570
REMARK  5 active torsions:
REMARK  status: ('A' for Active; 'I' for Inactive)
REMARK    1  A    between atoms: C_8  and  C_9 
REMARK    2  A    between atoms: C_13  and  C_14 
REMARK    3  A    between atoms: C_14  and  O_15 
REMARK    4  A    between atoms: O_15  and  C_16 
REMARK    5  A    between atoms: C_27  and  N_28 
ROOT
HETATM    1  C   UNL     1     -42.002  56.264 -59.861  1.00  0.00     0.073 C 
HETATM    2  C   UNL     1     -43.474  56.439 -59.925  1.00  0.00     0.062 A 
HETATM    3  N   UNL     1     -44.182  55.869 -60.914  1.00  0.00    -0.177 NA
HETATM    4  N   UNL     1     -45.458  56.231 -60.663  1.00  0.00    -0.256 N 
HETATM    5  H   UNL     1     -46.189  55.922 -61.294  1.00  0.00     0.191 HD
HETATM    6  C   UNL     1     -45.576  56.992 -59.546  1.00  0.00     0.175 A 
HETATM    7  C   UNL     1     -44.314  57.148 -59.035  1.00  0.00     0.035 A 
HETATM    8  C   UNL     1     -44.088  57.950 -57.795  1.00  0.00     0.111 A 
HETATM    9  C   UNL     1     -45.441  58.473 -57.282  1.00  0.00     0.067 A 
HETATM   10  C   UNL     1     -45.391  59.268 -55.988  1.00  0.00     0.020 C 
HETATM   11  N   UNL     1     -45.349  59.927 -54.914  1.00  0.00    -0.096 N 
HETATM   12  C   UNL     1     -46.632  58.236 -57.894  1.00  0.00     0.139 A 
HETATM   13  O   UNL     1     -46.719  57.474 -59.073  1.00  0.00    -0.279 OA
ENDROOT
BRANCH   8  14
HETATM   14  C   UNL     1     -43.307  57.164 -56.757  1.00  0.00    -0.003 A 
HETATM   15  S   UNL     1     -42.179  57.974 -55.754  1.00  0.00    -0.098 SA
HETATM   16  C   UNL     1     -41.820  56.554 -54.875  1.00  0.00    -0.013 A 
HETATM   17  C   UNL     1     -40.867  56.621 -53.726  1.00  0.00     0.057 C 
HETATM   18  C   UNL     1     -42.489  55.447 -55.373  1.00  0.00    -0.020 A 
HETATM   19  C   UNL     1     -43.367  55.818 -56.446  1.00  0.00     0.026 A 
BRANCH  18  20
HETATM   20  C   UNL     1     -42.341  54.040 -54.853  1.00  0.00     0.215 C 
BRANCH  20  21
HETATM   21  O   UNL     1     -41.001  53.582 -55.031  1.00  0.00    -0.347 OA
BRANCH  21  22
HETATM   22  C   UNL     1     -40.525  52.676 -54.125  1.00  0.00     0.069 A 
HETATM   23  C   UNL     1     -40.176  51.348 -54.392  1.00  0.00     0.040 A 
HETATM   24  C   UNL     1     -39.694  50.532 -53.364  1.00  0.00     0.045 A 
HETATM   25  C   UNL     1     -39.565  51.043 -52.078  1.00  0.00     0.116 A 
HETATM   26  F   UNL     1     -39.103  50.256 -51.098  1.00  0.00    -0.206 F 
HETATM   27  C   UNL     1     -39.909  52.358 -51.798  1.00  0.00     0.045 A 
HETATM   28  C   UNL     1     -40.389  53.173 -52.824  1.00  0.00     0.040 A 
ENDBRANCH  21  22
ENDBRANCH  20  21
ENDBRANCH  18  20
ENDBRANCH   8  14
BRANCH  12  29
HETATM   29  N   UNL     1     -47.858  58.682 -57.456  1.00  0.00    -0.282 NA
HETATM   30  H   UNL     1     -47.939  59.687 -57.320  1.00  0.00     0.126 HD
HETATM   31  H   UNL     1     -48.200  58.145 -56.664  1.00  0.00     0.126 HD
ENDBRANCH  12  29
TORSDOF 5
ENDMDL
MODEL 4
REMARK VINA RESULT:      -8.0      2.407      3.286
REMARK  5 active torsions:
REMARK  status: ('A' for Active; 'I' for Inactive)
REMARK    1  A    between atoms: C_8  and  C_9 
REMARK    2  A    between atoms: C_13  and  C_14 
REMARK    3  A    between atoms: C_14  and  O_15 
REMARK    4  A    between atoms: O_15  and  C_16 
REMARK    5  A    between atoms: C_27  and  N_28 
ROOT
HETATM    1  C   UNL     1     -42.989  55.691 -58.839  1.00  0.00     0.073 C 
HETATM    2  C   UNL     1     -44.166  56.570 -58.631  1.00  0.00     0.062 A 
HETATM    3  N   UNL     1     -45.256  56.438 -59.406  1.00  0.00    -0.177 NA
HETATM    4  N   UNL     1     -46.108  57.379 -58.947  1.00  0.00    -0.256 N 
HETATM    5  H   UNL     1     -47.013  57.480 -59.391  1.00  0.00     0.191 HD
HETATM    6  C   UNL     1     -45.598  58.082 -57.904  1.00  0.00     0.175 A 
HETATM    7  C   UNL     1     -44.343  57.588 -57.666  1.00  0.00     0.035 A 
HETATM    8  C   UNL     1     -43.495  58.156 -56.575  1.00  0.00     0.111 A 
HETATM    9  C   UNL     1     -44.278  59.271 -55.859  1.00  0.00     0.067 A 
HETATM   10  C   UNL     1     -43.571  59.918 -54.681  1.00  0.00     0.020 C 
HETATM   11  N   UNL     1     -42.984  60.455 -53.702  1.00  0.00    -0.096 N 
HETATM   12  C   UNL     1     -45.534  59.661 -56.203  1.00  0.00     0.139 A 
HETATM   13  O   UNL     1     -46.232  59.059 -57.265  1.00  0.00    -0.279 OA
ENDROOT
BRANCH   8  14
HETATM   14  C   UNL     1     -42.989  57.071 -55.639  1.00  0.00    -0.003 A 
HETATM   15  S   UNL     1     -44.035  56.429 -54.444  1.00  0.00    -0.098 SA
HETATM   16  C   UNL     1     -42.867  55.301 -53.914  1.00  0.00    -0.013 A 
HETATM   17  C   UNL     1     -43.221  54.326 -52.839  1.00  0.00     0.057 C 
HETATM   18  C   UNL     1     -41.660  55.446 -54.580  1.00  0.00    -0.020 A 
HETATM   19  C   UNL     1     -41.752  56.457 -55.594  1.00  0.00     0.026 A 
BRANCH  18  20
HETATM   20  C   UNL     1     -40.416  54.641 -54.302  1.00  0.00     0.215 C 
BRANCH  20  21
HETATM   21  O   UNL     1     -40.562  53.312 -54.800  1.00  0.00    -0.347 OA
BRANCH  21  22
HETATM   22  C   UNL     1     -40.235  52.289 -53.955  1.00  0.00     0.069 A 
HETATM   23  C   UNL     1     -40.084  50.944 -54.308  1.00  0.00     0.040 A 
HETATM   24  C   UNL     1     -39.740  50.000 -53.335  1.00  0.00     0.045 A 
HETATM   25  C   UNL     1     -39.552  50.402 -52.018  1.00  0.00     0.116 A 
HETATM   26  F   UNL     1     -39.223  49.493 -51.092  1.00  0.00    -0.206 F 
HETATM   27  C   UNL     1     -39.701  51.732 -51.652  1.00  0.00     0.045 A 
HETATM   28  C   UNL     1     -40.042  52.675 -52.623  1.00  0.00     0.040 A 
ENDBRANCH  21  22
ENDBRANCH  20  21
ENDBRANCH  18  20
ENDBRANCH   8  14
BRANCH  12  29
HETATM   29  N   UNL     1     -46.263  60.647 -55.578  1.00  0.00    -0.282 NA
HETATM   30  H   UNL     1     -46.339  60.566 -54.567  1.00  0.00     0.126 HD
HETATM   31  H   UNL     1     -47.158  60.808 -56.032  1.00  0.00     0.126 HD
ENDBRANCH  12  29
TORSDOF 5
ENDMDL
MODEL 5
REMARK VINA RESULT:      -8.0      4.160      7.750
REMARK  5 active torsions:
REMARK  status: ('A' for Active; 'I' for Inactive)
REMARK    1  A    between atoms: C_8  and  C_9 
REMARK    2  A    between atoms: C_13  and  C_14 
REMARK    3  A    between atoms: C_14  and  O_15 
REMARK    4  A    between atoms: O_15  and  C_16 
REMARK    5  A    between atoms: C_27  and  N_28 
ROOT
HETATM    1  C   UNL     1     -40.510  56.134 -50.381  1.00  0.00     0.073 C 
HETATM    2  C   UNL     1     -40.539  54.766 -49.808  1.00  0.00     0.062 A 
HETATM    3  N   UNL     1     -40.837  54.580 -48.511  1.00  0.00    -0.177 NA
HETATM    4  N   UNL     1     -40.770  53.243 -48.340  1.00  0.00    -0.256 N 
HETATM    5  H   UNL     1     -40.950  52.856 -47.421  1.00  0.00     0.191 HD
HETATM    6  C   UNL     1     -40.457  52.585 -49.485  1.00  0.00     0.175 A 
HETATM    7  C   UNL     1     -40.302  53.534 -50.461  1.00  0.00     0.035 A 
HETATM    8  C   UNL     1     -39.943  53.140 -51.856  1.00  0.00     0.111 A 
HETATM    9  C   UNL     1     -39.826  51.607 -51.931  1.00  0.00     0.067 A 
HETATM   10  C   UNL     1     -39.517  51.038 -53.305  1.00  0.00     0.020 C 
HETATM   11  N   UNL     1     -39.261  50.565 -54.446  1.00  0.00    -0.096 N 
HETATM   12  C   UNL     1     -40.012  50.776 -50.871  1.00  0.00     0.139 A 
HETATM   13  O   UNL     1     -40.335  51.268 -49.593  1.00  0.00    -0.279 OA
ENDROOT
BRANCH   8  14
HETATM   14  C   UNL     1     -40.912  53.726 -52.869  1.00  0.00    -0.003 A 
HETATM   15  S   UNL     1     -40.345  54.176 -54.421  1.00  0.00    -0.098 SA
HETATM   16  C   UNL     1     -41.907  54.618 -54.952  1.00  0.00    -0.013 A 
HETATM   17  C   UNL     1     -42.103  55.075 -56.360  1.00  0.00     0.057 C 
HETATM   18  C   UNL     1     -42.854  54.499 -53.946  1.00  0.00    -0.020 A 
HETATM   19  C   UNL     1     -42.270  53.957 -52.752  1.00  0.00     0.026 A 
BRANCH  18  20
HETATM   20  C   UNL     1     -44.310  54.865 -54.081  1.00  0.00     0.215 C 
BRANCH  20  21
HETATM   21  O   UNL     1     -44.451  56.265 -54.318  1.00  0.00    -0.347 OA
BRANCH  21  22
HETATM   22  C   UNL     1     -44.012  57.112 -53.339  1.00  0.00     0.069 A 
HETATM   23  C   UNL     1     -44.488  57.171 -52.026  1.00  0.00     0.040 A 
HETATM   24  C   UNL     1     -43.939  58.088 -51.124  1.00  0.00     0.045 A 
HETATM   25  C   UNL     1     -42.923  58.941 -51.538  1.00  0.00     0.116 A 
HETATM   26  F   UNL     1     -42.402  59.817 -50.669  1.00  0.00    -0.206 F 
HETATM   27  C   UNL     1     -42.442  58.895 -52.839  1.00  0.00     0.045 A 
HETATM   28  C   UNL     1     -42.988  57.979 -53.738  1.00  0.00     0.040 A 
ENDBRANCH  21  22
ENDBRANCH  20  21
ENDBRANCH  18  20
ENDBRANCH   8  14
BRANCH  12  29
HETATM   29  N   UNL     1     -39.923  49.404 -50.908  1.00  0.00    -0.282 NA
HETATM   30  H   UNL     1     -39.817  48.944 -50.006  1.00  0.00     0.126 HD
HETATM   31  H   UNL     1     -39.252  49.081 -51.600  1.00  0.00     0.126 HD
ENDBRANCH  12  29
TORSDOF 5
ENDMDL
MODEL 6
REMARK VINA RESULT:      -7.9      1.784      2.223
REMARK  5 active torsions:
REMARK  status: ('A' for Active; 'I' for Inactive)
REMARK    1  A    between atoms: C_8  and  C_9 
REMARK    2  A    between atoms: C_13  and  C_14 
REMARK    3  A    between atoms: C_14  and  O_15 
REMARK    4  A    between atoms: O_15  and  C_16 
REMARK    5  A    between atoms: C_27  and  N_28 
ROOT
HETATM    1  C   UNL     1     -43.434  56.951 -56.047  1.00  0.00     0.073 C 
HETATM    2  C   UNL     1     -44.291  58.074 -55.594  1.00  0.00     0.062 A 
HETATM    3  N   UNL     1     -45.414  58.383 -56.264  1.00  0.00    -0.177 NA
HETATM    4  N   UNL     1     -45.928  59.432 -55.588  1.00  0.00    -0.256 N 
HETATM    5  H   UNL     1     -46.789  59.854 -55.918  1.00  0.00     0.191 HD
HETATM    6  C   UNL     1     -45.178  59.779 -54.512  1.00  0.00     0.175 A 
HETATM    7  C   UNL     1     -44.110  58.923 -54.477  1.00  0.00     0.035 A 
HETATM    8  C   UNL     1     -43.074  59.039 -53.407  1.00  0.00     0.111 A 
HETATM    9  C   UNL     1     -43.458  60.190 -52.461  1.00  0.00     0.067 A 
HETATM   10  C   UNL     1     -42.529  60.407 -51.278  1.00  0.00     0.020 C 
HETATM   11  N   UNL     1     -41.757  60.586 -50.297  1.00  0.00    -0.096 N 
HETATM   12  C   UNL     1     -44.563  60.967 -52.614  1.00  0.00     0.139 A 
HETATM   13  O   UNL     1     -45.465  60.770 -53.676  1.00  0.00    -0.279 OA
ENDROOT
BRANCH   8  14
HETATM   14  C   UNL     1     -42.854  57.715 -52.696  1.00  0.00    -0.003 A 
HETATM   15  S   UNL     1     -44.085  57.080 -51.689  1.00  0.00    -0.098 SA
HETATM   16  C   UNL     1     -43.197  55.658 -51.364  1.00  0.00    -0.013 A 
HETATM   17  C   UNL     1     -43.807  54.587 -50.520  1.00  0.00     0.057 C 
HETATM   18  C   UNL     1     -41.941  55.680 -51.950  1.00  0.00    -0.020 A 
HETATM   19  C   UNL     1     -41.764  56.865 -52.740  1.00  0.00     0.026 A 
BRANCH  18  20
HETATM   20  C   UNL     1     -40.898  54.602 -51.803  1.00  0.00     0.215 C 
BRANCH  20  21
HETATM   21  O   UNL     1     -40.576  54.045 -53.077  1.00  0.00    -0.347 OA
BRANCH  21  22
HETATM   22  C   UNL     1     -40.276  52.712 -53.118  1.00  0.00     0.069 A 
HETATM   23  C   UNL     1     -40.335  51.888 -54.246  1.00  0.00     0.040 A 
HETATM   24  C   UNL     1     -39.991  50.536 -54.143  1.00  0.00     0.045 A 
HETATM   25  C   UNL     1     -39.594  50.015 -52.917  1.00  0.00     0.116 A 
HETATM   26  F   UNL     1     -39.266  48.720 -52.825  1.00  0.00    -0.206 F 
HETATM   27  C   UNL     1     -39.532  50.820 -51.788  1.00  0.00     0.045 A 
HETATM   28  C   UNL     1     -39.874  52.170 -51.891  1.00  0.00     0.040 A 
ENDBRANCH  21  22
ENDBRANCH  20  21
ENDBRANCH  18  20
ENDBRANCH   8  14
BRANCH  12  29
HETATM   29  N   UNL     1     -44.938  61.996 -51.780  1.00  0.00    -0.282 NA
HETATM   30  H   UNL     1     -45.652  61.769 -51.092  1.00  0.00     0.126 HD
HETATM   31  H   UNL     1     -45.138  62.850 -52.293  1.00  0.00     0.126 HD
ENDBRANCH  12  29
TORSDOF 5
ENDMDL
MODEL 7
REMARK VINA RESULT:      -7.8      3.499      4.856
REMARK  5 active torsions:
REMARK  status: ('A' for Active; 'I' for Inactive)
REMARK    1  A    between atoms: C_8  and  C_9 
REMARK    2  A    between atoms: C_13  and  C_14 
REMARK    3  A    between atoms: C_14  and  O_15 
REMARK    4  A    between atoms: O_15  and  C_16 
REMARK    5  A    between atoms: C_27  and  N_28 
ROOT
HETATM    1  C   UNL     1     -44.718  54.378 -59.746  1.00  0.00     0.073 C 
HETATM    2  C   UNL     1     -45.258  55.713 -60.102  1.00  0.00     0.062 A 
HETATM    3  N   UNL     1     -46.415  55.818 -60.778  1.00  0.00    -0.177 NA
HETATM    4  N   UNL     1     -46.596  57.147 -60.926  1.00  0.00    -0.256 N 
HETATM    5  H   UNL     1     -47.414  57.478 -61.424  1.00  0.00     0.191 HD
HETATM    6  C   UNL     1     -45.605  57.877 -60.354  1.00  0.00     0.175 A 
HETATM    7  C   UNL     1     -44.719  56.987 -59.807  1.00  0.00     0.035 A 
HETATM    8  C   UNL     1     -43.495  57.467 -59.099  1.00  0.00     0.111 A 
HETATM    9  C   UNL     1     -43.479  59.006 -59.112  1.00  0.00     0.067 A 
HETATM   10  C   UNL     1     -42.318  59.658 -58.380  1.00  0.00     0.020 C 
HETATM   11  N   UNL     1     -41.354  60.199 -57.773  1.00  0.00    -0.096 N 
HETATM   12  C   UNL     1     -44.437  59.773 -59.696  1.00  0.00     0.139 A 
HETATM   13  O   UNL     1     -45.545  59.203 -60.350  1.00  0.00    -0.279 OA
ENDROOT
BRANCH   8  14
HETATM   14  C   UNL     1     -43.383  56.869 -57.707  1.00  0.00    -0.003 A 
HETATM   15  S   UNL     1     -44.095  57.680 -56.377  1.00  0.00    -0.098 SA
HETATM   16  C   UNL     1     -43.656  56.443 -55.285  1.00  0.00    -0.013 A 
HETATM   17  C   UNL     1     -44.077  56.541 -53.855  1.00  0.00     0.057 C 
HETATM   18  C   UNL     1     -42.909  55.447 -55.895  1.00  0.00    -0.020 A 
HETATM   19  C   UNL     1     -42.780  55.692 -57.303  1.00  0.00     0.026 A 
BRANCH  18  20
HETATM   20  C   UNL     1     -42.324  54.250 -55.191  1.00  0.00     0.215 C 
BRANCH  20  21
HETATM   21  O   UNL     1     -41.203  54.638 -54.398  1.00  0.00    -0.347 OA
BRANCH  21  22
HETATM   22  C   UNL     1     -40.677  53.697 -53.557  1.00  0.00     0.069 A 
HETATM   23  C   UNL     1     -40.591  53.792 -52.164  1.00  0.00     0.040 A 
HETATM   24  C   UNL     1     -40.031  52.744 -51.426  1.00  0.00     0.045 A 
HETATM   25  C   UNL     1     -39.559  51.613 -52.080  1.00  0.00     0.116 A 
HETATM   26  F   UNL     1     -39.024  50.613 -51.367  1.00  0.00    -0.206 F 
HETATM   27  C   UNL     1     -39.636  51.505 -53.461  1.00  0.00     0.045 A 
HETATM   28  C   UNL     1     -40.196  52.550 -54.198  1.00  0.00     0.040 A 
ENDBRANCH  21  22
ENDBRANCH  20  21
ENDBRANCH  18  20
ENDBRANCH   8  14
BRANCH  12  29
HETATM   29  N   UNL     1     -44.456  61.149 -59.717  1.00  0.00    -0.282 NA
HETATM   30  H   UNL     1     -44.207  61.607 -58.843  1.00  0.00     0.126 HD
HETATM   31  H   UNL     1     -45.312  61.514 -60.126  1.00  0.00     0.126 HD
ENDBRANCH  12  29
TORSDOF 5
ENDMDL
MODEL 8
REMARK VINA RESULT:      -7.6      2.147      2.867
REMARK  5 active torsions:
REMARK  status: ('A' for Active; 'I' for Inactive)
REMARK    1  A    between atoms: C_8  and  C_9 
REMARK    2  A    between atoms: C_13  and  C_14 
REMARK    3  A    between atoms: C_14  and  O_15 
REMARK    4  A    between atoms: O_15  and  C_16 
REMARK    5  A    between atoms: C_27  and  N_28 
ROOT
HETATM    1  C   UNL     1     -42.098  59.824 -56.689  1.00  0.00     0.073 C 
HETATM    2  C   UNL     1     -42.815  60.675 -55.709  1.00  0.00     0.062 A 
HETATM    3  N   UNL     1     -43.735  61.560 -56.125  1.00  0.00    -0.177 NA
HETATM    4  N   UNL     1     -44.171  62.148 -54.990  1.00  0.00    -0.256 N 
HETATM    5  H   UNL     1     -44.877  62.872 -55.053  1.00  0.00     0.191 HD
HETATM    6  C   UNL     1     -43.570  61.651 -53.880  1.00  0.00     0.175 A 
HETATM    7  C   UNL     1     -42.685  60.693 -54.300  1.00  0.00     0.035 A 
HETATM    8  C   UNL     1     -41.845  59.948 -53.316  1.00  0.00     0.111 A 
HETATM    9  C   UNL     1     -42.183  60.436 -51.896  1.00  0.00     0.067 A 
HETATM   10  C   UNL     1     -41.447  59.735 -50.767  1.00  0.00     0.020 C 
HETATM   11  N   UNL     1     -40.837  59.152 -49.830  1.00  0.00    -0.096 N 
HETATM   12  C   UNL     1     -43.096  61.405 -51.620  1.00  0.00     0.139 A 
HETATM   13  O   UNL     1     -43.821  62.050 -52.639  1.00  0.00    -0.279 OA
ENDROOT
BRANCH   8  14
HETATM   14  C   UNL     1     -41.980  58.445 -53.490  1.00  0.00    -0.003 A 
HETATM   15  S   UNL     1     -43.538  57.742 -53.598  1.00  0.00    -0.098 SA
HETATM   16  C   UNL     1     -42.903  56.178 -53.855  1.00  0.00    -0.013 A 
HETATM   17  C   UNL     1     -43.834  55.036 -54.099  1.00  0.00     0.057 C 
HETATM   18  C   UNL     1     -41.518  56.159 -53.791  1.00  0.00    -0.020 A 
HETATM   19  C   UNL     1     -40.994  57.482 -53.605  1.00  0.00     0.026 A 
BRANCH  18  20
HETATM   20  C   UNL     1     -40.662  54.925 -53.919  1.00  0.00     0.215 C 
BRANCH  20  21
HETATM   21  O   UNL     1     -40.577  54.246 -52.667  1.00  0.00    -0.347 OA
BRANCH  21  22
HETATM   22  C   UNL     1     -40.237  52.922 -52.696  1.00  0.00     0.069 A 
HETATM   23  C   UNL     1     -39.835  52.150 -51.601  1.00  0.00     0.040 A 
HETATM   24  C   UNL     1     -39.521  50.799 -51.776  1.00  0.00     0.045 A 
HETATM   25  C   UNL     1     -39.607  50.228 -53.040  1.00  0.00     0.116 A 
HETATM   26  F   UNL     1     -39.305  48.933 -53.201  1.00  0.00    -0.206 F 
HETATM   27  C   UNL     1     -40.002  50.981 -54.136  1.00  0.00     0.045 A 
HETATM   28  C   UNL     1     -40.317  52.330 -53.961  1.00  0.00     0.040 A 
ENDBRANCH  21  22
ENDBRANCH  20  21
ENDBRANCH  18  20
ENDBRANCH   8  14
BRANCH  12  29
HETATM   29  N   UNL     1     -43.427  61.856 -50.363  1.00  0.00    -0.282 NA
HETATM   30  H   UNL     1     -42.835  62.595 -49.990  1.00  0.00     0.126 HD
HETATM   31  H   UNL     1     -43.570  61.093 -49.707  1.00  0.00     0.126 HD
ENDBRANCH  12  29
TORSDOF 5
ENDMDL
MODEL 9
REMARK VINA RESULT:      -7.6      2.313      4.018
REMARK  5 active torsions:
REMARK  status: ('A' for Active; 'I' for Inactive)
REMARK    1  A    between atoms: C_8  and  C_9 
REMARK    2  A    between atoms: C_13  and  C_14 
REMARK    3  A    between atoms: C_14  and  O_15 
REMARK    4  A    between atoms: O_15  and  C_16 
REMARK    5  A    between atoms: C_27  and  N_28 
ROOT
HETATM    1  C   UNL     1     -45.690  59.137 -50.900  1.00  0.00     0.073 C 
HETATM    2  C   UNL     1     -45.713  59.716 -52.266  1.00  0.00     0.062 A 
HETATM    3  N   UNL     1     -46.261  60.923 -52.481  1.00  0.00    -0.177 NA
HETATM    4  N   UNL     1     -46.111  61.127 -53.807  1.00  0.00    -0.256 N 
HETATM    5  H   UNL     1     -46.464  61.986 -54.214  1.00  0.00     0.191 HD
HETATM    6  C   UNL     1     -45.475  60.100 -54.425  1.00  0.00     0.175 A 
HETATM    7  C   UNL     1     -45.197  59.166 -53.462  1.00  0.00     0.035 A 
HETATM    8  C   UNL     1     -44.500  57.893 -53.815  1.00  0.00     0.111 A 
HETATM    9  C   UNL     1     -44.188  57.893 -55.322  1.00  0.00     0.067 A 
HETATM   10  C   UNL     1     -43.426  56.683 -55.835  1.00  0.00     0.020 C 
HETATM   11  N   UNL     1     -42.793  55.678 -56.261  1.00  0.00    -0.096 N 
HETATM   12  C   UNL     1     -44.522  58.901 -56.170  1.00  0.00     0.139 A 
HETATM   13  O   UNL     1     -45.196  60.052 -55.722  1.00  0.00    -0.279 OA
ENDROOT
BRANCH   8  14
HETATM   14  C   UNL     1     -43.278  57.665 -52.941  1.00  0.00    -0.003 A 
HETATM   15  S   UNL     1     -42.160  58.939 -52.699  1.00  0.00    -0.098 SA
HETATM   16  C   UNL     1     -41.210  58.010 -51.626  1.00  0.00    -0.013 A 
HETATM   17  C   UNL     1     -40.020  58.631 -50.971  1.00  0.00     0.057 C 
HETATM   18  C   UNL     1     -41.684  56.713 -51.497  1.00  0.00    -0.020 A 
HETATM   19  C   UNL     1     -42.897  56.534 -52.243  1.00  0.00     0.026 A 
BRANCH  18  20
HETATM   20  C   UNL     1     -41.036  55.634 -50.670  1.00  0.00     0.215 C 
BRANCH  20  21
HETATM   21  O   UNL     1     -41.672  54.378 -50.905  1.00  0.00    -0.347 OA
BRANCH  21  22
HETATM   22  C   UNL     1     -41.049  53.513 -51.761  1.00  0.00     0.069 A 
HETATM   23  C   UNL     1     -41.208  53.470 -53.150  1.00  0.00     0.040 A 
HETATM   24  C   UNL     1     -40.498  52.531 -53.906  1.00  0.00     0.045 A 
HETATM   25  C   UNL     1     -39.640  51.641 -53.273  1.00  0.00     0.116 A 
HETATM   26  F   UNL     1     -38.964  50.744 -54.003  1.00  0.00    -0.206 F 
HETATM   27  C   UNL     1     -39.473  51.670 -51.896  1.00  0.00     0.045 A 
HETATM   28  C   UNL     1     -40.179  52.608 -51.141  1.00  0.00     0.040 A 
ENDBRANCH  21  22
ENDBRANCH  20  21
ENDBRANCH  18  20
ENDBRANCH   8  14
BRANCH  12  29
HETATM   29  N   UNL     1     -44.250  58.934 -57.518  1.00  0.00    -0.282 NA
HETATM   30  H   UNL     1     -44.952  58.512 -58.121  1.00  0.00     0.126 HD
HETATM   31  H   UNL     1     -43.306  58.619 -57.727  1.00  0.00     0.126 HD
ENDBRANCH  12  29
TORSDOF 5
ENDMDL
MODEL 10
REMARK VINA RESULT:      -7.5     15.232     17.807
REMARK  5 active torsions:
REMARK  status: ('A' for Active; 'I' for Inactive)
REMARK    1  A    between atoms: C_8  and  C_9 
REMARK    2  A    between atoms: C_13  and  C_14 
REMARK    3  A    between atoms: C_14  and  O_15 
REMARK    4  A    between atoms: O_15  and  C_16 
REMARK    5  A    between atoms: C_27  and  N_28 
ROOT
HETATM    1  C   UNL     1     -33.703  38.676 -57.724  1.00  0.00     0.073 C 
HETATM    2  C   UNL     1     -33.692  39.582 -56.550  1.00  0.00     0.062 A 
HETATM    3  N   UNL     1     -32.528  39.950 -55.989  1.00  0.00    -0.177 NA
HETATM    4  N   UNL     1     -32.890  40.757 -54.969  1.00  0.00    -0.256 N 
HETATM    5  H   UNL     1     -32.168  41.158 -54.381  1.00  0.00     0.191 HD
HETATM    6  C   UNL     1     -34.234  40.920 -54.882  1.00  0.00     0.175 A 
HETATM    7  C   UNL     1     -34.792  40.178 -55.890  1.00  0.00     0.035 A 
HETATM    8  C   UNL     1     -36.273  40.132 -56.072  1.00  0.00     0.111 A 
HETATM    9  C   UNL     1     -36.938  41.022 -55.007  1.00  0.00     0.067 A 
HETATM   10  C   UNL     1     -38.451  41.127 -55.089  1.00  0.00     0.020 C 
HETATM   11  N   UNL     1     -39.708  41.215 -55.157  1.00  0.00    -0.096 N 
HETATM   12  C   UNL     1     -36.254  41.713 -54.056  1.00  0.00     0.139 A 
HETATM   13  O   UNL     1     -34.851  41.667 -53.974  1.00  0.00    -0.279 OA
ENDROOT
BRANCH   8  14
HETATM   14  C   UNL     1     -36.672  40.486 -57.495  1.00  0.00    -0.003 A 
HETATM   15  S   UNL     1     -36.847  42.130 -57.941  1.00  0.00    -0.098 SA
HETATM   16  C   UNL     1     -37.186  41.736 -59.568  1.00  0.00    -0.013 A 
HETATM   17  C   UNL     1     -37.392  42.831 -60.563  1.00  0.00     0.057 C 
HETATM   18  C   UNL     1     -37.242  40.365 -59.773  1.00  0.00    -0.020 A 
HETATM   19  C   UNL     1     -36.917  39.653 -58.571  1.00  0.00     0.026 A 
BRANCH  18  20
HETATM   20  C   UNL     1     -37.575  39.700 -61.083  1.00  0.00     0.215 C 
BRANCH  20  21
HETATM   21  O   UNL     1     -38.029  38.365 -60.862  1.00  0.00    -0.347 OA
BRANCH  21  22
HETATM   22  C   UNL     1     -39.316  38.075 -61.223  1.00  0.00     0.069 A 
HETATM   23  C   UNL     1     -40.376  37.809 -60.351  1.00  0.00     0.040 A 
HETATM   24  C   UNL     1     -41.649  37.533 -60.862  1.00  0.00     0.045 A 
HETATM   25  C   UNL     1     -41.853  37.519 -62.236  1.00  0.00     0.116 A 
HETATM   26  F   UNL     1     -43.074  37.253 -62.719  1.00  0.00    -0.206 F 
HETATM   27  C   UNL     1     -40.810  37.779 -63.114  1.00  0.00     0.045 A 
HETATM   28  C   UNL     1     -39.541  38.057 -62.604  1.00  0.00     0.040 A 
ENDBRANCH  21  22
ENDBRANCH  20  21
ENDBRANCH  18  20
ENDBRANCH   8  14
BRANCH  12  29
HETATM   29  N   UNL     1     -36.818  42.523 -53.097  1.00  0.00    -0.282 NA
HETATM   30  H   UNL     1     -37.583  42.112 -52.567  1.00  0.00     0.126 HD
HETATM   31  H   UNL     1     -37.036  43.448 -53.457  1.00  0.00     0.126 HD
ENDBRANCH  12  29
TORSDOF 5
ENDMDL
