MODEL 1
REMARK VINA RESULT:      -9.5      0.000      0.000
REMARK  5 active torsions:
REMARK  status: ('A' for Active; 'I' for Inactive)
REMARK    1  A    between atoms: C_4  and  C_5 
REMARK       I    between atoms: C_5  and  N_6 
REMARK    2  A    between atoms: C_9  and  C_10 
REMARK    3  A    between atoms: C_10  and  C_11 
REMARK    4  A    between atoms: N_20  and  C_21 
REMARK    5  A    between atoms: C_21  and  C_22 
ROOT
HETATM    1  C   UNL     1     -42.627  58.256 -51.981  1.00  0.00     0.148 A 
HETATM    2  N   UNL     1     -43.059  57.490 -50.816  1.00  0.00    -0.320 N 
HETATM    3  C   UNL     1     -43.325  56.173 -51.097  1.00  0.00     0.326 A 
HETATM    4  O   UNL     1     -43.619  55.345 -50.253  1.00  0.00    -0.247 OA
HETATM    5  N   UNL     1     -43.241  55.993 -52.436  1.00  0.00    -0.263 N 
HETATM    6  C   UNL     1     -42.877  57.156 -53.049  1.00  0.00     0.262 A 
HETATM    7  O   UNL     1     -42.771  57.296 -54.261  1.00  0.00    -0.270 OA
HETATM    8  H   UNL     1     -42.942  57.769 -49.850  1.00  0.00     0.166 HD
ENDROOT
BRANCH   1   9
HETATM    9  C   UNL     1     -43.520  59.534 -52.139  1.00  0.00     0.031 C 
HETATM   10  C   UNL     1     -45.019  59.368 -51.818  1.00  0.00     0.028 C 
HETATM   11  C   UNL     1     -45.407  59.549 -50.354  1.00  0.00     0.126 C 
HETATM   12  N   UNL     1     -44.796  60.719 -49.716  1.00  0.00    -0.350 N 
HETATM   13  C   UNL     1     -45.399  61.135 -48.522  1.00  0.00     0.251 C 
HETATM   14  C   UNL     1     -43.372  60.926 -49.974  1.00  0.00     0.126 C 
HETATM   15  O   UNL     1     -46.388  60.563 -48.057  1.00  0.00    -0.271 OA
HETATM   16  C   UNL     1     -43.004  60.809 -51.446  1.00  0.00     0.028 C 
BRANCH  13  17
HETATM   17  C   UNL     1     -44.833  62.395 -47.808  1.00  0.00     0.279 C 
HETATM   18  N   UNL     1     -45.215  62.535 -46.312  1.00  0.00    -0.062 N 
HETATM   19  C   UNL     1     -44.721  61.378 -45.485  1.00  0.00     0.270 C 
HETATM   20  H   UNL     1     -44.718  63.364 -45.965  1.00  0.00     0.280 HD
HETATM   21  C   UNL     1     -46.686  62.792 -46.080  1.00  0.00     0.235 C 
HETATM   22  C   UNL     1     -47.112  64.040 -46.836  1.00  0.00     0.028 C 
HETATM   23  C   UNL     1     -46.764  63.965 -48.316  1.00  0.00     0.004 C 
HETATM   24  C   UNL     1     -45.280  63.674 -48.526  1.00  0.00     0.043 C 
ENDBRANCH  13  17
ENDBRANCH   1   9
BRANCH   1  25
HETATM   25  C   UNL     1     -41.152  58.613 -51.802  1.00  0.00    -0.003 A 
HETATM   26  C   UNL     1     -40.288  58.840 -52.873  1.00  0.00     0.126 A 
HETATM   27  N   UNL     1     -38.985  59.182 -52.746  1.00  0.00    -0.272 NA
HETATM   28  C   UNL     1     -38.494  59.298 -51.496  1.00  0.00     0.116 A 
HETATM   29  C   UNL     1     -39.254  59.102 -50.359  1.00  0.00     0.020 A 
HETATM   30  C   UNL     1     -40.596  58.761 -50.518  1.00  0.00     0.013 A 
ENDBRANCH   1  25
BRANCH   5  31
HETATM   31  C   UNL     1     -43.474  54.738 -53.114  1.00  0.00     0.175 C 
BRANCH  31  32
HETATM   32  C   UNL     1     -42.213  53.916 -53.225  1.00  0.00    -0.040 A 
HETATM   33  C   UNL     1     -41.752  53.490 -54.480  1.00  0.00     0.012 A 
HETATM   34  C   UNL     1     -40.592  52.721 -54.581  1.00  0.00     0.043 A 
HETATM   35  C   UNL     1     -39.900  52.367 -53.429  1.00  0.00     0.116 A 
HETATM   36  F   UNL     1     -38.785  51.631 -53.528  1.00  0.00    -0.206 F 
HETATM   37  C   UNL     1     -40.347  52.765 -52.175  1.00  0.00     0.043 A 
HETATM   38  C   UNL     1     -41.505  53.537 -52.071  1.00  0.00     0.012 A 
ENDBRANCH  31  32
ENDBRANCH   5  31
TORSDOF 5
ENDMDL
MODEL 2
REMARK VINA RESULT:      -9.1      3.721      6.622
REMARK  5 active torsions:
REMARK  status: ('A' for Active; 'I' for Inactive)
REMARK    1  A    between atoms: C_4  and  C_5 
REMARK       I    between atoms: C_5  and  N_6 
REMARK    2  A    between atoms: C_9  and  C_10 
REMARK    3  A    between atoms: C_10  and  C_11 
REMARK    4  A    between atoms: N_20  and  C_21 
REMARK    5  A    between atoms: C_21  and  C_22 
ROOT
HETATM    1  C   UNL     1     -42.742  58.467 -52.384  1.00  0.00     0.148 A 
HETATM    2  N   UNL     1     -43.585  58.010 -51.284  1.00  0.00    -0.320 N 
HETATM    3  C   UNL     1     -43.872  56.670 -51.337  1.00  0.00     0.326 A 
HETATM    4  O   UNL     1     -44.491  56.073 -50.473  1.00  0.00    -0.247 OA
HETATM    5  N   UNL     1     -43.392  56.172 -52.501  1.00  0.00    -0.263 N 
HETATM    6  C   UNL     1     -42.749  57.147 -53.204  1.00  0.00     0.262 A 
HETATM    7  O   UNL     1     -42.257  56.991 -54.314  1.00  0.00    -0.270 OA
HETATM    8  H   UNL     1     -43.750  58.511 -50.419  1.00  0.00     0.166 HD
ENDROOT
BRANCH   1   9
HETATM    9  C   UNL     1     -43.418  59.685 -53.103  1.00  0.00     0.031 C 
HETATM   10  C   UNL     1     -42.514  60.522 -54.031  1.00  0.00     0.028 C 
HETATM   11  C   UNL     1     -42.398  60.023 -55.468  1.00  0.00     0.126 C 
HETATM   12  N   UNL     1     -43.679  59.650 -56.075  1.00  0.00    -0.350 N 
HETATM   13  C   UNL     1     -43.675  59.551 -57.472  1.00  0.00     0.251 C 
HETATM   14  C   UNL     1     -44.577  58.847 -55.247  1.00  0.00     0.126 C 
HETATM   15  O   UNL     1     -42.664  59.783 -58.140  1.00  0.00    -0.271 OA
HETATM   16  C   UNL     1     -44.740  59.389 -53.835  1.00  0.00     0.028 C 
BRANCH  13  17
HETATM   17  C   UNL     1     -45.008  59.200 -58.192  1.00  0.00     0.279 C 
HETATM   18  N   UNL     1     -44.879  58.202 -59.372  1.00  0.00    -0.062 N 
HETATM   19  C   UNL     1     -44.323  56.873 -58.938  1.00  0.00     0.270 C 
HETATM   20  H   UNL     1     -45.836  58.017 -59.697  1.00  0.00     0.280 HD
HETATM   21  C   UNL     1     -44.125  58.756 -60.559  1.00  0.00     0.235 C 
HETATM   22  C   UNL     1     -44.796  60.033 -61.040  1.00  0.00     0.028 C 
HETATM   23  C   UNL     1     -44.952  61.058 -59.925  1.00  0.00     0.004 C 
HETATM   24  C   UNL     1     -45.688  60.467 -58.724  1.00  0.00     0.043 C 
ENDBRANCH  13  17
ENDBRANCH   1   9
BRANCH   1  25
HETATM   25  C   UNL     1     -41.370  58.832 -51.819  1.00  0.00    -0.003 A 
HETATM   26  C   UNL     1     -40.203  58.813 -52.582  1.00  0.00     0.126 A 
HETATM   27  N   UNL     1     -38.978  59.154 -52.117  1.00  0.00    -0.272 NA
HETATM   28  C   UNL     1     -38.889  59.526 -50.825  1.00  0.00     0.116 A 
HETATM   29  C   UNL     1     -39.975  59.588 -49.974  1.00  0.00     0.020 A 
HETATM   30  C   UNL     1     -41.226  59.242 -50.481  1.00  0.00     0.013 A 
ENDBRANCH   1  25
BRANCH   5  31
HETATM   31  C   UNL     1     -43.518  54.795 -52.921  1.00  0.00     0.175 C 
BRANCH  31  32
HETATM   32  C   UNL     1     -42.263  54.005 -52.643  1.00  0.00    -0.040 A 
HETATM   33  C   UNL     1     -41.543  53.422 -53.698  1.00  0.00     0.012 A 
HETATM   34  C   UNL     1     -40.388  52.682 -53.439  1.00  0.00     0.043 A 
HETATM   35  C   UNL     1     -39.960  52.514 -52.127  1.00  0.00     0.116 A 
HETATM   36  F   UNL     1     -38.851  51.805 -51.881  1.00  0.00    -0.206 F 
HETATM   37  C   UNL     1     -40.667  53.068 -51.067  1.00  0.00     0.043 A 
HETATM   38  C   UNL     1     -41.820  53.811 -51.323  1.00  0.00     0.012 A 
ENDBRANCH  31  32
ENDBRANCH   5  31
TORSDOF 5
ENDMDL
MODEL 3
REMARK VINA RESULT:      -9.1      3.481      7.455
REMARK  5 active torsions:
REMARK  status: ('A' for Active; 'I' for Inactive)
REMARK    1  A    between atoms: C_4  and  C_5 
REMARK       I    between atoms: C_5  and  N_6 
REMARK    2  A    between atoms: C_9  and  C_10 
REMARK    3  A    between atoms: C_10  and  C_11 
REMARK    4  A    between atoms: N_20  and  C_21 
REMARK    5  A    between atoms: C_21  and  C_22 
ROOT
HETATM    1  C   UNL     1     -42.953  57.623 -52.222  1.00  0.00     0.148 A 
HETATM    2  N   UNL     1     -43.764  56.475 -52.617  1.00  0.00    -0.320 N 
HETATM    3  C   UNL     1     -43.387  55.305 -52.007  1.00  0.00     0.326 A 
HETATM    4  O   UNL     1     -43.984  54.250 -52.135  1.00  0.00    -0.247 OA
HETATM    5  N   UNL     1     -42.253  55.532 -51.303  1.00  0.00    -0.263 N 
HETATM    6  C   UNL     1     -41.894  56.844 -51.394  1.00  0.00     0.262 A 
HETATM    7  O   UNL     1     -40.883  57.322 -50.894  1.00  0.00    -0.270 OA
HETATM    8  H   UNL     1     -44.668  56.519 -53.071  1.00  0.00     0.166 HD
ENDROOT
BRANCH   1   9
HETATM    9  C   UNL     1     -42.387  58.338 -53.497  1.00  0.00     0.031 C 
HETATM   10  C   UNL     1     -41.401  57.525 -54.359  1.00  0.00     0.028 C 
HETATM   11  C   UNL     1     -42.031  56.625 -55.417  1.00  0.00     0.126 C 
HETATM   12  N   UNL     1     -43.095  57.271 -56.192  1.00  0.00    -0.350 N 
HETATM   13  C   UNL     1     -43.435  56.635 -57.392  1.00  0.00     0.251 C 
HETATM   14  C   UNL     1     -44.069  58.050 -55.429  1.00  0.00     0.126 C 
HETATM   15  O   UNL     1     -42.860  55.612 -57.773  1.00  0.00    -0.271 OA
HETATM   16  C   UNL     1     -43.429  58.994 -54.422  1.00  0.00     0.028 C 
BRANCH  13  17
HETATM   17  C   UNL     1     -44.525  57.283 -58.290  1.00  0.00     0.279 C 
HETATM   18  N   UNL     1     -44.550  56.791 -59.760  1.00  0.00    -0.062 N 
HETATM   19  C   UNL     1     -44.807  55.311 -59.864  1.00  0.00     0.270 C 
HETATM   20  H   UNL     1     -45.356  57.250 -60.203  1.00  0.00     0.280 HD
HETATM   21  C   UNL     1     -43.334  57.199 -60.560  1.00  0.00     0.235 C 
HETATM   22  C   UNL     1     -43.186  58.711 -60.529  1.00  0.00     0.028 C 
HETATM   23  C   UNL     1     -43.155  59.259 -59.109  1.00  0.00     0.004 C 
HETATM   24  C   UNL     1     -44.376  58.809 -58.311  1.00  0.00     0.043 C 
ENDBRANCH  13  17
ENDBRANCH   1   9
BRANCH   1  25
HETATM   25  C   UNL     1     -43.821  58.559 -51.383  1.00  0.00    -0.003 A 
HETATM   26  C   UNL     1     -45.110  58.230 -50.962  1.00  0.00     0.126 A 
HETATM   27  N   UNL     1     -45.892  59.027 -50.198  1.00  0.00    -0.272 NA
HETATM   28  C   UNL     1     -45.388  60.223 -49.833  1.00  0.00     0.116 A 
HETATM   29  C   UNL     1     -44.124  60.655 -50.185  1.00  0.00     0.020 A 
HETATM   30  C   UNL     1     -43.335  59.811 -50.963  1.00  0.00     0.013 A 
ENDBRANCH   1  25
BRANCH   5  31
HETATM   31  C   UNL     1     -41.545  54.530 -50.539  1.00  0.00     0.175 C 
BRANCH  31  32
HETATM   32  C   UNL     1     -40.852  53.529 -51.431  1.00  0.00    -0.040 A 
HETATM   33  C   UNL     1     -40.848  53.703 -52.823  1.00  0.00     0.012 A 
HETATM   34  C   UNL     1     -40.217  52.771 -53.649  1.00  0.00     0.043 A 
HETATM   35  C   UNL     1     -39.601  51.659 -53.084  1.00  0.00     0.116 A 
HETATM   36  F   UNL     1     -38.994  50.767 -53.877  1.00  0.00    -0.206 F 
HETATM   37  C   UNL     1     -39.607  51.460 -51.709  1.00  0.00     0.043 A 
HETATM   38  C   UNL     1     -40.235  52.392 -50.882  1.00  0.00     0.012 A 
ENDBRANCH  31  32
ENDBRANCH   5  31
TORSDOF 5
ENDMDL
MODEL 4
REMARK VINA RESULT:      -8.9      4.244      8.582
REMARK  5 active torsions:
REMARK  status: ('A' for Active; 'I' for Inactive)
REMARK    1  A    between atoms: C_4  and  C_5 
REMARK       I    between atoms: C_5  and  N_6 
REMARK    2  A    between atoms: C_9  and  C_10 
REMARK    3  A    between atoms: C_10  and  C_11 
REMARK    4  A    between atoms: N_20  and  C_21 
REMARK    5  A    between atoms: C_21  and  C_22 
ROOT
HETATM    1  C   UNL     1     -41.882  55.167 -53.225  1.00  0.00     0.148 A 
HETATM    2  N   UNL     1     -41.075  56.196 -53.873  1.00  0.00    -0.320 N 
HETATM    3  C   UNL     1     -40.782  57.257 -53.053  1.00  0.00     0.326 A 
HETATM    4  O   UNL     1     -40.053  58.180 -53.371  1.00  0.00    -0.247 OA
HETATM    5  N   UNL     1     -41.460  57.104 -51.891  1.00  0.00    -0.263 N 
HETATM    6  C   UNL     1     -42.164  55.936 -51.904  1.00  0.00     0.262 A 
HETATM    7  O   UNL     1     -42.905  55.564 -51.003  1.00  0.00    -0.270 OA
HETATM    8  H   UNL     1     -40.545  56.079 -54.728  1.00  0.00     0.166 HD
ENDROOT
BRANCH   1   9
HETATM    9  C   UNL     1     -43.155  54.867 -54.089  1.00  0.00     0.031 C 
HETATM   10  C   UNL     1     -44.323  55.865 -53.959  1.00  0.00     0.028 C 
HETATM   11  C   UNL     1     -44.261  57.081 -54.878  1.00  0.00     0.126 C 
HETATM   12  N   UNL     1     -43.910  56.763 -56.265  1.00  0.00    -0.350 N 
HETATM   13  C   UNL     1     -44.203  57.762 -57.202  1.00  0.00     0.251 C 
HETATM   14  C   UNL     1     -42.802  55.829 -56.454  1.00  0.00     0.126 C 
HETATM   15  O   UNL     1     -44.737  58.825 -56.877  1.00  0.00    -0.271 OA
HETATM   16  C   UNL     1     -42.907  54.586 -55.583  1.00  0.00     0.028 C 
BRANCH  13  17
HETATM   17  C   UNL     1     -43.898  57.482 -58.701  1.00  0.00     0.279 C 
HETATM   18  N   UNL     1     -43.793  58.740 -59.600  1.00  0.00    -0.062 N 
HETATM   19  C   UNL     1     -42.693  59.668 -59.159  1.00  0.00     0.270 C 
HETATM   20  H   UNL     1     -43.523  58.405 -60.533  1.00  0.00     0.280 HD
HETATM   21  C   UNL     1     -45.101  59.477 -59.774  1.00  0.00     0.235 C 
HETATM   22  C   UNL     1     -46.149  58.531 -60.339  1.00  0.00     0.028 C 
HETATM   23  C   UNL     1     -46.302  57.271 -59.498  1.00  0.00     0.004 C 
HETATM   24  C   UNL     1     -44.963  56.561 -59.309  1.00  0.00     0.043 C 
ENDBRANCH  13  17
ENDBRANCH   1   9
BRANCH   1  25
HETATM   25  C   UNL     1     -41.016  53.923 -53.038  1.00  0.00    -0.003 A 
HETATM   26  C   UNL     1     -40.581  53.479 -51.789  1.00  0.00     0.126 A 
HETATM   27  N   UNL     1     -39.835  52.368 -51.589  1.00  0.00    -0.272 NA
HETATM   28  C   UNL     1     -39.485  51.653 -52.677  1.00  0.00     0.116 A 
HETATM   29  C   UNL     1     -39.860  51.992 -53.963  1.00  0.00     0.020 A 
HETATM   30  C   UNL     1     -40.637  53.135 -54.140  1.00  0.00     0.013 A 
ENDBRANCH   1  25
BRANCH   5  31
HETATM   31  C   UNL     1     -41.418  58.033 -50.785  1.00  0.00     0.175 C 
BRANCH  31  32
HETATM   32  C   UNL     1     -42.351  59.201 -50.995  1.00  0.00    -0.040 A 
HETATM   33  C   UNL     1     -41.994  60.482 -50.547  1.00  0.00     0.012 A 
HETATM   34  C   UNL     1     -42.861  61.560 -50.732  1.00  0.00     0.043 A 
HETATM   35  C   UNL     1     -44.088  61.356 -51.352  1.00  0.00     0.116 A 
HETATM   36  F   UNL     1     -44.919  62.391 -51.530  1.00  0.00    -0.206 F 
HETATM   37  C   UNL     1     -44.468  60.092 -51.788  1.00  0.00     0.043 A 
HETATM   38  C   UNL     1     -43.601  59.014 -51.608  1.00  0.00     0.012 A 
ENDBRANCH  31  32
ENDBRANCH   5  31
TORSDOF 5
ENDMDL
MODEL 5
REMARK VINA RESULT:      -8.8      3.888      7.213
REMARK  5 active torsions:
REMARK  status: ('A' for Active; 'I' for Inactive)
REMARK    1  A    between atoms: C_4  and  C_5 
REMARK       I    between atoms: C_5  and  N_6 
REMARK    2  A    between atoms: C_9  and  C_10 
REMARK    3  A    between atoms: C_10  and  C_11 
REMARK    4  A    between atoms: N_20  and  C_21 
REMARK    5  A    between atoms: C_21  and  C_22 
ROOT
HETATM    1  C   UNL     1     -43.363  56.473 -53.209  1.00  0.00     0.148 A 
HETATM    2  N   UNL     1     -43.980  55.537 -52.275  1.00  0.00    -0.320 N 
HETATM    3  C   UNL     1     -43.070  54.770 -51.590  1.00  0.00     0.326 A 
HETATM    4  O   UNL     1     -43.372  53.988 -50.706  1.00  0.00    -0.247 OA
HETATM    5  N   UNL     1     -41.838  55.013 -52.093  1.00  0.00    -0.263 N 
HETATM    6  C   UNL     1     -41.902  55.963 -53.070  1.00  0.00     0.262 A 
HETATM    7  O   UNL     1     -40.944  56.344 -53.730  1.00  0.00    -0.270 OA
HETATM    8  H   UNL     1     -44.933  55.583 -51.936  1.00  0.00     0.166 HD
ENDROOT
BRANCH   1   9
HETATM    9  C   UNL     1     -43.985  56.288 -54.636  1.00  0.00     0.031 C 
HETATM   10  C   UNL     1     -45.071  57.302 -55.049  1.00  0.00     0.028 C 
HETATM   11  C   UNL     1     -44.564  58.596 -55.680  1.00  0.00     0.126 C 
HETATM   12  N   UNL     1     -43.529  58.395 -56.699  1.00  0.00    -0.350 N 
HETATM   13  C   UNL     1     -43.309  59.483 -57.554  1.00  0.00     0.251 C 
HETATM   14  C   UNL     1     -42.465  57.451 -56.364  1.00  0.00     0.126 C 
HETATM   15  O   UNL     1     -43.961  60.527 -57.461  1.00  0.00    -0.271 OA
HETATM   16  C   UNL     1     -42.982  56.138 -55.796  1.00  0.00     0.028 C 
BRANCH  13  17
HETATM   17  C   UNL     1     -42.257  59.332 -58.688  1.00  0.00     0.279 C 
HETATM   18  N   UNL     1     -41.726  60.663 -59.279  1.00  0.00    -0.062 N 
HETATM   19  C   UNL     1     -41.046  61.518 -58.243  1.00  0.00     0.270 C 
HETATM   20  H   UNL     1     -40.998  60.407 -59.957  1.00  0.00     0.280 HD
HETATM   21  C   UNL     1     -42.766  61.447 -60.046  1.00  0.00     0.235 C 
HETATM   22  C   UNL     1     -43.337  60.584 -61.160  1.00  0.00     0.028 C 
HETATM   23  C   UNL     1     -43.877  59.258 -60.643  1.00  0.00     0.004 C 
HETATM   24  C   UNL     1     -42.819  58.498 -59.845  1.00  0.00     0.043 C 
ENDBRANCH  13  17
ENDBRANCH   1   9
BRANCH   1  25
HETATM   25  C   UNL     1     -43.572  57.891 -52.678  1.00  0.00    -0.003 A 
HETATM   26  C   UNL     1     -42.668  58.928 -52.903  1.00  0.00     0.126 A 
HETATM   27  N   UNL     1     -42.837  60.198 -52.468  1.00  0.00    -0.272 NA
HETATM   28  C   UNL     1     -43.953  60.467 -51.761  1.00  0.00     0.116 A 
HETATM   29  C   UNL     1     -44.921  59.523 -51.480  1.00  0.00     0.020 A 
HETATM   30  C   UNL     1     -44.728  58.225 -51.949  1.00  0.00     0.013 A 
ENDBRANCH   1  25
BRANCH   5  31
HETATM   31  C   UNL     1     -40.623  54.377 -51.637  1.00  0.00     0.175 C 
BRANCH  31  32
HETATM   32  C   UNL     1     -40.360  53.080 -52.363  1.00  0.00    -0.040 A 
HETATM   33  C   UNL     1     -39.737  52.011 -51.700  1.00  0.00     0.012 A 
HETATM   34  C   UNL     1     -39.484  50.815 -52.374  1.00  0.00     0.043 A 
HETATM   35  C   UNL     1     -39.842  50.692 -53.712  1.00  0.00     0.116 A 
HETATM   36  F   UNL     1     -39.600  49.544 -54.357  1.00  0.00    -0.206 F 
HETATM   37  C   UNL     1     -40.445  51.744 -54.391  1.00  0.00     0.043 A 
HETATM   38  C   UNL     1     -40.701  52.939 -53.719  1.00  0.00     0.012 A 
ENDBRANCH  31  32
ENDBRANCH   5  31
TORSDOF 5
ENDMDL
MODEL 6
REMARK VINA RESULT:      -8.8      4.059      8.417
REMARK  5 active torsions:
REMARK  status: ('A' for Active; 'I' for Inactive)
REMARK    1  A    between atoms: C_4  and  C_5 
REMARK       I    between atoms: C_5  and  N_6 
REMARK    2  A    between atoms: C_9  and  C_10 
REMARK    3  A    between atoms: C_10  and  C_11 
REMARK    4  A    between atoms: N_20  and  C_21 
REMARK    5  A    between atoms: C_21  and  C_22 
ROOT
HETATM    1  C   UNL     1     -41.787  55.996 -51.961  1.00  0.00     0.148 A 
HETATM    2  N   UNL     1     -40.748  56.957 -52.322  1.00  0.00    -0.320 N 
HETATM    3  C   UNL     1     -41.087  58.257 -52.043  1.00  0.00     0.326 A 
HETATM    4  O   UNL     1     -40.331  59.201 -52.190  1.00  0.00    -0.247 OA
HETATM    5  N   UNL     1     -42.376  58.287 -51.631  1.00  0.00    -0.263 N 
HETATM    6  C   UNL     1     -42.889  57.025 -51.585  1.00  0.00     0.262 A 
HETATM    7  O   UNL     1     -44.048  56.758 -51.292  1.00  0.00    -0.270 OA
HETATM    8  H   UNL     1     -39.779  56.734 -52.510  1.00  0.00     0.166 HD
ENDROOT
BRANCH   1   9
HETATM    9  C   UNL     1     -42.130  55.094 -53.196  1.00  0.00     0.031 C 
HETATM   10  C   UNL     1     -43.594  55.121 -53.679  1.00  0.00     0.028 C 
HETATM   11  C   UNL     1     -43.945  56.227 -54.671  1.00  0.00     0.126 C 
HETATM   12  N   UNL     1     -42.967  56.392 -55.749  1.00  0.00    -0.350 N 
HETATM   13  C   UNL     1     -43.417  57.112 -56.864  1.00  0.00     0.251 C 
HETATM   14  C   UNL     1     -41.559  56.385 -55.354  1.00  0.00     0.126 C 
HETATM   15  O   UNL     1     -44.566  57.555 -56.932  1.00  0.00    -0.271 OA
HETATM   16  C   UNL     1     -41.203  55.239 -54.418  1.00  0.00     0.028 C 
BRANCH  13  17
HETATM   17  C   UNL     1     -42.450  57.293 -58.068  1.00  0.00     0.279 C 
HETATM   18  N   UNL     1     -42.356  58.734 -58.630  1.00  0.00    -0.062 N 
HETATM   19  C   UNL     1     -41.867  59.718 -57.601  1.00  0.00     0.270 C 
HETATM   20  H   UNL     1     -41.638  58.711 -59.363  1.00  0.00     0.280 HD
HETATM   21  C   UNL     1     -43.627  59.213 -59.293  1.00  0.00     0.235 C 
HETATM   22  C   UNL     1     -44.015  58.254 -60.407  1.00  0.00     0.028 C 
HETATM   23  C   UNL     1     -44.125  56.817 -59.918  1.00  0.00     0.004 C 
HETATM   24  C   UNL     1     -42.842  56.365 -59.224  1.00  0.00     0.043 C 
ENDBRANCH  13  17
ENDBRANCH   1   9
BRANCH   1  25
HETATM   25  C   UNL     1     -41.288  55.170 -50.776  1.00  0.00    -0.003 A 
HETATM   26  C   UNL     1     -41.414  55.587 -49.451  1.00  0.00     0.126 A 
HETATM   27  N   UNL     1     -41.006  54.867 -48.381  1.00  0.00    -0.272 NA
HETATM   28  C   UNL     1     -40.429  53.673 -48.621  1.00  0.00     0.116 A 
HETATM   29  C   UNL     1     -40.253  53.155 -49.889  1.00  0.00     0.020 A 
HETATM   30  C   UNL     1     -40.693  53.911 -50.974  1.00  0.00     0.013 A 
ENDBRANCH   1  25
BRANCH   5  31
HETATM   31  C   UNL     1     -43.094  59.486 -51.263  1.00  0.00     0.175 C 
BRANCH  31  32
HETATM   32  C   UNL     1     -43.972  59.984 -52.386  1.00  0.00    -0.040 A 
HETATM   33  C   UNL     1     -45.224  60.552 -52.109  1.00  0.00     0.012 A 
HETATM   34  C   UNL     1     -46.040  61.002 -53.148  1.00  0.00     0.043 A 
HETATM   35  C   UNL     1     -45.609  60.873 -54.464  1.00  0.00     0.116 A 
HETATM   36  F   UNL     1     -46.392  61.307 -55.460  1.00  0.00    -0.206 F 
HETATM   37  C   UNL     1     -44.380  60.299 -54.761  1.00  0.00     0.043 A 
HETATM   38  C   UNL     1     -43.561  59.851 -53.724  1.00  0.00     0.012 A 
ENDBRANCH  31  32
ENDBRANCH   5  31
TORSDOF 5
ENDMDL
MODEL 7
REMARK VINA RESULT:      -8.8      3.205      7.266
REMARK  5 active torsions:
REMARK  status: ('A' for Active; 'I' for Inactive)
REMARK    1  A    between atoms: C_4  and  C_5 
REMARK       I    between atoms: C_5  and  N_6 
REMARK    2  A    between atoms: C_9  and  C_10 
REMARK    3  A    between atoms: C_10  and  C_11 
REMARK    4  A    between atoms: N_20  and  C_21 
REMARK    5  A    between atoms: C_21  and  C_22 
ROOT
HETATM    1  C   UNL     1     -44.048  59.612 -51.648  1.00  0.00     0.148 A 
HETATM    2  N   UNL     1     -44.744  58.332 -51.559  1.00  0.00    -0.320 N 
HETATM    3  C   UNL     1     -43.915  57.280 -51.258  1.00  0.00     0.326 A 
HETATM    4  O   UNL     1     -44.307  56.144 -51.057  1.00  0.00    -0.247 OA
HETATM    5  N   UNL     1     -42.636  57.723 -51.268  1.00  0.00    -0.263 N 
HETATM    6  C   UNL     1     -42.600  59.062 -51.523  1.00  0.00     0.262 A 
HETATM    7  O   UNL     1     -41.572  59.718 -51.637  1.00  0.00    -0.270 OA
HETATM    8  H   UNL     1     -45.744  58.210 -51.459  1.00  0.00     0.166 HD
ENDROOT
BRANCH   1   9
HETATM    9  C   UNL     1     -44.369  60.298 -53.020  1.00  0.00     0.031 C 
HETATM   10  C   UNL     1     -43.158  60.697 -53.887  1.00  0.00     0.028 C 
HETATM   11  C   UNL     1     -42.617  59.610 -54.811  1.00  0.00     0.126 C 
HETATM   12  N   UNL     1     -43.655  58.885 -55.549  1.00  0.00    -0.350 N 
HETATM   13  C   UNL     1     -43.207  58.159 -56.660  1.00  0.00     0.251 C 
HETATM   14  C   UNL     1     -44.827  58.470 -54.779  1.00  0.00     0.126 C 
HETATM   15  O   UNL     1     -42.020  58.152 -56.998  1.00  0.00    -0.271 OA
HETATM   16  C   UNL     1     -45.400  59.580 -53.910  1.00  0.00     0.028 C 
BRANCH  13  17
HETATM   17  C   UNL     1     -44.255  57.397 -57.518  1.00  0.00     0.279 C 
HETATM   18  N   UNL     1     -43.732  56.116 -58.218  1.00  0.00    -0.062 N 
HETATM   19  C   UNL     1     -43.231  55.091 -57.236  1.00  0.00     0.270 C 
HETATM   20  H   UNL     1     -44.543  55.691 -58.683  1.00  0.00     0.280 HD
HETATM   21  C   UNL     1     -42.714  56.387 -59.302  1.00  0.00     0.235 C 
HETATM   22  C   UNL     1     -43.307  57.330 -60.337  1.00  0.00     0.028 C 
HETATM   23  C   UNL     1     -43.840  58.611 -59.711  1.00  0.00     0.004 C 
HETATM   24  C   UNL     1     -44.843  58.313 -58.598  1.00  0.00     0.043 C 
ENDBRANCH  13  17
ENDBRANCH   1   9
BRANCH   1  25
HETATM   25  C   UNL     1     -44.480  60.478 -50.465  1.00  0.00    -0.003 A 
HETATM   26  C   UNL     1     -45.505  60.116 -49.591  1.00  0.00     0.126 A 
HETATM   27  N   UNL     1     -45.893  60.848 -48.522  1.00  0.00    -0.272 NA
HETATM   28  C   UNL     1     -45.246  62.010 -48.300  1.00  0.00     0.116 A 
HETATM   29  C   UNL     1     -44.213  62.469 -49.093  1.00  0.00     0.020 A 
HETATM   30  C   UNL     1     -43.826  61.691 -50.182  1.00  0.00     0.013 A 
ENDBRANCH   1  25
BRANCH   5  31
HETATM   31  C   UNL     1     -41.477  56.898 -51.012  1.00  0.00     0.175 C 
BRANCH  31  32
HETATM   32  C   UNL     1     -41.155  56.002 -52.183  1.00  0.00    -0.040 A 
HETATM   33  C   UNL     1     -40.994  56.545 -53.467  1.00  0.00     0.012 A 
HETATM   34  C   UNL     1     -40.707  55.715 -54.552  1.00  0.00     0.043 A 
HETATM   35  C   UNL     1     -40.593  54.343 -54.356  1.00  0.00     0.116 A 
HETATM   36  F   UNL     1     -40.316  53.548 -55.398  1.00  0.00    -0.206 F 
HETATM   37  C   UNL     1     -40.766  53.784 -53.096  1.00  0.00     0.043 A 
HETATM   38  C   UNL     1     -41.050  54.611 -52.010  1.00  0.00     0.012 A 
ENDBRANCH  31  32
ENDBRANCH   5  31
TORSDOF 5
ENDMDL
MODEL 8
REMARK VINA RESULT:      -8.7      4.199      8.286
REMARK  5 active torsions:
REMARK  status: ('A' for Active; 'I' for Inactive)
REMARK    1  A    between atoms: C_4  and  C_5 
REMARK       I    between atoms: C_5  and  N_6 
REMARK    2  A    between atoms: C_9  and  C_10 
REMARK    3  A    between atoms: C_10  and  C_11 
REMARK    4  A    between atoms: N_20  and  C_21 
REMARK    5  A    between atoms: C_21  and  C_22 
ROOT
HETATM    1  C   UNL     1     -41.662  54.271 -52.987  1.00  0.00     0.148 A 
HETATM    2  N   UNL     1     -40.941  55.516 -52.739  1.00  0.00    -0.320 N 
HETATM    3  C   UNL     1     -41.618  56.384 -51.920  1.00  0.00     0.326 A 
HETATM    4  O   UNL     1     -41.158  57.441 -51.523  1.00  0.00    -0.247 OA
HETATM    5  N   UNL     1     -42.852  55.880 -51.683  1.00  0.00    -0.263 N 
HETATM    6  C   UNL     1     -42.994  54.669 -52.292  1.00  0.00     0.262 A 
HETATM    7  O   UNL     1     -44.024  54.007 -52.285  1.00  0.00    -0.270 OA
HETATM    8  H   UNL     1     -39.954  55.669 -52.904  1.00  0.00     0.166 HD
ENDROOT
BRANCH   1   9
HETATM    9  C   UNL     1     -41.781  54.022 -54.530  1.00  0.00     0.031 C 
HETATM   10  C   UNL     1     -43.201  54.080 -55.127  1.00  0.00     0.028 C 
HETATM   11  C   UNL     1     -43.691  55.465 -55.538  1.00  0.00     0.126 C 
HETATM   12  N   UNL     1     -42.706  56.247 -56.289  1.00  0.00    -0.350 N 
HETATM   13  C   UNL     1     -43.220  57.340 -56.998  1.00  0.00     0.251 C 
HETATM   14  C   UNL     1     -41.340  56.240 -55.767  1.00  0.00     0.126 C 
HETATM   15  O   UNL     1     -44.425  57.607 -57.000  1.00  0.00    -0.271 OA
HETATM   16  C   UNL     1     -40.834  54.847 -55.422  1.00  0.00     0.028 C 
BRANCH  13  17
HETATM   17  C   UNL     1     -42.242  58.194 -57.853  1.00  0.00     0.279 C 
HETATM   18  N   UNL     1     -42.544  59.714 -57.882  1.00  0.00    -0.062 N 
HETATM   19  C   UNL     1     -42.488  60.335 -56.512  1.00  0.00     0.270 C 
HETATM   20  H   UNL     1     -41.784  60.148 -58.421  1.00  0.00     0.280 HD
HETATM   21  C   UNL     1     -43.828  60.067 -58.597  1.00  0.00     0.235 C 
HETATM   22  C   UNL     1     -43.788  59.526 -60.017  1.00  0.00     0.028 C 
HETATM   23  C   UNL     1     -43.496  58.033 -60.057  1.00  0.00     0.004 C 
HETATM   24  C   UNL     1     -42.211  57.696 -59.303  1.00  0.00     0.043 C 
ENDBRANCH  13  17
ENDBRANCH   1   9
BRANCH   1  25
HETATM   25  C   UNL     1     -40.918  53.136 -52.284  1.00  0.00    -0.003 A 
HETATM   26  C   UNL     1     -40.977  52.926 -50.907  1.00  0.00     0.126 A 
HETATM   27  N   UNL     1     -40.351  51.916 -50.259  1.00  0.00    -0.272 NA
HETATM   28  C   UNL     1     -39.613  51.067 -51.003  1.00  0.00     0.116 A 
HETATM   29  C   UNL     1     -39.484  51.173 -52.374  1.00  0.00     0.020 A 
HETATM   30  C   UNL     1     -40.148  52.215 -53.017  1.00  0.00     0.013 A 
ENDBRANCH   1  25
BRANCH   5  31
HETATM   31  C   UNL     1     -43.862  56.524 -50.874  1.00  0.00     0.175 C 
BRANCH  31  32
HETATM   32  C   UNL     1     -44.497  57.691 -51.590  1.00  0.00    -0.040 A 
HETATM   33  C   UNL     1     -44.388  57.812 -52.983  1.00  0.00     0.012 A 
HETATM   34  C   UNL     1     -44.966  58.897 -53.644  1.00  0.00     0.043 A 
HETATM   35  C   UNL     1     -45.642  59.867 -52.911  1.00  0.00     0.116 A 
HETATM   36  F   UNL     1     -46.197  60.907 -53.547  1.00  0.00    -0.206 F 
HETATM   37  C   UNL     1     -45.747  59.775 -51.529  1.00  0.00     0.043 A 
HETATM   38  C   UNL     1     -45.173  58.689 -50.867  1.00  0.00     0.012 A 
ENDBRANCH  31  32
ENDBRANCH   5  31
TORSDOF 5
ENDMDL
MODEL 9
REMARK VINA RESULT:      -8.4      3.156      5.634
REMARK  5 active torsions:
REMARK  status: ('A' for Active; 'I' for Inactive)
REMARK    1  A    between atoms: C_4  and  C_5 
REMARK       I    between atoms: C_5  and  N_6 
REMARK    2  A    between atoms: C_9  and  C_10 
REMARK    3  A    between atoms: C_10  and  C_11 
REMARK    4  A    between atoms: N_20  and  C_21 
REMARK    5  A    between atoms: C_21  and  C_22 
ROOT
HETATM    1  C   UNL     1     -41.818  54.861 -52.485  1.00  0.00     0.148 A 
HETATM    2  N   UNL     1     -43.140  54.468 -52.963  1.00  0.00    -0.320 N 
HETATM    3  C   UNL     1     -43.371  54.813 -54.271  1.00  0.00     0.326 A 
HETATM    4  O   UNL     1     -44.377  54.504 -54.886  1.00  0.00    -0.247 OA
HETATM    5  N   UNL     1     -42.332  55.560 -54.710  1.00  0.00    -0.263 N 
HETATM    6  C   UNL     1     -41.389  55.681 -53.732  1.00  0.00     0.262 A 
HETATM    7  O   UNL     1     -40.364  56.343 -53.837  1.00  0.00    -0.270 OA
HETATM    8  H   UNL     1     -43.751  53.792 -52.521  1.00  0.00     0.166 HD
ENDROOT
BRANCH   1   9
HETATM    9  C   UNL     1     -41.957  55.701 -51.168  1.00  0.00     0.031 C 
HETATM   10  C   UNL     1     -41.149  57.012 -51.103  1.00  0.00     0.028 C 
HETATM   11  C   UNL     1     -41.833  58.242 -51.695  1.00  0.00     0.126 C 
HETATM   12  N   UNL     1     -43.235  58.394 -51.295  1.00  0.00    -0.350 N 
HETATM   13  C   UNL     1     -43.782  59.668 -51.495  1.00  0.00     0.251 C 
HETATM   14  C   UNL     1     -44.057  57.185 -51.344  1.00  0.00     0.126 C 
HETATM   15  O   UNL     1     -43.116  60.597 -51.958  1.00  0.00    -0.271 OA
HETATM   16  C   UNL     1     -43.395  55.980 -50.693  1.00  0.00     0.028 C 
BRANCH  13  17
HETATM   17  C   UNL     1     -45.252  59.919 -51.056  1.00  0.00     0.279 C 
HETATM   18  N   UNL     1     -45.957  61.108 -51.757  1.00  0.00    -0.062 N 
HETATM   19  C   UNL     1     -46.034  60.928 -53.250  1.00  0.00     0.270 C 
HETATM   20  H   UNL     1     -46.928  61.105 -51.422  1.00  0.00     0.280 HD
HETATM   21  C   UNL     1     -45.384  62.458 -51.392  1.00  0.00     0.235 C 
HETATM   22  C   UNL     1     -45.441  62.646 -49.885  1.00  0.00     0.028 C 
HETATM   23  C   UNL     1     -44.762  61.508 -49.135  1.00  0.00     0.004 C 
HETATM   24  C   UNL     1     -45.336  60.152 -49.543  1.00  0.00     0.043 C 
ENDBRANCH  13  17
ENDBRANCH   1   9
BRANCH   1  25
HETATM   25  C   UNL     1     -40.990  53.596 -52.267  1.00  0.00    -0.003 A 
HETATM   26  C   UNL     1     -40.755  53.048 -51.006  1.00  0.00     0.126 A 
HETATM   27  N   UNL     1     -40.047  51.916 -50.784  1.00  0.00    -0.272 NA
HETATM   28  C   UNL     1     -39.529  51.288 -51.858  1.00  0.00     0.116 A 
HETATM   29  C   UNL     1     -39.699  51.734 -53.154  1.00  0.00     0.020 A 
HETATM   30  C   UNL     1     -40.441  52.896 -53.357  1.00  0.00     0.013 A 
ENDBRANCH   1  25
BRANCH   5  31
HETATM   31  C   UNL     1     -42.225  56.123 -56.037  1.00  0.00     0.175 C 
BRANCH  31  32
HETATM   32  C   UNL     1     -42.999  57.413 -56.165  1.00  0.00    -0.040 A 
HETATM   33  C   UNL     1     -44.023  57.534 -57.117  1.00  0.00     0.012 A 
HETATM   34  C   UNL     1     -44.731  58.730 -57.242  1.00  0.00     0.043 A 
HETATM   35  C   UNL     1     -44.408  59.808 -56.426  1.00  0.00     0.116 A 
HETATM   36  F   UNL     1     -45.089  60.955 -56.547  1.00  0.00    -0.206 F 
HETATM   37  C   UNL     1     -43.387  59.715 -55.489  1.00  0.00     0.043 A 
HETATM   38  C   UNL     1     -42.680  58.519 -55.359  1.00  0.00     0.012 A 
ENDBRANCH  31  32
ENDBRANCH   5  31
TORSDOF 5
ENDMDL
MODEL 10
REMARK VINA RESULT:      -8.3      3.423      7.460
REMARK  5 active torsions:
REMARK  status: ('A' for Active; 'I' for Inactive)
REMARK    1  A    between atoms: C_4  and  C_5 
REMARK       I    between atoms: C_5  and  N_6 
REMARK    2  A    between atoms: C_9  and  C_10 
REMARK    3  A    between atoms: C_10  and  C_11 
REMARK    4  A    between atoms: N_20  and  C_21 
REMARK    5  A    between atoms: C_21  and  C_22 
ROOT
HETATM    1  C   UNL     1     -44.076  57.399 -52.220  1.00  0.00     0.148 A 
HETATM    2  N   UNL     1     -44.361  56.234 -51.388  1.00  0.00    -0.320 N 
HETATM    3  C   UNL     1     -43.238  55.524 -51.042  1.00  0.00     0.326 A 
HETATM    4  O   UNL     1     -43.247  54.568 -50.287  1.00  0.00    -0.247 OA
HETATM    5  N   UNL     1     -42.178  56.044 -51.704  1.00  0.00    -0.263 N 
HETATM    6  C   UNL     1     -42.566  57.118 -52.450  1.00  0.00     0.262 A 
HETATM    7  O   UNL     1     -41.823  57.753 -53.187  1.00  0.00    -0.270 OA
HETATM    8  H   UNL     1     -45.220  56.068 -50.879  1.00  0.00     0.166 HD
ENDROOT
BRANCH   1   9
HETATM    9  C   UNL     1     -44.953  57.353 -53.519  1.00  0.00     0.031 C 
HETATM   10  C   UNL     1     -45.109  58.679 -54.289  1.00  0.00     0.028 C 
HETATM   11  C   UNL     1     -44.014  58.988 -55.306  1.00  0.00     0.126 C 
HETATM   12  N   UNL     1     -43.657  57.851 -56.160  1.00  0.00    -0.350 N 
HETATM   13  C   UNL     1     -42.952  58.174 -57.327  1.00  0.00     0.251 C 
HETATM   14  C   UNL     1     -43.485  56.564 -55.486  1.00  0.00     0.126 C 
HETATM   15  O   UNL     1     -42.673  59.339 -57.617  1.00  0.00    -0.271 OA
HETATM   16  C   UNL     1     -44.616  56.234 -54.523  1.00  0.00     0.028 C 
BRANCH  13  17
HETATM   17  C   UNL     1     -42.574  57.026 -58.304  1.00  0.00     0.279 C 
HETATM   18  N   UNL     1     -42.431  57.443 -59.790  1.00  0.00    -0.062 N 
HETATM   19  C   UNL     1     -41.359  58.479 -59.992  1.00  0.00     0.270 C 
HETATM   20  H   UNL     1     -42.115  56.606 -60.294  1.00  0.00     0.280 HD
HETATM   21  C   UNL     1     -43.733  57.861 -60.434  1.00  0.00     0.235 C 
HETATM   22  C   UNL     1     -44.748  56.736 -60.314  1.00  0.00     0.028 C 
HETATM   23  C   UNL     1     -44.935  56.279 -58.874  1.00  0.00     0.004 C 
HETATM   24  C   UNL     1     -43.604  55.891 -58.234  1.00  0.00     0.043 C 
ENDBRANCH  13  17
ENDBRANCH   1   9
BRANCH   1  25
HETATM   25  C   UNL     1     -44.348  58.656 -51.396  1.00  0.00    -0.003 A 
HETATM   26  C   UNL     1     -45.543  58.874 -50.711  1.00  0.00     0.126 A 
HETATM   27  N   UNL     1     -45.804  59.964 -49.953  1.00  0.00    -0.272 NA
HETATM   28  C   UNL     1     -44.841  60.904 -49.869  1.00  0.00     0.116 A 
HETATM   29  C   UNL     1     -43.617  60.796 -50.499  1.00  0.00     0.020 A 
HETATM   30  C   UNL     1     -43.370  59.659 -51.264  1.00  0.00     0.013 A 
ENDBRANCH   1  25
BRANCH   5  31
HETATM   31  C   UNL     1     -40.824  55.548 -51.608  1.00  0.00     0.175 C 
BRANCH  31  32
HETATM   32  C   UNL     1     -40.622  54.300 -52.434  1.00  0.00    -0.040 A 
HETATM   33  C   UNL     1     -40.118  53.132 -51.841  1.00  0.00     0.012 A 
HETATM   34  C   UNL     1     -39.920  51.982 -52.607  1.00  0.00     0.043 A 
HETATM   35  C   UNL     1     -40.215  52.002 -53.965  1.00  0.00     0.116 A 
HETATM   36  F   UNL     1     -40.027  50.897 -54.698  1.00  0.00    -0.206 F 
HETATM   37  C   UNL     1     -40.700  53.153 -54.575  1.00  0.00     0.043 A 
HETATM   38  C   UNL     1     -40.901  54.303 -53.811  1.00  0.00     0.012 A 
ENDBRANCH  31  32
ENDBRANCH   5  31
TORSDOF 5
ENDMDL
