MODEL 1
REMARK VINA RESULT:      -7.8      0.000      0.000
REMARK  8 active torsions:
REMARK  status: ('A' for Active; 'I' for Inactive)
REMARK    1  A    between atoms: O_2  and  C_3 
REMARK    2  A    between atoms: C_4  and  O_5 
REMARK    3  A    between atoms: C_8  and  C_9 
REMARK    4  A    between atoms: C_14  and  C_15 
REMARK    5  A    between atoms: N_16  and  N_17 
REMARK       I    between atoms: N_17  and  C_18 
REMARK    6  A    between atoms: C_18  and  C_19 
REMARK    7  A    between atoms: C_19  and  C_20 
REMARK    8  A    between atoms: C_20  and  C_21 
ROOT
HETATM    1  C   UNL     1     -41.118  55.274 -51.485  1.00  0.00     0.100 A 
HETATM    2  N   UNL     1     -41.344  55.252 -50.159  1.00  0.00    -0.174 NA
HETATM    3  N   UNL     1     -41.704  56.503 -49.852  1.00  0.00    -0.288 N 
HETATM    4  H   UNL     1     -41.916  56.717 -48.883  1.00  0.00     0.188 HD
HETATM    5  C   UNL     1     -41.737  57.336 -50.922  1.00  0.00     0.124 A 
HETATM    6  C   UNL     1     -41.381  56.577 -52.020  1.00  0.00     0.031 A 
ENDROOT
BRANCH   6   7
HETATM    7  C   UNL     1     -41.316  57.047 -53.387  1.00  0.00     0.154 C 
HETATM    8  N   UNL     1     -42.415  57.428 -53.961  1.00  0.00    -0.184 NA
BRANCH   8   9
HETATM    9  N   UNL     1     -42.368  57.879 -55.257  1.00  0.00    -0.247 N 
HETATM   10  C   UNL     1     -42.367  57.085 -56.396  1.00  0.00     0.237 C 
HETATM   11  O   UNL     1     -42.380  55.857 -56.418  1.00  0.00    -0.272 OA
HETATM   12  H   UNL     1     -42.638  58.853 -55.354  1.00  0.00     0.192 HD
BRANCH  10  13
HETATM   13  C   UNL     1     -42.354  57.895 -57.679  1.00  0.00     0.105 C 
BRANCH  13  14
HETATM   14  C   UNL     1     -43.741  58.021 -58.310  1.00  0.00     0.014 C 
BRANCH  14  15
HETATM   15  C   UNL     1     -43.824  57.671 -59.814  1.00  0.00    -0.014 C 
HETATM   16  C   UNL     1     -43.163  56.330 -60.179  1.00  0.00     0.004 C 
HETATM   17  C   UNL     1     -43.933  55.121 -59.650  1.00  0.00     0.000 C 
HETATM   18  C   UNL     1     -45.388  55.140 -60.108  1.00  0.00     0.000 C 
HETATM   19  C   UNL     1     -46.080  56.458 -59.773  1.00  0.00     0.000 C 
HETATM   20  C   UNL     1     -45.290  57.660 -60.289  1.00  0.00     0.004 C 
ENDBRANCH  14  15
ENDBRANCH  13  14
ENDBRANCH  10  13
ENDBRANCH   8   9
ENDBRANCH   6   7
BRANCH   1  21
HETATM   21  C   UNL     1     -40.655  54.057 -52.163  1.00  0.00    -0.002 A 
HETATM   22  C   UNL     1     -40.095  53.012 -51.413  1.00  0.00     0.053 A 
HETATM   23  C   UNL     1     -39.616  51.851 -52.034  1.00  0.00     0.102 A 
HETATM   24  C   UNL     1     -39.711  51.721 -53.433  1.00  0.00     0.101 A 
HETATM   25  C   UNL     1     -40.256  52.766 -54.184  1.00  0.00     0.040 A 
HETATM   26  C   UNL     1     -40.714  53.929 -53.555  1.00  0.00     0.017 A 
BRANCH  23  27
HETATM   27  O   UNL     1     -39.053  50.792 -51.364  1.00  0.00    -0.353 OA
HETATM   28  C   UNL     1     -39.918  49.986 -50.577  1.00  0.00     0.210 C 
ENDBRANCH  23  27
BRANCH  24  29
HETATM   29  O   UNL     1     -39.227  50.551 -53.965  1.00  0.00    -0.353 OA
HETATM   30  C   UNL     1     -40.120  49.755 -54.730  1.00  0.00     0.210 C 
ENDBRANCH  24  29
ENDBRANCH   1  21
TORSDOF 8
ENDMDL
MODEL 2
REMARK VINA RESULT:      -7.7      0.696      1.148
REMARK  8 active torsions:
REMARK  status: ('A' for Active; 'I' for Inactive)
REMARK    1  A    between atoms: O_2  and  C_3 
REMARK    2  A    between atoms: C_4  and  O_5 
REMARK    3  A    between atoms: C_8  and  C_9 
REMARK    4  A    between atoms: C_14  and  C_15 
REMARK    5  A    between atoms: N_16  and  N_17 
REMARK       I    between atoms: N_17  and  C_18 
REMARK    6  A    between atoms: C_18  and  C_19 
REMARK    7  A    between atoms: C_19  and  C_20 
REMARK    8  A    between atoms: C_20  and  C_21 
ROOT
HETATM    1  C   UNL     1     -41.292  55.383 -51.556  1.00  0.00     0.100 A 
HETATM    2  N   UNL     1     -41.061  55.577 -50.244  1.00  0.00    -0.174 NA
HETATM    3  N   UNL     1     -41.611  56.765 -49.972  1.00  0.00    -0.288 N 
HETATM    4  H   UNL     1     -41.544  57.119 -49.024  1.00  0.00     0.188 HD
HETATM    5  C   UNL     1     -42.205  57.347 -51.044  1.00  0.00     0.124 A 
HETATM    6  C   UNL     1     -42.042  56.475 -52.103  1.00  0.00     0.031 A 
ENDROOT
BRANCH   6   7
HETATM    7  C   UNL     1     -42.549  56.670 -53.444  1.00  0.00     0.154 C 
HETATM    8  N   UNL     1     -41.747  57.149 -54.343  1.00  0.00    -0.184 NA
BRANCH   8   9
HETATM    9  N   UNL     1     -42.214  57.337 -55.620  1.00  0.00    -0.247 N 
HETATM   10  C   UNL     1     -42.477  56.337 -56.548  1.00  0.00     0.237 C 
HETATM   11  O   UNL     1     -42.306  55.133 -56.377  1.00  0.00    -0.272 OA
HETATM   12  H   UNL     1     -42.649  58.244 -55.759  1.00  0.00     0.192 HD
BRANCH  10  13
HETATM   13  C   UNL     1     -43.027  56.875 -57.855  1.00  0.00     0.105 C 
BRANCH  13  14
HETATM   14  C   UNL     1     -43.638  55.782 -58.731  1.00  0.00     0.014 C 
BRANCH  14  15
HETATM   15  C   UNL     1     -43.840  56.153 -60.219  1.00  0.00    -0.014 C 
HETATM   16  C   UNL     1     -44.967  55.366 -60.910  1.00  0.00     0.004 C 
HETATM   17  C   UNL     1     -46.359  55.759 -60.415  1.00  0.00     0.000 C 
HETATM   18  C   UNL     1     -46.598  57.260 -60.548  1.00  0.00     0.000 C 
HETATM   19  C   UNL     1     -45.495  58.079 -59.884  1.00  0.00     0.000 C 
HETATM   20  C   UNL     1     -44.107  57.664 -60.371  1.00  0.00     0.004 C 
ENDBRANCH  14  15
ENDBRANCH  13  14
ENDBRANCH  10  13
ENDBRANCH   8   9
ENDBRANCH   6   7
BRANCH   1  21
HETATM   21  C   UNL     1     -40.777  54.176 -52.213  1.00  0.00    -0.002 A 
HETATM   22  C   UNL     1     -40.318  53.101 -51.436  1.00  0.00     0.053 A 
HETATM   23  C   UNL     1     -39.792  51.948 -52.033  1.00  0.00     0.102 A 
HETATM   24  C   UNL     1     -39.737  51.856 -53.437  1.00  0.00     0.101 A 
HETATM   25  C   UNL     1     -40.182  52.930 -54.213  1.00  0.00     0.040 A 
HETATM   26  C   UNL     1     -40.688  54.084 -53.606  1.00  0.00     0.017 A 
BRANCH  23  27
HETATM   27  O   UNL     1     -39.321  50.863 -51.336  1.00  0.00    -0.353 OA
HETATM   28  C   UNL     1     -40.132  50.364 -50.281  1.00  0.00     0.210 C 
ENDBRANCH  23  27
BRANCH  24  29
HETATM   29  O   UNL     1     -39.217  50.691 -53.946  1.00  0.00    -0.353 OA
HETATM   30  C   UNL     1     -40.111  49.794 -54.588  1.00  0.00     0.210 C 
ENDBRANCH  24  29
ENDBRANCH   1  21
TORSDOF 8
ENDMDL
MODEL 3
REMARK VINA RESULT:      -7.6      1.512      2.121
REMARK  8 active torsions:
REMARK  status: ('A' for Active; 'I' for Inactive)
REMARK    1  A    between atoms: O_2  and  C_3 
REMARK    2  A    between atoms: C_4  and  O_5 
REMARK    3  A    between atoms: C_8  and  C_9 
REMARK    4  A    between atoms: C_14  and  C_15 
REMARK    5  A    between atoms: N_16  and  N_17 
REMARK       I    between atoms: N_17  and  C_18 
REMARK    6  A    between atoms: C_18  and  C_19 
REMARK    7  A    between atoms: C_19  and  C_20 
REMARK    8  A    between atoms: C_20  and  C_21 
ROOT
HETATM    1  C   UNL     1     -41.429  55.295 -51.584  1.00  0.00     0.100 A 
HETATM    2  N   UNL     1     -41.056  55.591 -50.325  1.00  0.00    -0.174 NA
HETATM    3  N   UNL     1     -41.699  56.727 -50.035  1.00  0.00    -0.288 N 
HETATM    4  H   UNL     1     -41.552  57.142 -49.122  1.00  0.00     0.188 HD
HETATM    5  C   UNL     1     -42.488  57.177 -51.044  1.00  0.00     0.124 A 
HETATM    6  C   UNL     1     -42.363  56.265 -52.074  1.00  0.00     0.031 A 
ENDROOT
BRANCH   6   7
HETATM    7  C   UNL     1     -43.057  56.323 -53.343  1.00  0.00     0.154 C 
HETATM    8  N   UNL     1     -44.179  56.970 -53.403  1.00  0.00    -0.184 NA
BRANCH   8   9
HETATM    9  N   UNL     1     -44.847  57.035 -54.600  1.00  0.00    -0.247 N 
HETATM   10  C   UNL     1     -45.177  58.195 -55.289  1.00  0.00     0.237 C 
HETATM   11  O   UNL     1     -44.945  59.343 -54.917  1.00  0.00    -0.272 OA
HETATM   12  H   UNL     1     -44.829  56.161 -55.118  1.00  0.00     0.192 HD
BRANCH  10  13
HETATM   13  C   UNL     1     -45.876  57.921 -56.607  1.00  0.00     0.105 C 
BRANCH  13  14
HETATM   14  C   UNL     1     -44.925  57.983 -57.801  1.00  0.00     0.014 C 
BRANCH  14  15
HETATM   15  C   UNL     1     -43.766  56.958 -57.786  1.00  0.00    -0.014 C 
HETATM   16  C   UNL     1     -43.750  56.018 -59.004  1.00  0.00     0.004 C 
HETATM   17  C   UNL     1     -43.370  56.730 -60.302  1.00  0.00     0.000 C 
HETATM   18  C   UNL     1     -42.035  57.457 -60.172  1.00  0.00     0.000 C 
HETATM   19  C   UNL     1     -42.005  58.394 -58.968  1.00  0.00     0.000 C 
HETATM   20  C   UNL     1     -42.407  57.677 -57.680  1.00  0.00     0.004 C 
ENDBRANCH  14  15
ENDBRANCH  13  14
ENDBRANCH  10  13
ENDBRANCH   8   9
ENDBRANCH   6   7
BRANCH   1  21
HETATM   21  C   UNL     1     -40.867  54.114 -52.248  1.00  0.00    -0.002 A 
HETATM   22  C   UNL     1     -40.299  53.086 -51.480  1.00  0.00     0.053 A 
HETATM   23  C   UNL     1     -39.727  51.960 -52.087  1.00  0.00     0.102 A 
HETATM   24  C   UNL     1     -39.735  51.846 -53.490  1.00  0.00     0.101 A 
HETATM   25  C   UNL     1     -40.290  52.874 -54.258  1.00  0.00     0.040 A 
HETATM   26  C   UNL     1     -40.841  54.003 -53.643  1.00  0.00     0.017 A 
BRANCH  23  27
HETATM   27  O   UNL     1     -39.149  50.921 -51.398  1.00  0.00    -0.353 OA
HETATM   28  C   UNL     1     -40.000  50.129 -50.582  1.00  0.00     0.210 C 
ENDBRANCH  23  27
BRANCH  24  29
HETATM   29  O   UNL     1     -39.164  50.710 -54.008  1.00  0.00    -0.353 OA
HETATM   30  C   UNL     1     -40.018  49.776 -54.651  1.00  0.00     0.210 C 
ENDBRANCH  24  29
ENDBRANCH   1  21
TORSDOF 8
ENDMDL
MODEL 4
REMARK VINA RESULT:      -7.3      1.432      2.357
REMARK  8 active torsions:
REMARK  status: ('A' for Active; 'I' for Inactive)
REMARK    1  A    between atoms: O_2  and  C_3 
REMARK    2  A    between atoms: C_4  and  O_5 
REMARK    3  A    between atoms: C_8  and  C_9 
REMARK    4  A    between atoms: C_14  and  C_15 
REMARK    5  A    between atoms: N_16  and  N_17 
REMARK       I    between atoms: N_17  and  C_18 
REMARK    6  A    between atoms: C_18  and  C_19 
REMARK    7  A    between atoms: C_19  and  C_20 
REMARK    8  A    between atoms: C_20  and  C_21 
ROOT
HETATM    1  C   UNL     1     -41.414  55.485 -51.724  1.00  0.00     0.100 A 
HETATM    2  N   UNL     1     -41.124  55.786 -50.445  1.00  0.00    -0.174 NA
HETATM    3  N   UNL     1     -41.725  56.961 -50.225  1.00  0.00    -0.288 N 
HETATM    4  H   UNL     1     -41.627  57.386 -49.309  1.00  0.00     0.188 HD
HETATM    5  C   UNL     1     -42.408  57.430 -51.299  1.00  0.00     0.124 A 
HETATM    6  C   UNL     1     -42.253  56.493 -52.302  1.00  0.00     0.031 A 
ENDROOT
BRANCH   6   7
HETATM    7  C   UNL     1     -42.842  56.561 -53.622  1.00  0.00     0.154 C 
HETATM    8  N   UNL     1     -42.191  57.182 -54.556  1.00  0.00    -0.184 NA
BRANCH   8   9
HETATM    9  N   UNL     1     -42.738  57.252 -55.814  1.00  0.00    -0.247 N 
HETATM   10  C   UNL     1     -42.819  56.210 -56.728  1.00  0.00     0.237 C 
HETATM   11  O   UNL     1     -42.389  55.072 -56.561  1.00  0.00    -0.272 OA
HETATM   12  H   UNL     1     -43.360  58.045 -55.937  1.00  0.00     0.192 HD
BRANCH  10  13
HETATM   13  C   UNL     1     -43.522  56.606 -58.013  1.00  0.00     0.105 C 
BRANCH  13  14
HETATM   14  C   UNL     1     -42.749  57.659 -58.805  1.00  0.00     0.014 C 
BRANCH  14  15
HETATM   15  C   UNL     1     -43.538  58.942 -59.156  1.00  0.00    -0.014 C 
HETATM   16  C   UNL     1     -43.141  60.167 -58.312  1.00  0.00     0.004 C 
HETATM   17  C   UNL     1     -41.746  60.693 -58.643  1.00  0.00     0.000 C 
HETATM   18  C   UNL     1     -41.602  61.002 -60.130  1.00  0.00     0.000 C 
HETATM   19  C   UNL     1     -41.995  59.815 -61.005  1.00  0.00     0.000 C 
HETATM   20  C   UNL     1     -43.384  59.284 -60.651  1.00  0.00     0.004 C 
ENDBRANCH  14  15
ENDBRANCH  13  14
ENDBRANCH  10  13
ENDBRANCH   8   9
ENDBRANCH   6   7
BRANCH   1  21
HETATM   21  C   UNL     1     -40.868  54.261 -52.323  1.00  0.00    -0.002 A 
HETATM   22  C   UNL     1     -40.411  53.224 -51.495  1.00  0.00     0.053 A 
HETATM   23  C   UNL     1     -39.856  52.057 -52.037  1.00  0.00     0.102 A 
HETATM   24  C   UNL     1     -39.769  51.912 -53.435  1.00  0.00     0.101 A 
HETATM   25  C   UNL     1     -40.213  52.948 -54.261  1.00  0.00     0.040 A 
HETATM   26  C   UNL     1     -40.748  54.118 -53.709  1.00  0.00     0.017 A 
BRANCH  23  27
HETATM   27  O   UNL     1     -39.384  51.006 -51.288  1.00  0.00    -0.353 OA
HETATM   28  C   UNL     1     -40.229  50.508 -50.261  1.00  0.00     0.210 C 
ENDBRANCH  23  27
BRANCH  24  29
HETATM   29  O   UNL     1     -39.222  50.737 -53.888  1.00  0.00    -0.353 OA
HETATM   30  C   UNL     1     -40.077  49.826 -54.562  1.00  0.00     0.210 C 
ENDBRANCH  24  29
ENDBRANCH   1  21
TORSDOF 8
ENDMDL
MODEL 5
REMARK VINA RESULT:      -7.3      3.308      9.694
REMARK  8 active torsions:
REMARK  status: ('A' for Active; 'I' for Inactive)
REMARK    1  A    between atoms: O_2  and  C_3 
REMARK    2  A    between atoms: C_4  and  O_5 
REMARK    3  A    between atoms: C_8  and  C_9 
REMARK    4  A    between atoms: C_14  and  C_15 
REMARK    5  A    between atoms: N_16  and  N_17 
REMARK       I    between atoms: N_17  and  C_18 
REMARK    6  A    between atoms: C_18  and  C_19 
REMARK    7  A    between atoms: C_19  and  C_20 
REMARK    8  A    between atoms: C_20  and  C_21 
ROOT
HETATM    1  C   UNL     1     -44.799  57.226 -59.951  1.00  0.00     0.100 A 
HETATM    2  N   UNL     1     -45.945  56.980 -60.614  1.00  0.00    -0.174 NA
HETATM    3  N   UNL     1     -46.058  55.648 -60.618  1.00  0.00    -0.288 N 
HETATM    4  H   UNL     1     -46.860  55.236 -61.083  1.00  0.00     0.188 HD
HETATM    5  C   UNL     1     -45.045  55.015 -59.974  1.00  0.00     0.124 A 
HETATM    6  C   UNL     1     -44.204  56.003 -59.501  1.00  0.00     0.031 A 
ENDROOT
BRANCH   6   7
HETATM    7  C   UNL     1     -43.005  55.790 -58.718  1.00  0.00     0.154 C 
HETATM    8  N   UNL     1     -43.094  55.848 -57.426  1.00  0.00    -0.184 NA
BRANCH   8   9
HETATM    9  N   UNL     1     -41.966  55.645 -56.671  1.00  0.00    -0.247 N 
HETATM   10  C   UNL     1     -41.894  55.681 -55.285  1.00  0.00     0.237 C 
HETATM   11  O   UNL     1     -42.825  55.927 -54.523  1.00  0.00    -0.272 OA
HETATM   12  H   UNL     1     -41.227  55.165 -57.176  1.00  0.00     0.192 HD
BRANCH  10  13
HETATM   13  C   UNL     1     -40.506  55.371 -54.758  1.00  0.00     0.105 C 
BRANCH  13  14
HETATM   14  C   UNL     1     -40.130  53.898 -54.919  1.00  0.00     0.014 C 
BRANCH  14  15
HETATM   15  C   UNL     1     -41.061  52.890 -54.206  1.00  0.00    -0.014 C 
HETATM   16  C   UNL     1     -40.582  51.430 -54.294  1.00  0.00     0.004 C 
HETATM   17  C   UNL     1     -39.326  51.163 -53.467  1.00  0.00     0.000 C 
HETATM   18  C   UNL     1     -39.517  51.573 -52.010  1.00  0.00     0.000 C 
HETATM   19  C   UNL     1     -40.001  53.014 -51.877  1.00  0.00     0.000 C 
HETATM   20  C   UNL     1     -41.246  53.275 -52.725  1.00  0.00     0.004 C 
ENDBRANCH  14  15
ENDBRANCH  13  14
ENDBRANCH  10  13
ENDBRANCH   8   9
ENDBRANCH   6   7
BRANCH   1  21
HETATM   21  C   UNL     1     -44.335  58.610 -59.794  1.00  0.00    -0.002 A 
HETATM   22  C   UNL     1     -45.008  59.477 -58.920  1.00  0.00     0.053 A 
HETATM   23  C   UNL     1     -44.607  60.811 -58.772  1.00  0.00     0.102 A 
HETATM   24  C   UNL     1     -43.501  61.289 -59.500  1.00  0.00     0.101 A 
HETATM   25  C   UNL     1     -42.836  60.432 -60.380  1.00  0.00     0.040 A 
HETATM   26  C   UNL     1     -43.256  59.106 -60.534  1.00  0.00     0.017 A 
BRANCH  23  27
HETATM   27  O   UNL     1     -45.222  61.715 -57.941  1.00  0.00    -0.353 OA
HETATM   28  C   UNL     1     -45.496  61.295 -56.612  1.00  0.00     0.210 C 
ENDBRANCH  23  27
BRANCH  24  29
HETATM   29  O   UNL     1     -43.165  62.605 -59.294  1.00  0.00    -0.353 OA
HETATM   30  C   UNL     1     -41.980  62.877 -58.561  1.00  0.00     0.210 C 
ENDBRANCH  24  29
ENDBRANCH   1  21
TORSDOF 8
ENDMDL
MODEL 6
REMARK VINA RESULT:      -7.2      2.817      8.280
REMARK  8 active torsions:
REMARK  status: ('A' for Active; 'I' for Inactive)
REMARK    1  A    between atoms: O_2  and  C_3 
REMARK    2  A    between atoms: C_4  and  O_5 
REMARK    3  A    between atoms: C_8  and  C_9 
REMARK    4  A    between atoms: C_14  and  C_15 
REMARK    5  A    between atoms: N_16  and  N_17 
REMARK       I    between atoms: N_17  and  C_18 
REMARK    6  A    between atoms: C_18  and  C_19 
REMARK    7  A    between atoms: C_19  and  C_20 
REMARK    8  A    between atoms: C_20  and  C_21 
ROOT
HETATM    1  C   UNL     1     -45.421  59.088 -55.990  1.00  0.00     0.100 A 
HETATM    2  N   UNL     1     -45.856  60.361 -56.011  1.00  0.00    -0.174 NA
HETATM    3  N   UNL     1     -45.845  60.747 -54.730  1.00  0.00    -0.288 N 
HETATM    4  H   UNL     1     -46.151  61.689 -54.510  1.00  0.00     0.188 HD
HETATM    5  C   UNL     1     -45.406  59.787 -53.878  1.00  0.00     0.124 A 
HETATM    6  C   UNL     1     -45.097  58.687 -54.653  1.00  0.00     0.031 A 
ENDROOT
BRANCH   6   7
HETATM    7  C   UNL     1     -44.556  57.435 -54.168  1.00  0.00     0.154 C 
HETATM    8  N   UNL     1     -43.729  57.467 -53.169  1.00  0.00    -0.184 NA
BRANCH   8   9
HETATM    9  N   UNL     1     -43.210  56.287 -52.697  1.00  0.00    -0.247 N 
HETATM   10  C   UNL     1     -43.509  55.695 -51.477  1.00  0.00     0.237 C 
HETATM   11  O   UNL     1     -44.263  56.150 -50.622  1.00  0.00    -0.272 OA
HETATM   12  H   UNL     1     -42.811  55.704 -53.426  1.00  0.00     0.192 HD
BRANCH  10  13
HETATM   13  C   UNL     1     -42.800  54.369 -51.275  1.00  0.00     0.105 C 
BRANCH  13  14
HETATM   14  C   UNL     1     -42.258  53.787 -52.580  1.00  0.00     0.014 C 
BRANCH  14  15
HETATM   15  C   UNL     1     -40.734  53.937 -52.796  1.00  0.00    -0.014 C 
HETATM   16  C   UNL     1     -39.882  53.255 -51.710  1.00  0.00     0.004 C 
HETATM   17  C   UNL     1     -39.943  51.730 -51.774  1.00  0.00     0.000 C 
HETATM   18  C   UNL     1     -39.560  51.210 -53.156  1.00  0.00     0.000 C 
HETATM   19  C   UNL     1     -40.376  51.869 -54.265  1.00  0.00     0.000 C 
HETATM   20  C   UNL     1     -40.324  53.394 -54.179  1.00  0.00     0.004 C 
ENDBRANCH  14  15
ENDBRANCH  13  14
ENDBRANCH  10  13
ENDBRANCH   8   9
ENDBRANCH   6   7
BRANCH   1  21
HETATM   21  C   UNL     1     -45.348  58.326 -57.243  1.00  0.00    -0.002 A 
HETATM   22  C   UNL     1     -44.098  58.029 -57.807  1.00  0.00     0.053 A 
HETATM   23  C   UNL     1     -43.998  57.330 -59.018  1.00  0.00     0.102 A 
HETATM   24  C   UNL     1     -45.169  56.903 -59.673  1.00  0.00     0.101 A 
HETATM   25  C   UNL     1     -46.415  57.208 -59.119  1.00  0.00     0.040 A 
HETATM   26  C   UNL     1     -46.505  57.923 -57.919  1.00  0.00     0.017 A 
BRANCH  23  27
HETATM   27  O   UNL     1     -42.810  57.011 -59.629  1.00  0.00    -0.353 OA
HETATM   28  C   UNL     1     -41.768  57.974 -59.571  1.00  0.00     0.210 C 
ENDBRANCH  23  27
BRANCH  24  29
HETATM   29  O   UNL     1     -44.987  56.217 -60.848  1.00  0.00    -0.353 OA
HETATM   30  C   UNL     1     -45.193  54.812 -60.832  1.00  0.00     0.210 C 
ENDBRANCH  24  29
ENDBRANCH   1  21
TORSDOF 8
ENDMDL
MODEL 7
REMARK VINA RESULT:      -7.1      3.615      6.755
REMARK  8 active torsions:
REMARK  status: ('A' for Active; 'I' for Inactive)
REMARK    1  A    between atoms: O_2  and  C_3 
REMARK    2  A    between atoms: C_4  and  O_5 
REMARK    3  A    between atoms: C_8  and  C_9 
REMARK    4  A    between atoms: C_14  and  C_15 
REMARK    5  A    between atoms: N_16  and  N_17 
REMARK       I    between atoms: N_17  and  C_18 
REMARK    6  A    between atoms: C_18  and  C_19 
REMARK    7  A    between atoms: C_19  and  C_20 
REMARK    8  A    between atoms: C_20  and  C_21 
ROOT
HETATM    1  C   UNL     1     -42.324  54.501 -54.452  1.00  0.00     0.100 A 
HETATM    2  N   UNL     1     -42.875  54.080 -55.606  1.00  0.00    -0.174 NA
HETATM    3  N   UNL     1     -43.609  55.114 -56.031  1.00  0.00    -0.288 N 
HETATM    4  H   UNL     1     -44.129  55.010 -56.896  1.00  0.00     0.188 HD
HETATM    5  C   UNL     1     -43.548  56.196 -55.215  1.00  0.00     0.124 A 
HETATM    6  C   UNL     1     -42.704  55.855 -54.176  1.00  0.00     0.031 A 
ENDROOT
BRANCH   6   7
HETATM    7  C   UNL     1     -42.316  56.720 -53.082  1.00  0.00     0.154 C 
HETATM    8  N   UNL     1     -43.105  57.698 -52.761  1.00  0.00    -0.184 NA
BRANCH   8   9
HETATM    9  N   UNL     1     -42.751  58.525 -51.724  1.00  0.00    -0.247 N 
HETATM   10  C   UNL     1     -42.120  59.757 -51.842  1.00  0.00     0.237 C 
HETATM   11  O   UNL     1     -41.758  60.282 -52.891  1.00  0.00    -0.272 OA
HETATM   12  H   UNL     1     -43.249  58.324 -50.862  1.00  0.00     0.192 HD
BRANCH  10  13
HETATM   13  C   UNL     1     -41.908  60.442 -50.505  1.00  0.00     0.105 C 
BRANCH  13  14
HETATM   14  C   UNL     1     -42.970  61.501 -50.212  1.00  0.00     0.014 C 
BRANCH  14  15
HETATM   15  C   UNL     1     -44.339  60.961 -49.737  1.00  0.00    -0.014 C 
HETATM   16  C   UNL     1     -44.734  61.423 -48.323  1.00  0.00     0.004 C 
HETATM   17  C   UNL     1     -45.072  62.911 -48.255  1.00  0.00     0.000 C 
HETATM   18  C   UNL     1     -46.156  63.287 -49.261  1.00  0.00     0.000 C 
HETATM   19  C   UNL     1     -45.808  62.837 -50.676  1.00  0.00     0.000 C 
HETATM   20  C   UNL     1     -45.451  61.352 -50.729  1.00  0.00     0.004 C 
ENDBRANCH  14  15
ENDBRANCH  13  14
ENDBRANCH  10  13
ENDBRANCH   8   9
ENDBRANCH   6   7
BRANCH   1  21
HETATM   21  C   UNL     1     -41.477  53.587 -53.677  1.00  0.00    -0.002 A 
HETATM   22  C   UNL     1     -41.435  53.692 -52.278  1.00  0.00     0.053 A 
HETATM   23  C   UNL     1     -40.612  52.854 -51.514  1.00  0.00     0.102 A 
HETATM   24  C   UNL     1     -39.825  51.879 -52.155  1.00  0.00     0.101 A 
HETATM   25  C   UNL     1     -39.855  51.780 -53.549  1.00  0.00     0.040 A 
HETATM   26  C   UNL     1     -40.666  52.635 -54.305  1.00  0.00     0.017 A 
BRANCH  23  27
HETATM   27  O   UNL     1     -40.519  52.904 -50.144  1.00  0.00    -0.353 OA
HETATM   28  C   UNL     1     -39.862  54.029 -49.577  1.00  0.00     0.210 C 
ENDBRANCH  23  27
BRANCH  24  29
HETATM   29  O   UNL     1     -39.054  51.091 -51.337  1.00  0.00    -0.353 OA
HETATM   30  C   UNL     1     -39.492  49.763 -51.092  1.00  0.00     0.210 C 
ENDBRANCH  24  29
ENDBRANCH   1  21
TORSDOF 8
ENDMDL
MODEL 8
REMARK VINA RESULT:      -7.0      2.254      2.761
REMARK  8 active torsions:
REMARK  status: ('A' for Active; 'I' for Inactive)
REMARK    1  A    between atoms: O_2  and  C_3 
REMARK    2  A    between atoms: C_4  and  O_5 
REMARK    3  A    between atoms: C_8  and  C_9 
REMARK    4  A    between atoms: C_14  and  C_15 
REMARK    5  A    between atoms: N_16  and  N_17 
REMARK       I    between atoms: N_17  and  C_18 
REMARK    6  A    between atoms: C_18  and  C_19 
REMARK    7  A    between atoms: C_19  and  C_20 
REMARK    8  A    between atoms: C_20  and  C_21 
ROOT
HETATM    1  C   UNL     1     -43.611  56.351 -51.723  1.00  0.00     0.100 A 
HETATM    2  N   UNL     1     -44.510  56.430 -50.724  1.00  0.00    -0.174 NA
HETATM    3  N   UNL     1     -45.274  57.482 -51.033  1.00  0.00    -0.288 N 
HETATM    4  H   UNL     1     -46.025  57.733 -50.398  1.00  0.00     0.188 HD
HETATM    5  C   UNL     1     -44.925  58.084 -52.198  1.00  0.00     0.124 A 
HETATM    6  C   UNL     1     -43.854  57.371 -52.700  1.00  0.00     0.031 A 
ENDROOT
BRANCH   6   7
HETATM    7  C   UNL     1     -43.174  57.635 -53.950  1.00  0.00     0.154 C 
HETATM    8  N   UNL     1     -43.757  58.400 -54.820  1.00  0.00    -0.184 NA
BRANCH   8   9
HETATM    9  N   UNL     1     -43.122  58.661 -56.009  1.00  0.00    -0.247 N 
HETATM   10  C   UNL     1     -42.562  59.875 -56.385  1.00  0.00     0.237 C 
HETATM   11  O   UNL     1     -42.573  60.909 -55.722  1.00  0.00    -0.272 OA
HETATM   12  H   UNL     1     -42.814  57.823 -56.492  1.00  0.00     0.192 HD
BRANCH  10  13
HETATM   13  C   UNL     1     -41.895  59.820 -57.746  1.00  0.00     0.105 C 
BRANCH  13  14
HETATM   14  C   UNL     1     -41.752  58.393 -58.274  1.00  0.00     0.014 C 
BRANCH  14  15
HETATM   15  C   UNL     1     -42.259  58.161 -59.717  1.00  0.00    -0.014 C 
HETATM   16  C   UNL     1     -42.136  56.703 -60.193  1.00  0.00     0.004 C 
HETATM   17  C   UNL     1     -43.109  55.760 -59.485  1.00  0.00     0.000 C 
HETATM   18  C   UNL     1     -44.551  56.243 -59.613  1.00  0.00     0.000 C 
HETATM   19  C   UNL     1     -44.714  57.691 -59.160  1.00  0.00     0.000 C 
HETATM   20  C   UNL     1     -43.723  58.621 -59.859  1.00  0.00     0.004 C 
ENDBRANCH  14  15
ENDBRANCH  13  14
ENDBRANCH  10  13
ENDBRANCH   8   9
ENDBRANCH   6   7
BRANCH   1  21
HETATM   21  C   UNL     1     -42.570  55.318 -51.683  1.00  0.00    -0.002 A 
HETATM   22  C   UNL     1     -41.691  55.255 -50.590  1.00  0.00     0.053 A 
HETATM   23  C   UNL     1     -40.668  54.300 -50.538  1.00  0.00     0.102 A 
HETATM   24  C   UNL     1     -40.525  53.375 -51.590  1.00  0.00     0.101 A 
HETATM   25  C   UNL     1     -41.391  53.443 -52.685  1.00  0.00     0.040 A 
HETATM   26  C   UNL     1     -42.398  54.413 -52.736  1.00  0.00     0.017 A 
BRANCH  23  27
HETATM   27  O   UNL     1     -39.771  54.184 -49.504  1.00  0.00    -0.353 OA
HETATM   28  C   UNL     1     -40.301  54.043 -48.194  1.00  0.00     0.210 C 
ENDBRANCH  23  27
BRANCH  24  29
HETATM   29  O   UNL     1     -39.505  52.465 -51.461  1.00  0.00    -0.353 OA
HETATM   30  C   UNL     1     -39.404  51.444 -52.442  1.00  0.00     0.210 C 
ENDBRANCH  24  29
ENDBRANCH   1  21
TORSDOF 8
ENDMDL
MODEL 9
REMARK VINA RESULT:      -7.0      2.649      4.266
REMARK  8 active torsions:
REMARK  status: ('A' for Active; 'I' for Inactive)
REMARK    1  A    between atoms: O_2  and  C_3 
REMARK    2  A    between atoms: C_4  and  O_5 
REMARK    3  A    between atoms: C_8  and  C_9 
REMARK    4  A    between atoms: C_14  and  C_15 
REMARK    5  A    between atoms: N_16  and  N_17 
REMARK       I    between atoms: N_17  and  C_18 
REMARK    6  A    between atoms: C_18  and  C_19 
REMARK    7  A    between atoms: C_19  and  C_20 
REMARK    8  A    between atoms: C_20  and  C_21 
ROOT
HETATM    1  C   UNL     1     -40.269  52.925 -52.814  1.00  0.00     0.100 A 
HETATM    2  N   UNL     1     -39.882  51.791 -52.201  1.00  0.00    -0.174 NA
HETATM    3  N   UNL     1     -39.777  50.890 -53.184  1.00  0.00    -0.288 N 
HETATM    4  H   UNL     1     -39.502  49.944 -52.940  1.00  0.00     0.188 HD
HETATM    5  C   UNL     1     -40.063  51.390 -54.412  1.00  0.00     0.124 A 
HETATM    6  C   UNL     1     -40.372  52.724 -54.229  1.00  0.00     0.031 A 
ENDROOT
BRANCH   6   7
HETATM    7  C   UNL     1     -40.708  53.665 -55.276  1.00  0.00     0.154 C 
HETATM    8  N   UNL     1     -41.935  54.074 -55.367  1.00  0.00    -0.184 NA
BRANCH   8   9
HETATM    9  N   UNL     1     -42.267  54.969 -56.354  1.00  0.00    -0.247 N 
HETATM   10  C   UNL     1     -42.435  56.338 -56.191  1.00  0.00     0.237 C 
HETATM   11  O   UNL     1     -42.340  56.954 -55.133  1.00  0.00    -0.272 OA
HETATM   12  H   UNL     1     -42.091  54.618 -57.290  1.00  0.00     0.192 HD
BRANCH  10  13
HETATM   13  C   UNL     1     -42.757  57.051 -57.491  1.00  0.00     0.105 C 
BRANCH  13  14
HETATM   14  C   UNL     1     -43.329  56.112 -58.552  1.00  0.00     0.014 C 
BRANCH  14  15
HETATM   15  C   UNL     1     -43.816  56.792 -59.852  1.00  0.00    -0.014 C 
HETATM   16  C   UNL     1     -44.540  55.840 -60.820  1.00  0.00     0.004 C 
HETATM   17  C   UNL     1     -45.907  55.391 -60.305  1.00  0.00     0.000 C 
HETATM   18  C   UNL     1     -46.797  56.583 -59.965  1.00  0.00     0.000 C 
HETATM   19  C   UNL     1     -46.112  57.559 -59.014  1.00  0.00     0.000 C 
HETATM   20  C   UNL     1     -44.738  57.985 -59.529  1.00  0.00     0.004 C 
ENDBRANCH  14  15
ENDBRANCH  13  14
ENDBRANCH  10  13
ENDBRANCH   8   9
ENDBRANCH   6   7
BRANCH   1  21
HETATM   21  C   UNL     1     -40.527  54.129 -52.016  1.00  0.00    -0.002 A 
HETATM   22  C   UNL     1     -40.495  54.057 -50.615  1.00  0.00     0.053 A 
HETATM   23  C   UNL     1     -40.767  55.183 -49.826  1.00  0.00     0.102 A 
HETATM   24  C   UNL     1     -41.062  56.412 -50.445  1.00  0.00     0.101 A 
HETATM   25  C   UNL     1     -41.107  56.484 -51.840  1.00  0.00     0.040 A 
HETATM   26  C   UNL     1     -40.852  55.349 -52.619  1.00  0.00     0.017 A 
BRANCH  23  27
HETATM   27  O   UNL     1     -40.758  55.183 -48.452  1.00  0.00    -0.353 OA
HETATM   28  C   UNL     1     -40.373  53.980 -47.803  1.00  0.00     0.210 C 
ENDBRANCH  23  27
BRANCH  24  29
HETATM   29  O   UNL     1     -41.309  57.469 -49.604  1.00  0.00    -0.353 OA
HETATM   30  C   UNL     1     -40.981  58.770 -50.066  1.00  0.00     0.210 C 
ENDBRANCH  24  29
ENDBRANCH   1  21
TORSDOF 8
ENDMDL
MODEL 10
REMARK VINA RESULT:      -7.0      3.153      6.605
REMARK  8 active torsions:
REMARK  status: ('A' for Active; 'I' for Inactive)
REMARK    1  A    between atoms: O_2  and  C_3 
REMARK    2  A    between atoms: C_4  and  O_5 
REMARK    3  A    between atoms: C_8  and  C_9 
REMARK    4  A    between atoms: C_14  and  C_15 
REMARK    5  A    between atoms: N_16  and  N_17 
REMARK       I    between atoms: N_17  and  C_18 
REMARK    6  A    between atoms: C_18  and  C_19 
REMARK    7  A    between atoms: C_19  and  C_20 
REMARK    8  A    between atoms: C_20  and  C_21 
ROOT
HETATM    1  C   UNL     1     -42.618  55.663 -55.859  1.00  0.00     0.100 A 
HETATM    2  N   UNL     1     -42.988  55.204 -57.069  1.00  0.00    -0.174 NA
HETATM    3  N   UNL     1     -43.601  56.237 -57.655  1.00  0.00    -0.288 N 
HETATM    4  H   UNL     1     -43.975  56.107 -58.589  1.00  0.00     0.188 HD
HETATM    5  C   UNL     1     -43.633  57.356 -56.887  1.00  0.00     0.124 A 
HETATM    6  C   UNL     1     -42.986  57.040 -55.709  1.00  0.00     0.031 A 
ENDROOT
BRANCH   6   7
HETATM    7  C   UNL     1     -42.751  57.946 -54.605  1.00  0.00     0.154 C 
HETATM    8  N   UNL     1     -41.528  58.148 -54.223  1.00  0.00    -0.184 NA
BRANCH   8   9
HETATM    9  N   UNL     1     -41.290  59.007 -53.179  1.00  0.00    -0.247 N 
HETATM   10  C   UNL     1     -41.186  58.653 -51.840  1.00  0.00     0.237 C 
HETATM   11  O   UNL     1     -41.319  57.521 -51.382  1.00  0.00    -0.272 OA
HETATM   12  H   UNL     1     -40.890  59.893 -53.471  1.00  0.00     0.192 HD
BRANCH  10  13
HETATM   13  C   UNL     1     -40.874  59.834 -50.940  1.00  0.00     0.105 C 
BRANCH  13  14
HETATM   14  C   UNL     1     -42.095  60.317 -50.158  1.00  0.00     0.014 C 
BRANCH  14  15
HETATM   15  C   UNL     1     -43.092  61.193 -50.953  1.00  0.00    -0.014 C 
HETATM   16  C   UNL     1     -44.363  60.446 -51.393  1.00  0.00     0.004 C 
HETATM   17  C   UNL     1     -45.287  60.101 -50.225  1.00  0.00     0.000 C 
HETATM   18  C   UNL     1     -45.651  61.340 -49.413  1.00  0.00     0.000 C 
HETATM   19  C   UNL     1     -44.416  62.117 -48.965  1.00  0.00     0.000 C 
HETATM   20  C   UNL     1     -43.491  62.439 -50.137  1.00  0.00     0.004 C 
ENDBRANCH  14  15
ENDBRANCH  13  14
ENDBRANCH  10  13
ENDBRANCH   8   9
ENDBRANCH   6   7
BRANCH   1  21
HETATM   21  C   UNL     1     -41.946  54.763 -54.915  1.00  0.00    -0.002 A 
HETATM   22  C   UNL     1     -42.439  54.630 -53.608  1.00  0.00     0.053 A 
HETATM   23  C   UNL     1     -41.801  53.801 -52.675  1.00  0.00     0.102 A 
HETATM   24  C   UNL     1     -40.656  53.076 -53.056  1.00  0.00     0.101 A 
HETATM   25  C   UNL     1     -40.156  53.216 -54.354  1.00  0.00     0.040 A 
HETATM   26  C   UNL     1     -40.790  54.061 -55.273  1.00  0.00     0.017 A 
BRANCH  23  27
HETATM   27  O   UNL     1     -42.224  53.628 -51.379  1.00  0.00    -0.353 OA
HETATM   28  C   UNL     1     -43.394  54.326 -50.978  1.00  0.00     0.210 C 
ENDBRANCH  23  27
BRANCH  24  29
HETATM   29  O   UNL     1     -40.094  52.280 -52.089  1.00  0.00    -0.353 OA
HETATM   30  C   UNL     1     -39.510  51.054 -52.500  1.00  0.00     0.210 C 
ENDBRANCH  24  29
ENDBRANCH   1  21
TORSDOF 8
ENDMDL
