MODEL 1
REMARK VINA RESULT:      -8.1      0.000      0.000
REMARK  8 active torsions:
REMARK  status: ('A' for Active; 'I' for Inactive)
REMARK    1  A    between atoms: C_7  and  C_8 
REMARK    2  A    between atoms: C_8  and  C_9 
REMARK    3  A    between atoms: C_9  and  N_10 
REMARK       I    between atoms: N_10  and  C_11 
REMARK    4  A    between atoms: C_11  and  C_12 
REMARK    5  A    between atoms: C_12  and  S_13 
REMARK    6  A    between atoms: S_13  and  C_14 
REMARK    7  A    between atoms: C_23  and  O_24 
REMARK    8  A    between atoms: O_24  and  C_25 
ROOT
HETATM    1  C   UNL     1     -44.047  56.584 -51.207  1.00  0.00     0.068 C 
HETATM    2  C   UNL     1     -43.088  55.534 -51.642  1.00  0.00     0.013 A 
HETATM    3  N   UNL     1     -42.169  54.993 -50.780  1.00  0.00    -0.359 N 
HETATM    4  H   UNL     1     -42.066  55.247 -49.806  1.00  0.00     0.166 HD
HETATM    5  C   UNL     1     -41.393  54.059 -51.424  1.00  0.00     0.043 A 
HETATM    6  C   UNL     1     -41.839  53.992 -52.740  1.00  0.00     0.002 A 
HETATM    7  C   UNL     1     -42.916  54.927 -52.877  1.00  0.00    -0.022 A 
HETATM    8  C   UNL     1     -40.340  53.274 -50.944  1.00  0.00     0.033 A 
HETATM    9  C   UNL     1     -39.717  52.395 -51.839  1.00  0.00     0.039 A 
HETATM   10  C   UNL     1     -40.133  52.302 -53.166  1.00  0.00     0.077 A 
HETATM   11  C   UNL     1     -41.198  53.096 -53.619  1.00  0.00     0.051 A 
ENDROOT
BRANCH   7  12
HETATM   12  C   UNL     1     -43.701  55.208 -54.123  1.00  0.00     0.061 C 
BRANCH  12  13
HETATM   13  C   UNL     1     -42.897  56.033 -55.131  1.00  0.00     0.127 C 
BRANCH  13  14
HETATM   14  N   UNL     1     -43.679  56.417 -56.292  1.00  0.00    -0.360 N 
HETATM   15  C   UNL     1     -44.258  57.665 -56.389  1.00  0.00     0.227 C 
HETATM   16  O   UNL     1     -44.258  58.481 -55.470  1.00  0.00    -0.273 OA
HETATM   17  H   UNL     1     -43.479  55.953 -57.179  1.00  0.00     0.162 HD
BRANCH  15  18
HETATM   18  C   UNL     1     -44.918  57.945 -57.727  1.00  0.00     0.183 C 
BRANCH  18  19
HETATM   19  S   UNL     1     -43.749  57.684 -59.085  1.00  0.00    -0.098 SA
BRANCH  19  20
HETATM   20  C   UNL     1     -44.233  56.142 -59.725  1.00  0.00     0.134 A 
HETATM   21  N   UNL     1     -44.001  54.965 -59.131  1.00  0.00    -0.149 NA
HETATM   22  N   UNL     1     -44.580  54.115 -60.005  1.00  0.00    -0.196 N 
HETATM   23  H   UNL     1     -44.591  53.111 -59.837  1.00  0.00     0.213 HD
HETATM   24  N   UNL     1     -45.141  54.631 -61.112  1.00  0.00    -0.167 NA
HETATM   25  C   UNL     1     -44.919  55.938 -60.933  1.00  0.00     0.180 A 
ENDBRANCH  19  20
ENDBRANCH  18  19
ENDBRANCH  15  18
ENDBRANCH  13  14
ENDBRANCH  12  13
ENDBRANCH   7  12
BRANCH  10  26
HETATM   26  O   UNL     1     -39.600  51.487 -54.127  1.00  0.00    -0.270 OA
BRANCH  26  27
HETATM   27  C   UNL     1     -40.047  50.139 -54.195  1.00  0.00     0.447 C 
HETATM   28 CL   UNL     1     -39.671  49.320 -52.675  1.00  0.00    -0.014 Cl
HETATM   29  F   UNL     1     -41.385  50.104 -54.413  1.00  0.00    -0.159 F 
HETATM   30  F   UNL     1     -39.434  49.499 -55.223  1.00  0.00    -0.159 F 
ENDBRANCH  26  27
ENDBRANCH  10  26
TORSDOF 8
ENDMDL
MODEL 2
REMARK VINA RESULT:      -8.1      2.905      5.010
REMARK  8 active torsions:
REMARK  status: ('A' for Active; 'I' for Inactive)
REMARK    1  A    between atoms: C_7  and  C_8 
REMARK    2  A    between atoms: C_8  and  C_9 
REMARK    3  A    between atoms: C_9  and  N_10 
REMARK       I    between atoms: N_10  and  C_11 
REMARK    4  A    between atoms: C_11  and  C_12 
REMARK    5  A    between atoms: C_12  and  S_13 
REMARK    6  A    between atoms: S_13  and  C_14 
REMARK    7  A    between atoms: C_23  and  O_24 
REMARK    8  A    between atoms: O_24  and  C_25 
ROOT
HETATM    1  C   UNL     1     -44.146  56.840 -51.993  1.00  0.00     0.068 C 
HETATM    2  C   UNL     1     -43.171  55.753 -52.274  1.00  0.00     0.013 A 
HETATM    3  N   UNL     1     -42.295  55.306 -51.319  1.00  0.00    -0.359 N 
HETATM    4  H   UNL     1     -42.237  55.657 -50.372  1.00  0.00     0.166 HD
HETATM    5  C   UNL     1     -41.493  54.312 -51.827  1.00  0.00     0.043 A 
HETATM    6  C   UNL     1     -41.877  54.110 -53.149  1.00  0.00     0.002 A 
HETATM    7  C   UNL     1     -42.944  55.024 -53.431  1.00  0.00    -0.022 A 
HETATM    8  C   UNL     1     -40.465  53.582 -51.221  1.00  0.00     0.033 A 
HETATM    9  C   UNL     1     -39.804  52.618 -51.992  1.00  0.00     0.039 A 
HETATM   10  C   UNL     1     -40.158  52.388 -53.320  1.00  0.00     0.077 A 
HETATM   11  C   UNL     1     -41.198  53.130 -53.901  1.00  0.00     0.051 A 
ENDROOT
BRANCH   7  12
HETATM   12  C   UNL     1     -43.670  55.175 -54.734  1.00  0.00     0.061 C 
BRANCH  12  13
HETATM   13  C   UNL     1     -42.815  55.889 -55.784  1.00  0.00     0.127 C 
BRANCH  13  14
HETATM   14  N   UNL     1     -42.064  57.002 -55.233  1.00  0.00    -0.360 N 
HETATM   15  C   UNL     1     -42.627  58.253 -55.093  1.00  0.00     0.227 C 
HETATM   16  O   UNL     1     -43.740  58.543 -55.525  1.00  0.00    -0.273 OA
HETATM   17  H   UNL     1     -41.293  56.791 -54.597  1.00  0.00     0.162 HD
BRANCH  15  18
HETATM   18  C   UNL     1     -41.747  59.258 -54.372  1.00  0.00     0.183 C 
BRANCH  18  19
HETATM   19  S   UNL     1     -40.560  58.414 -53.295  1.00  0.00    -0.098 SA
BRANCH  19  20
HETATM   20  C   UNL     1     -41.054  58.910 -51.705  1.00  0.00     0.134 A 
HETATM   21  N   UNL     1     -40.841  58.205 -50.587  1.00  0.00    -0.149 NA
HETATM   22  N   UNL     1     -41.386  59.019 -49.659  1.00  0.00    -0.196 N 
HETATM   23  H   UNL     1     -41.379  58.775 -48.671  1.00  0.00     0.213 HD
HETATM   24  N   UNL     1     -41.948  60.166 -50.075  1.00  0.00    -0.167 NA
HETATM   25  C   UNL     1     -41.735  60.098 -51.395  1.00  0.00     0.180 A 
ENDBRANCH  19  20
ENDBRANCH  18  19
ENDBRANCH  15  18
ENDBRANCH  13  14
ENDBRANCH  12  13
ENDBRANCH   7  12
BRANCH  10  26
HETATM   26  O   UNL     1     -39.584  51.480 -54.167  1.00  0.00    -0.270 OA
BRANCH  26  27
HETATM   27  C   UNL     1     -40.089  50.151 -54.178  1.00  0.00     0.447 C 
HETATM   28 CL   UNL     1     -39.719  49.371 -52.637  1.00  0.00    -0.014 Cl
HETATM   29  F   UNL     1     -41.431  50.166 -54.370  1.00  0.00    -0.159 F 
HETATM   30  F   UNL     1     -39.524  49.450 -55.193  1.00  0.00    -0.159 F 
ENDBRANCH  26  27
ENDBRANCH  10  26
TORSDOF 8
ENDMDL
MODEL 3
REMARK VINA RESULT:      -7.9      2.154      2.492
REMARK  8 active torsions:
REMARK  status: ('A' for Active; 'I' for Inactive)
REMARK    1  A    between atoms: C_7  and  C_8 
REMARK    2  A    between atoms: C_8  and  C_9 
REMARK    3  A    between atoms: C_9  and  N_10 
REMARK       I    between atoms: N_10  and  C_11 
REMARK    4  A    between atoms: C_11  and  C_12 
REMARK    5  A    between atoms: C_12  and  S_13 
REMARK    6  A    between atoms: S_13  and  C_14 
REMARK    7  A    between atoms: C_23  and  O_24 
REMARK    8  A    between atoms: O_24  and  C_25 
ROOT
HETATM    1  C   UNL     1     -41.069  59.547 -50.420  1.00  0.00     0.068 C 
HETATM    2  C   UNL     1     -41.196  58.129 -50.848  1.00  0.00     0.013 A 
HETATM    3  N   UNL     1     -41.443  57.123 -49.948  1.00  0.00    -0.359 N 
HETATM    4  H   UNL     1     -41.560  57.250 -48.952  1.00  0.00     0.166 HD
HETATM    5  C   UNL     1     -41.500  55.908 -50.588  1.00  0.00     0.043 A 
HETATM    6  C   UNL     1     -41.295  56.146 -51.943  1.00  0.00     0.002 A 
HETATM    7  C   UNL     1     -41.104  57.557 -52.107  1.00  0.00    -0.022 A 
HETATM    8  C   UNL     1     -41.719  54.626 -50.072  1.00  0.00     0.033 A 
HETATM    9  C   UNL     1     -41.721  53.551 -50.970  1.00  0.00     0.039 A 
HETATM   10  C   UNL     1     -41.516  53.748 -52.334  1.00  0.00     0.077 A 
HETATM   11  C   UNL     1     -41.307  55.047 -52.825  1.00  0.00     0.051 A 
ENDROOT
BRANCH   7  12
HETATM   12  C   UNL     1     -40.839  58.278 -53.394  1.00  0.00     0.061 C 
BRANCH  12  13
HETATM   13  C   UNL     1     -42.099  58.388 -54.257  1.00  0.00     0.127 C 
BRANCH  13  14
HETATM   14  N   UNL     1     -42.098  57.459 -55.372  1.00  0.00    -0.360 N 
HETATM   15  C   UNL     1     -43.098  56.522 -55.530  1.00  0.00     0.227 C 
HETATM   16  O   UNL     1     -43.977  56.328 -54.694  1.00  0.00    -0.273 OA
HETATM   17  H   UNL     1     -41.615  57.737 -56.227  1.00  0.00     0.162 HD
BRANCH  15  18
HETATM   18  C   UNL     1     -43.014  55.730 -56.822  1.00  0.00     0.183 C 
BRANCH  18  19
HETATM   19  S   UNL     1     -43.215  56.819 -58.255  1.00  0.00    -0.098 SA
BRANCH  19  20
HETATM   20  C   UNL     1     -43.951  55.778 -59.435  1.00  0.00     0.134 A 
HETATM   21  N   UNL     1     -44.185  54.471 -59.258  1.00  0.00    -0.149 NA
HETATM   22  N   UNL     1     -44.771  54.152 -60.431  1.00  0.00    -0.196 N 
HETATM   23  H   UNL     1     -45.092  53.204 -60.620  1.00  0.00     0.213 HD
HETATM   24  N   UNL     1     -44.915  55.119 -61.351  1.00  0.00    -0.167 NA
HETATM   25  C   UNL     1     -44.388  56.170 -60.711  1.00  0.00     0.180 A 
ENDBRANCH  19  20
ENDBRANCH  18  19
ENDBRANCH  15  18
ENDBRANCH  13  14
ENDBRANCH  12  13
ENDBRANCH   7  12
BRANCH  10  26
HETATM   26  O   UNL     1     -41.494  52.780 -53.299  1.00  0.00    -0.270 OA
BRANCH  26  27
HETATM   27  C   UNL     1     -40.236  52.253 -53.702  1.00  0.00     0.447 C 
HETATM   28 CL   UNL     1     -40.468  50.643 -54.389  1.00  0.00    -0.014 Cl
HETATM   29  F   UNL     1     -39.668  53.066 -54.627  1.00  0.00    -0.159 F 
HETATM   30  F   UNL     1     -39.402  52.180 -52.634  1.00  0.00    -0.159 F 
ENDBRANCH  26  27
ENDBRANCH  10  26
TORSDOF 8
ENDMDL
MODEL 4
REMARK VINA RESULT:      -7.8      2.715      3.164
REMARK  8 active torsions:
REMARK  status: ('A' for Active; 'I' for Inactive)
REMARK    1  A    between atoms: C_7  and  C_8 
REMARK    2  A    between atoms: C_8  and  C_9 
REMARK    3  A    between atoms: C_9  and  N_10 
REMARK       I    between atoms: N_10  and  C_11 
REMARK    4  A    between atoms: C_11  and  C_12 
REMARK    5  A    between atoms: C_12  and  S_13 
REMARK    6  A    between atoms: S_13  and  C_14 
REMARK    7  A    between atoms: C_23  and  O_24 
REMARK    8  A    between atoms: O_24  and  C_25 
ROOT
HETATM    1  C   UNL     1     -40.830  59.699 -50.153  1.00  0.00     0.068 C 
HETATM    2  C   UNL     1     -41.118  58.345 -50.695  1.00  0.00     0.013 A 
HETATM    3  N   UNL     1     -41.587  57.332 -49.898  1.00  0.00    -0.359 N 
HETATM    4  H   UNL     1     -41.776  57.412 -48.908  1.00  0.00     0.166 HD
HETATM    5  C   UNL     1     -41.757  56.181 -50.631  1.00  0.00     0.043 A 
HETATM    6  C   UNL     1     -41.397  56.472 -51.943  1.00  0.00     0.002 A 
HETATM    7  C   UNL     1     -40.993  57.846 -51.983  1.00  0.00    -0.022 A 
HETATM    8  C   UNL     1     -42.202  54.916 -50.233  1.00  0.00     0.033 A 
HETATM    9  C   UNL     1     -42.275  53.912 -51.207  1.00  0.00     0.039 A 
HETATM   10  C   UNL     1     -41.919  54.163 -52.531  1.00  0.00     0.077 A 
HETATM   11  C   UNL     1     -41.484  55.444 -52.904  1.00  0.00     0.051 A 
ENDROOT
BRANCH   7  12
HETATM   12  C   UNL     1     -40.512  58.600 -53.186  1.00  0.00     0.061 C 
BRANCH  12  13
HETATM   13  C   UNL     1     -41.637  59.400 -53.847  1.00  0.00     0.127 C 
BRANCH  13  14
HETATM   14  N   UNL     1     -42.233  58.704 -54.973  1.00  0.00    -0.360 N 
HETATM   15  C   UNL     1     -43.491  58.146 -54.891  1.00  0.00     0.227 C 
HETATM   16  O   UNL     1     -44.137  58.091 -53.846  1.00  0.00    -0.273 OA
HETATM   17  H   UNL     1     -41.924  58.960 -55.912  1.00  0.00     0.162 HD
BRANCH  15  18
HETATM   18  C   UNL     1     -44.012  57.583 -56.200  1.00  0.00     0.183 C 
BRANCH  18  19
HETATM   19  S   UNL     1     -43.717  58.743 -57.559  1.00  0.00    -0.098 SA
BRANCH  19  20
HETATM   20  C   UNL     1     -42.870  57.772 -58.724  1.00  0.00     0.134 A 
HETATM   21  N   UNL     1     -41.807  58.181 -59.429  1.00  0.00    -0.149 NA
HETATM   22  N   UNL     1     -41.532  57.074 -60.149  1.00  0.00    -0.196 N 
HETATM   23  H   UNL     1     -40.748  57.046 -60.797  1.00  0.00     0.213 HD
HETATM   24  N   UNL     1     -42.328  56.003 -59.992  1.00  0.00    -0.167 NA
HETATM   25  C   UNL     1     -43.191  56.450 -59.074  1.00  0.00     0.180 A 
ENDBRANCH  19  20
ENDBRANCH  18  19
ENDBRANCH  15  18
ENDBRANCH  13  14
ENDBRANCH  12  13
ENDBRANCH   7  12
BRANCH  10  26
HETATM   26  O   UNL     1     -41.946  53.265 -53.563  1.00  0.00    -0.270 OA
BRANCH  26  27
HETATM   27  C   UNL     1     -40.716  52.716 -54.015  1.00  0.00     0.447 C 
HETATM   28 CL   UNL     1     -40.057  53.735 -55.300  1.00  0.00    -0.014 Cl
HETATM   29  F   UNL     1     -39.832  52.650 -52.988  1.00  0.00    -0.159 F 
HETATM   30  F   UNL     1     -40.913  51.459 -54.484  1.00  0.00    -0.159 F 
ENDBRANCH  26  27
ENDBRANCH  10  26
TORSDOF 8
ENDMDL
MODEL 5
REMARK VINA RESULT:      -7.7      3.918      4.937
REMARK  8 active torsions:
REMARK  status: ('A' for Active; 'I' for Inactive)
REMARK    1  A    between atoms: C_7  and  C_8 
REMARK    2  A    between atoms: C_8  and  C_9 
REMARK    3  A    between atoms: C_9  and  N_10 
REMARK       I    between atoms: N_10  and  C_11 
REMARK    4  A    between atoms: C_11  and  C_12 
REMARK    5  A    between atoms: C_12  and  S_13 
REMARK    6  A    between atoms: S_13  and  C_14 
REMARK    7  A    between atoms: C_23  and  O_24 
REMARK    8  A    between atoms: O_24  and  C_25 
ROOT
HETATM    1  C   UNL     1     -39.786  51.289 -53.934  1.00  0.00     0.068 C 
HETATM    2  C   UNL     1     -40.205  52.513 -53.201  1.00  0.00     0.013 A 
HETATM    3  N   UNL     1     -40.227  52.563 -51.831  1.00  0.00    -0.359 N 
HETATM    4  H   UNL     1     -39.968  51.802 -51.218  1.00  0.00     0.166 HD
HETATM    5  C   UNL     1     -40.663  53.793 -51.399  1.00  0.00     0.043 A 
HETATM    6  C   UNL     1     -40.916  54.560 -52.532  1.00  0.00     0.002 A 
HETATM    7  C   UNL     1     -40.623  53.747 -53.675  1.00  0.00    -0.022 A 
HETATM    8  C   UNL     1     -40.848  54.280 -50.101  1.00  0.00     0.033 A 
HETATM    9  C   UNL     1     -41.314  55.594 -49.955  1.00  0.00     0.039 A 
HETATM   10  C   UNL     1     -41.582  56.392 -51.066  1.00  0.00     0.077 A 
HETATM   11  C   UNL     1     -41.379  55.880 -52.356  1.00  0.00     0.051 A 
ENDROOT
BRANCH   7  12
HETATM   12  C   UNL     1     -40.757  54.149 -55.113  1.00  0.00     0.061 C 
BRANCH  12  13
HETATM   13  C   UNL     1     -42.204  54.481 -55.482  1.00  0.00     0.127 C 
BRANCH  13  14
HETATM   14  N   UNL     1     -42.307  55.281 -56.688  1.00  0.00    -0.360 N 
HETATM   15  C   UNL     1     -42.985  56.482 -56.700  1.00  0.00     0.227 C 
HETATM   16  O   UNL     1     -43.640  56.895 -55.746  1.00  0.00    -0.273 OA
HETATM   17  H   UNL     1     -41.577  55.180 -57.394  1.00  0.00     0.162 HD
BRANCH  15  18
HETATM   18  C   UNL     1     -42.873  57.250 -58.004  1.00  0.00     0.183 C 
BRANCH  18  19
HETATM   19  S   UNL     1     -42.667  56.116 -59.401  1.00  0.00    -0.098 SA
BRANCH  19  20
HETATM   20  C   UNL     1     -44.232  56.140 -60.156  1.00  0.00     0.134 A 
HETATM   21  N   UNL     1     -44.589  55.369 -61.191  1.00  0.00    -0.149 NA
HETATM   22  N   UNL     1     -45.870  55.754 -61.371  1.00  0.00    -0.196 N 
HETATM   23  H   UNL     1     -46.451  55.338 -62.096  1.00  0.00     0.213 HD
HETATM   24  N   UNL     1     -46.362  56.712 -60.567  1.00  0.00    -0.167 NA
HETATM   25  C   UNL     1     -45.307  56.962 -59.783  1.00  0.00     0.180 A 
ENDBRANCH  19  20
ENDBRANCH  18  19
ENDBRANCH  15  18
ENDBRANCH  13  14
ENDBRANCH  12  13
ENDBRANCH   7  12
BRANCH  10  26
HETATM   26  O   UNL     1     -42.041  57.681 -51.046  1.00  0.00    -0.270 OA
BRANCH  26  27
HETATM   27  C   UNL     1     -41.118  58.724 -50.762  1.00  0.00     0.447 C 
HETATM   28 CL   UNL     1     -41.678  60.222 -51.513  1.00  0.00    -0.014 Cl
HETATM   29  F   UNL     1     -41.013  58.898 -49.422  1.00  0.00    -0.159 F 
HETATM   30  F   UNL     1     -39.892  58.401 -51.244  1.00  0.00    -0.159 F 
ENDBRANCH  26  27
ENDBRANCH  10  26
TORSDOF 8
ENDMDL
MODEL 6
REMARK VINA RESULT:      -7.6      2.129      2.320
REMARK  8 active torsions:
REMARK  status: ('A' for Active; 'I' for Inactive)
REMARK    1  A    between atoms: C_7  and  C_8 
REMARK    2  A    between atoms: C_8  and  C_9 
REMARK    3  A    between atoms: C_9  and  N_10 
REMARK       I    between atoms: N_10  and  C_11 
REMARK    4  A    between atoms: C_11  and  C_12 
REMARK    5  A    between atoms: C_12  and  S_13 
REMARK    6  A    between atoms: S_13  and  C_14 
REMARK    7  A    between atoms: C_23  and  O_24 
REMARK    8  A    between atoms: O_24  and  C_25 
ROOT
HETATM    1  C   UNL     1     -44.162  56.562 -51.322  1.00  0.00     0.068 C 
HETATM    2  C   UNL     1     -43.175  55.526 -51.728  1.00  0.00     0.013 A 
HETATM    3  N   UNL     1     -42.224  55.055 -50.859  1.00  0.00    -0.359 N 
HETATM    4  H   UNL     1     -42.114  55.355 -49.900  1.00  0.00     0.166 HD
HETATM    5  C   UNL     1     -41.428  54.120 -51.476  1.00  0.00     0.043 A 
HETATM    6  C   UNL     1     -41.894  53.979 -52.779  1.00  0.00     0.002 A 
HETATM    7  C   UNL     1     -43.004  54.871 -52.937  1.00  0.00    -0.022 A 
HETATM    8  C   UNL     1     -40.341  53.392 -50.980  1.00  0.00     0.033 A 
HETATM    9  C   UNL     1     -39.704  52.495 -51.848  1.00  0.00     0.039 A 
HETATM   10  C   UNL     1     -40.138  52.329 -53.161  1.00  0.00     0.077 A 
HETATM   11  C   UNL     1     -41.237  53.066 -53.629  1.00  0.00     0.051 A 
ENDROOT
BRANCH   7  12
HETATM   12  C   UNL     1     -43.818  55.070 -54.180  1.00  0.00     0.061 C 
BRANCH  12  13
HETATM   13  C   UNL     1     -43.252  56.186 -55.061  1.00  0.00     0.127 C 
BRANCH  13  14
HETATM   14  N   UNL     1     -43.412  55.917 -56.479  1.00  0.00    -0.360 N 
HETATM   15  C   UNL     1     -42.832  56.723 -57.435  1.00  0.00     0.227 C 
HETATM   16  O   UNL     1     -42.251  57.772 -57.169  1.00  0.00    -0.273 OA
HETATM   17  H   UNL     1     -43.598  54.955 -56.766  1.00  0.00     0.162 HD
BRANCH  15  18
HETATM   18  C   UNL     1     -42.985  56.216 -58.857  1.00  0.00     0.183 C 
BRANCH  18  19
HETATM   19  S   UNL     1     -44.317  57.096 -59.712  1.00  0.00    -0.098 SA
BRANCH  19  20
HETATM   20  C   UNL     1     -43.491  58.438 -60.444  1.00  0.00     0.134 A 
HETATM   21  N   UNL     1     -44.097  59.518 -60.954  1.00  0.00    -0.149 NA
HETATM   22  N   UNL     1     -43.034  60.241 -61.365  1.00  0.00    -0.196 N 
HETATM   23  H   UNL     1     -43.152  61.153 -61.800  1.00  0.00     0.213 HD
HETATM   24  N   UNL     1     -41.808  59.720 -61.189  1.00  0.00    -0.167 NA
HETATM   25  C   UNL     1     -42.100  58.557 -60.595  1.00  0.00     0.180 A 
ENDBRANCH  19  20
ENDBRANCH  18  19
ENDBRANCH  15  18
ENDBRANCH  13  14
ENDBRANCH  12  13
ENDBRANCH   7  12
BRANCH  10  26
HETATM   26  O   UNL     1     -39.595  51.490 -54.095  1.00  0.00    -0.270 OA
BRANCH  26  27
HETATM   27  C   UNL     1     -40.049  50.144 -54.142  1.00  0.00     0.447 C 
HETATM   28 CL   UNL     1     -39.708  49.356 -52.597  1.00  0.00    -0.014 Cl
HETATM   29  F   UNL     1     -41.383  50.112 -54.384  1.00  0.00    -0.159 F 
HETATM   30  F   UNL     1     -39.421  49.477 -55.143  1.00  0.00    -0.159 F 
ENDBRANCH  26  27
ENDBRANCH  10  26
TORSDOF 8
ENDMDL
MODEL 7
REMARK VINA RESULT:      -7.1      2.235      3.093
REMARK  8 active torsions:
REMARK  status: ('A' for Active; 'I' for Inactive)
REMARK    1  A    between atoms: C_7  and  C_8 
REMARK    2  A    between atoms: C_8  and  C_9 
REMARK    3  A    between atoms: C_9  and  N_10 
REMARK       I    between atoms: N_10  and  C_11 
REMARK    4  A    between atoms: C_11  and  C_12 
REMARK    5  A    between atoms: C_12  and  S_13 
REMARK    6  A    between atoms: S_13  and  C_14 
REMARK    7  A    between atoms: C_23  and  O_24 
REMARK    8  A    between atoms: O_24  and  C_25 
ROOT
HETATM    1  C   UNL     1     -42.635  57.355 -51.096  1.00  0.00     0.068 C 
HETATM    2  C   UNL     1     -41.955  56.102 -51.520  1.00  0.00     0.013 A 
HETATM    3  N   UNL     1     -41.487  55.191 -50.609  1.00  0.00    -0.359 N 
HETATM    4  H   UNL     1     -41.562  55.282 -49.604  1.00  0.00     0.166 HD
HETATM    5  C   UNL     1     -40.889  54.132 -51.249  1.00  0.00     0.043 A 
HETATM    6  C   UNL     1     -40.989  54.369 -52.616  1.00  0.00     0.002 A 
HETATM    7  C   UNL     1     -41.668  55.619 -52.787  1.00  0.00    -0.022 A 
HETATM    8  C   UNL     1     -40.273  52.991 -50.724  1.00  0.00     0.033 A 
HETATM    9  C   UNL     1     -39.736  52.063 -51.626  1.00  0.00     0.039 A 
HETATM   10  C   UNL     1     -39.814  52.266 -53.002  1.00  0.00     0.077 A 
HETATM   11  C   UNL     1     -40.444  53.416 -53.501  1.00  0.00     0.051 A 
ENDROOT
BRANCH   7  12
HETATM   12  C   UNL     1     -41.994  56.286 -54.089  1.00  0.00     0.061 C 
BRANCH  12  13
HETATM   13  C   UNL     1     -43.354  55.844 -54.633  1.00  0.00     0.127 C 
BRANCH  13  14
HETATM   14  N   UNL     1     -43.641  56.398 -55.944  1.00  0.00    -0.360 N 
HETATM   15  C   UNL     1     -44.253  57.625 -56.089  1.00  0.00     0.227 C 
HETATM   16  O   UNL     1     -44.700  58.271 -55.144  1.00  0.00    -0.273 OA
HETATM   17  H   UNL     1     -43.060  56.099 -56.728  1.00  0.00     0.162 HD
BRANCH  15  18
HETATM   18  C   UNL     1     -44.348  58.110 -57.524  1.00  0.00     0.183 C 
BRANCH  18  19
HETATM   19  S   UNL     1     -42.701  58.249 -58.265  1.00  0.00    -0.098 SA
BRANCH  19  20
HETATM   20  C   UNL     1     -42.319  59.930 -58.052  1.00  0.00     0.134 A 
HETATM   21  N   UNL     1     -41.349  60.395 -57.254  1.00  0.00    -0.149 NA
HETATM   22  N   UNL     1     -41.457  61.724 -57.464  1.00  0.00    -0.196 N 
HETATM   23  H   UNL     1     -40.835  62.384 -57.000  1.00  0.00     0.213 HD
HETATM   24  N   UNL     1     -42.414  62.158 -58.300  1.00  0.00    -0.167 NA
HETATM   25  C   UNL     1     -42.971  61.003 -58.682  1.00  0.00     0.180 A 
ENDBRANCH  19  20
ENDBRANCH  18  19
ENDBRANCH  15  18
ENDBRANCH  13  14
ENDBRANCH  12  13
ENDBRANCH   7  12
BRANCH  10  26
HETATM   26  O   UNL     1     -39.325  51.435 -53.973  1.00  0.00    -0.270 OA
BRANCH  26  27
HETATM   27  C   UNL     1     -39.935  50.163 -54.146  1.00  0.00     0.447 C 
HETATM   28 CL   UNL     1     -39.672  49.185 -52.699  1.00  0.00    -0.014 Cl
HETATM   29  F   UNL     1     -41.266  50.312 -54.360  1.00  0.00    -0.159 F 
HETATM   30  F   UNL     1     -39.402  49.537 -55.225  1.00  0.00    -0.159 F 
ENDBRANCH  26  27
ENDBRANCH  10  26
TORSDOF 8
ENDMDL
MODEL 8
REMARK VINA RESULT:      -7.0     15.032     16.848
REMARK  8 active torsions:
REMARK  status: ('A' for Active; 'I' for Inactive)
REMARK    1  A    between atoms: C_7  and  C_8 
REMARK    2  A    between atoms: C_8  and  C_9 
REMARK    3  A    between atoms: C_9  and  N_10 
REMARK       I    between atoms: N_10  and  C_11 
REMARK    4  A    between atoms: C_11  and  C_12 
REMARK    5  A    between atoms: C_12  and  S_13 
REMARK    6  A    between atoms: S_13  and  C_14 
REMARK    7  A    between atoms: C_23  and  O_24 
REMARK    8  A    between atoms: O_24  and  C_25 
ROOT
HETATM    1  C   UNL     1     -35.074  42.416 -51.845  1.00  0.00     0.068 C 
HETATM    2  C   UNL     1     -35.623  42.135 -53.198  1.00  0.00     0.013 A 
HETATM    3  N   UNL     1     -34.943  42.478 -54.338  1.00  0.00    -0.359 N 
HETATM    4  H   UNL     1     -34.040  42.933 -54.362  1.00  0.00     0.166 HD
HETATM    5  C   UNL     1     -35.665  42.127 -55.454  1.00  0.00     0.043 A 
HETATM    6  C   UNL     1     -36.840  41.528 -55.012  1.00  0.00     0.002 A 
HETATM    7  C   UNL     1     -36.811  41.532 -53.579  1.00  0.00    -0.022 A 
HETATM    8  C   UNL     1     -35.366  42.292 -56.811  1.00  0.00     0.033 A 
HETATM    9  C   UNL     1     -36.302  41.836 -57.748  1.00  0.00     0.039 A 
HETATM   10  C   UNL     1     -37.492  41.233 -57.344  1.00  0.00     0.077 A 
HETATM   11  C   UNL     1     -37.762  41.074 -55.976  1.00  0.00     0.051 A 
ENDROOT
BRANCH   7  12
HETATM   12  C   UNL     1     -37.872  40.998 -52.665  1.00  0.00     0.061 C 
BRANCH  12  13
HETATM   13  C   UNL     1     -37.417  39.728 -51.942  1.00  0.00     0.127 C 
BRANCH  13  14
HETATM   14  N   UNL     1     -36.307  39.071 -52.608  1.00  0.00    -0.360 N 
HETATM   15  C   UNL     1     -36.123  37.706 -52.525  1.00  0.00     0.227 C 
HETATM   16  O   UNL     1     -36.798  36.979 -51.801  1.00  0.00    -0.273 OA
HETATM   17  H   UNL     1     -35.910  39.520 -53.434  1.00  0.00     0.162 HD
BRANCH  15  18
HETATM   18  C   UNL     1     -34.999  37.173 -53.394  1.00  0.00     0.183 C 
BRANCH  18  19
HETATM   19  S   UNL     1     -34.902  38.092 -54.952  1.00  0.00    -0.098 SA
BRANCH  19  20
HETATM   20  C   UNL     1     -33.582  39.187 -54.677  1.00  0.00     0.134 A 
HETATM   21  N   UNL     1     -33.250  39.695 -53.483  1.00  0.00    -0.149 NA
HETATM   22  N   UNL     1     -32.177  40.446 -53.810  1.00  0.00    -0.196 N 
HETATM   23  H   UNL     1     -31.665  40.971 -53.104  1.00  0.00     0.213 HD
HETATM   24  N   UNL     1     -31.802  40.486 -55.099  1.00  0.00    -0.167 NA
HETATM   25  C   UNL     1     -32.706  39.675 -55.661  1.00  0.00     0.180 A 
ENDBRANCH  19  20
ENDBRANCH  18  19
ENDBRANCH  15  18
ENDBRANCH  13  14
ENDBRANCH  12  13
ENDBRANCH   7  12
BRANCH  10  26
HETATM   26  O   UNL     1     -38.478  40.755 -58.164  1.00  0.00    -0.270 OA
BRANCH  26  27
HETATM   27  C   UNL     1     -38.168  39.676 -59.036  1.00  0.00     0.447 C 
HETATM   28 CL   UNL     1     -37.322  38.416 -58.132  1.00  0.00    -0.014 Cl
HETATM   29  F   UNL     1     -39.307  39.168 -59.568  1.00  0.00    -0.159 F 
HETATM   30  F   UNL     1     -37.385  40.114 -60.054  1.00  0.00    -0.159 F 
ENDBRANCH  26  27
ENDBRANCH  10  26
TORSDOF 8
ENDMDL
MODEL 9
REMARK VINA RESULT:      -6.9     15.171     17.061
REMARK  8 active torsions:
REMARK  status: ('A' for Active; 'I' for Inactive)
REMARK    1  A    between atoms: C_7  and  C_8 
REMARK    2  A    between atoms: C_8  and  C_9 
REMARK    3  A    between atoms: C_9  and  N_10 
REMARK       I    between atoms: N_10  and  C_11 
REMARK    4  A    between atoms: C_11  and  C_12 
REMARK    5  A    between atoms: C_12  and  S_13 
REMARK    6  A    between atoms: S_13  and  C_14 
REMARK    7  A    between atoms: C_23  and  O_24 
REMARK    8  A    between atoms: O_24  and  C_25 
ROOT
HETATM    1  C   UNL     1     -35.032  42.095 -51.551  1.00  0.00     0.068 C 
HETATM    2  C   UNL     1     -35.567  41.913 -52.927  1.00  0.00     0.013 A 
HETATM    3  N   UNL     1     -34.852  42.291 -54.035  1.00  0.00    -0.359 N 
HETATM    4  H   UNL     1     -33.932  42.709 -54.018  1.00  0.00     0.166 HD
HETATM    5  C   UNL     1     -35.567  42.033 -55.180  1.00  0.00     0.043 A 
HETATM    6  C   UNL     1     -36.773  41.459 -54.792  1.00  0.00     0.002 A 
HETATM    7  C   UNL     1     -36.771  41.381 -53.361  1.00  0.00    -0.022 A 
HETATM    8  C   UNL     1     -35.236  42.261 -56.520  1.00  0.00     0.033 A 
HETATM    9  C   UNL     1     -36.173  41.897 -57.497  1.00  0.00     0.039 A 
HETATM   10  C   UNL     1     -37.394  41.322 -57.148  1.00  0.00     0.077 A 
HETATM   11  C   UNL     1     -37.695  41.098 -55.795  1.00  0.00     0.051 A 
ENDROOT
BRANCH   7  12
HETATM   12  C   UNL     1     -37.869  40.841 -52.496  1.00  0.00     0.061 C 
BRANCH  12  13
HETATM   13  C   UNL     1     -37.534  39.453 -51.947  1.00  0.00     0.127 C 
BRANCH  13  14
HETATM   14  N   UNL     1     -37.977  39.269 -50.577  1.00  0.00    -0.360 N 
HETATM   15  C   UNL     1     -38.957  38.355 -50.253  1.00  0.00     0.227 C 
HETATM   16  O   UNL     1     -39.598  37.729 -51.093  1.00  0.00    -0.273 OA
HETATM   17  H   UNL     1     -37.323  39.500 -49.827  1.00  0.00     0.162 HD
BRANCH  15  18
HETATM   18  C   UNL     1     -39.195  38.195 -48.762  1.00  0.00     0.183 C 
BRANCH  18  19
HETATM   19  S   UNL     1     -40.968  38.139 -48.399  1.00  0.00    -0.098 SA
BRANCH  19  20
HETATM   20  C   UNL     1     -41.078  38.949 -46.866  1.00  0.00     0.134 A 
HETATM   21  N   UNL     1     -41.770  40.075 -46.649  1.00  0.00    -0.149 NA
HETATM   22  N   UNL     1     -41.549  40.264 -45.330  1.00  0.00    -0.196 N 
HETATM   23  H   UNL     1     -41.958  41.052 -44.834  1.00  0.00     0.213 HD
HETATM   24  N   UNL     1     -40.765  39.382 -44.687  1.00  0.00    -0.167 NA
HETATM   25  C   UNL     1     -40.461  38.533 -45.676  1.00  0.00     0.180 A 
ENDBRANCH  19  20
ENDBRANCH  18  19
ENDBRANCH  15  18
ENDBRANCH  13  14
ENDBRANCH  12  13
ENDBRANCH   7  12
BRANCH  10  26
HETATM   26  O   UNL     1     -38.382  40.931 -58.009  1.00  0.00    -0.270 OA
BRANCH  26  27
HETATM   27  C   UNL     1     -38.113  39.864 -58.908  1.00  0.00     0.447 C 
HETATM   28 CL   UNL     1     -37.356  40.506 -60.370  1.00  0.00    -0.014 Cl
HETATM   29  F   UNL     1     -37.284  38.963 -58.324  1.00  0.00    -0.159 F 
HETATM   30  F   UNL     1     -39.267  39.229 -59.232  1.00  0.00    -0.159 F 
ENDBRANCH  26  27
ENDBRANCH  10  26
TORSDOF 8
ENDMDL
MODEL 10
REMARK VINA RESULT:      -6.9      4.041      6.088
REMARK  8 active torsions:
REMARK  status: ('A' for Active; 'I' for Inactive)
REMARK    1  A    between atoms: C_7  and  C_8 
REMARK    2  A    between atoms: C_8  and  C_9 
REMARK    3  A    between atoms: C_9  and  N_10 
REMARK       I    between atoms: N_10  and  C_11 
REMARK    4  A    between atoms: C_11  and  C_12 
REMARK    5  A    between atoms: C_12  and  S_13 
REMARK    6  A    between atoms: S_13  and  C_14 
REMARK    7  A    between atoms: C_23  and  O_24 
REMARK    8  A    between atoms: O_24  and  C_25 
ROOT
HETATM    1  C   UNL     1     -43.290  60.118 -54.810  1.00  0.00     0.068 C 
HETATM    2  C   UNL     1     -42.906  59.201 -53.705  1.00  0.00     0.013 A 
HETATM    3  N   UNL     1     -41.893  59.506 -52.832  1.00  0.00    -0.359 N 
HETATM    4  H   UNL     1     -41.338  60.350 -52.858  1.00  0.00     0.166 HD
HETATM    5  C   UNL     1     -41.725  58.495 -51.916  1.00  0.00     0.043 A 
HETATM    6  C   UNL     1     -42.671  57.516 -52.205  1.00  0.00     0.002 A 
HETATM    7  C   UNL     1     -43.422  57.966 -53.340  1.00  0.00    -0.022 A 
HETATM    8  C   UNL     1     -40.815  58.376 -50.860  1.00  0.00     0.033 A 
HETATM    9  C   UNL     1     -40.868  57.215 -50.078  1.00  0.00     0.039 A 
HETATM   10  C   UNL     1     -41.799  56.211 -50.338  1.00  0.00     0.077 A 
HETATM   11  C   UNL     1     -42.706  56.361 -51.399  1.00  0.00     0.051 A 
ENDROOT
BRANCH   7  12
HETATM   12  C   UNL     1     -44.543  57.236 -54.015  1.00  0.00     0.061 C 
BRANCH  12  13
HETATM   13  C   UNL     1     -44.067  56.483 -55.259  1.00  0.00     0.127 C 
BRANCH  13  14
HETATM   14  N   UNL     1     -43.596  55.143 -54.959  1.00  0.00    -0.360 N 
HETATM   15  C   UNL     1     -42.256  54.820 -55.018  1.00  0.00     0.227 C 
HETATM   16  O   UNL     1     -41.396  55.591 -55.437  1.00  0.00    -0.273 OA
HETATM   17  H   UNL     1     -44.162  54.564 -54.337  1.00  0.00     0.162 HD
BRANCH  15  18
HETATM   18  C   UNL     1     -41.929  53.418 -54.538  1.00  0.00     0.183 C 
BRANCH  18  19
HETATM   19  S   UNL     1     -40.448  53.427 -53.495  1.00  0.00    -0.098 SA
BRANCH  19  20
HETATM   20  C   UNL     1     -40.063  51.739 -53.351  1.00  0.00     0.134 A 
HETATM   21  N   UNL     1     -39.674  51.141 -52.218  1.00  0.00    -0.149 NA
HETATM   22  N   UNL     1     -39.526  49.866 -52.636  1.00  0.00    -0.196 N 
HETATM   23  H   UNL     1     -39.242  49.129 -51.993  1.00  0.00     0.213 HD
HETATM   24  N   UNL     1     -39.760  49.593 -53.930  1.00  0.00    -0.167 NA
HETATM   25  C   UNL     1     -40.107  50.799 -54.393  1.00  0.00     0.180 A 
ENDBRANCH  19  20
ENDBRANCH  18  19
ENDBRANCH  15  18
ENDBRANCH  13  14
ENDBRANCH  12  13
ENDBRANCH   7  12
BRANCH  10  26
HETATM   26  O   UNL     1     -41.942  55.039 -49.647  1.00  0.00    -0.270 OA
BRANCH  26  27
HETATM   27  C   UNL     1     -40.843  54.138 -49.607  1.00  0.00     0.447 C 
HETATM   28 CL   UNL     1     -40.372  53.863 -47.927  1.00  0.00    -0.014 Cl
HETATM   29  F   UNL     1     -41.189  52.960 -50.182  1.00  0.00    -0.159 F 
HETATM   30  F   UNL     1     -39.796  54.655 -50.298  1.00  0.00    -0.159 F 
ENDBRANCH  26  27
ENDBRANCH  10  26
TORSDOF 8
ENDMDL
