MODEL 1
REMARK VINA RESULT:      -8.1      0.000      0.000
REMARK  4 active torsions:
REMARK  status: ('A' for Active; 'I' for Inactive)
REMARK    1  A    between atoms: C_9  and  N_10 
REMARK       I    between atoms: N_10  and  C_11 
REMARK    2  A    between atoms: C_11  and  C_12 
REMARK    3  A    between atoms: C_14  and  C_15 
REMARK    4  A    between atoms: C_22  and  O_23 
ROOT
HETATM    1  N   UNL     1     -43.013  57.400 -51.846  1.00  0.00    -0.322 N 
HETATM    2  C   UNL     1     -41.868  56.811 -51.323  1.00  0.00     0.265 C 
HETATM    3  O   UNL     1     -41.367  57.134 -50.248  1.00  0.00    -0.267 OA
HETATM    4  H   UNL     1     -43.406  56.938 -52.657  1.00  0.00     0.169 HD
ENDROOT
BRANCH   2   5
HETATM    5  C   UNL     1     -41.323  55.750 -52.157  1.00  0.00     0.107 A 
HETATM    6  S   UNL     1     -40.902  54.244 -51.455  1.00  0.00    -0.081 SA
HETATM    7  C   UNL     1     -40.539  53.549 -52.976  1.00  0.00     0.018 A 
HETATM    8  C   UNL     1     -40.679  54.474 -53.993  1.00  0.00     0.058 A 
HETATM    9  C   UNL     1     -41.124  55.748 -53.523  1.00  0.00     0.092 A 
BRANCH   7  10
HETATM   10  C   UNL     1     -40.180  52.131 -53.077  1.00  0.00    -0.019 A 
HETATM   11  C   UNL     1     -39.804  51.426 -51.923  1.00  0.00     0.013 A 
HETATM   12  C   UNL     1     -39.457  50.075 -51.995  1.00  0.00     0.001 A 
HETATM   13  C   UNL     1     -39.490  49.412 -53.221  1.00  0.00     0.000 A 
HETATM   14  C   UNL     1     -39.868  50.099 -54.372  1.00  0.00     0.001 A 
HETATM   15  C   UNL     1     -40.212  51.451 -54.302  1.00  0.00     0.013 A 
ENDBRANCH   7  10
BRANCH   9  16
HETATM   16  O   UNL     1     -41.352  56.881 -54.237  1.00  0.00    -0.354 OA
HETATM   17  C   UNL     1     -42.184  56.717 -55.377  1.00  0.00     0.210 C 
ENDBRANCH   9  16
ENDBRANCH   2   5
BRANCH   1  18
HETATM   18  C   UNL     1     -43.702  58.521 -51.344  1.00  0.00     0.035 A 
HETATM   19  C   UNL     1     -43.099  59.768 -51.153  1.00  0.00     0.039 A 
HETATM   20  C   UNL     1     -43.871  60.825 -50.692  1.00  0.00    -0.022 A 
HETATM   21  C   UNL     1     -43.446  62.235 -50.482  1.00  0.00     0.274 C 
HETATM   22  C   UNL     1     -45.227  60.662 -50.407  1.00  0.00    -0.025 A 
HETATM   23  N   UNL     1     -44.657  62.927 -49.865  1.00  0.00    -0.067 N 
HETATM   24  C   UNL     1     -44.941  64.271 -50.436  1.00  0.00     0.270 C 
HETATM   25  H   UNL     1     -44.446  63.029 -48.865  1.00  0.00     0.280 HD
HETATM   26  C   UNL     1     -45.826  61.949 -49.960  1.00  0.00     0.273 C 
HETATM   27  C   UNL     1     -45.844  59.436 -50.588  1.00  0.00     0.012 A 
HETATM   28  C   UNL     1     -45.075  58.369 -51.068  1.00  0.00     0.030 A 
ENDBRANCH   1  18
TORSDOF 4
ENDMDL
MODEL 2
REMARK VINA RESULT:      -8.0      4.162      6.552
REMARK  4 active torsions:
REMARK  status: ('A' for Active; 'I' for Inactive)
REMARK    1  A    between atoms: C_9  and  N_10 
REMARK       I    between atoms: N_10  and  C_11 
REMARK    2  A    between atoms: C_11  and  C_12 
REMARK    3  A    between atoms: C_14  and  C_15 
REMARK    4  A    between atoms: C_22  and  O_23 
ROOT
HETATM    1  N   UNL     1     -42.085  56.889 -56.991  1.00  0.00    -0.322 N 
HETATM    2  C   UNL     1     -42.796  56.814 -55.798  1.00  0.00     0.265 C 
HETATM    3  O   UNL     1     -43.852  57.410 -55.598  1.00  0.00    -0.267 OA
HETATM    4  H   UNL     1     -41.320  56.231 -57.080  1.00  0.00     0.169 HD
ENDROOT
BRANCH   2   5
HETATM    5  C   UNL     1     -42.187  55.939 -54.808  1.00  0.00     0.107 A 
HETATM    6  S   UNL     1     -42.025  54.264 -55.133  1.00  0.00    -0.081 SA
HETATM    7  C   UNL     1     -41.143  53.991 -53.691  1.00  0.00     0.018 A 
HETATM    8  C   UNL     1     -41.031  55.151 -52.948  1.00  0.00     0.058 A 
HETATM    9  C   UNL     1     -41.639  56.276 -53.586  1.00  0.00     0.092 A 
BRANCH   7  10
HETATM   10  C   UNL     1     -40.584  52.667 -53.404  1.00  0.00    -0.019 A 
HETATM   11  C   UNL     1     -40.553  51.692 -54.413  1.00  0.00     0.013 A 
HETATM   12  C   UNL     1     -40.027  50.423 -54.162  1.00  0.00     0.001 A 
HETATM   13  C   UNL     1     -39.518  50.117 -52.901  1.00  0.00     0.000 A 
HETATM   14  C   UNL     1     -39.535  51.079 -51.893  1.00  0.00     0.001 A 
HETATM   15  C   UNL     1     -40.065  52.348 -52.142  1.00  0.00     0.013 A 
ENDBRANCH   7  10
BRANCH   9  16
HETATM   16  O   UNL     1     -41.730  57.555 -53.139  1.00  0.00    -0.354 OA
HETATM   17  C   UNL     1     -40.551  58.333 -53.299  1.00  0.00     0.210 C 
ENDBRANCH   9  16
ENDBRANCH   2   5
BRANCH   1  18
HETATM   18  C   UNL     1     -42.345  57.731 -58.088  1.00  0.00     0.035 A 
HETATM   19  C   UNL     1     -41.854  59.037 -58.185  1.00  0.00     0.039 A 
HETATM   20  C   UNL     1     -42.129  59.776 -59.326  1.00  0.00    -0.022 A 
HETATM   21  C   UNL     1     -41.655  61.148 -59.654  1.00  0.00     0.274 C 
HETATM   22  C   UNL     1     -42.892  59.247 -60.366  1.00  0.00    -0.025 A 
HETATM   23  N   UNL     1     -42.347  61.503 -60.967  1.00  0.00    -0.067 N 
HETATM   24  C   UNL     1     -41.457  62.165 -61.959  1.00  0.00     0.270 C 
HETATM   25  H   UNL     1     -43.107  62.148 -60.721  1.00  0.00     0.280 HD
HETATM   26  C   UNL     1     -43.013  60.229 -61.479  1.00  0.00     0.273 C 
HETATM   27  C   UNL     1     -43.389  57.957 -60.292  1.00  0.00     0.012 A 
HETATM   28  C   UNL     1     -43.102  57.199 -59.150  1.00  0.00     0.030 A 
ENDBRANCH   1  18
TORSDOF 4
ENDMDL
MODEL 3
REMARK VINA RESULT:      -8.0      3.940      6.419
REMARK  4 active torsions:
REMARK  status: ('A' for Active; 'I' for Inactive)
REMARK    1  A    between atoms: C_9  and  N_10 
REMARK       I    between atoms: N_10  and  C_11 
REMARK    2  A    between atoms: C_11  and  C_12 
REMARK    3  A    between atoms: C_14  and  C_15 
REMARK    4  A    between atoms: C_22  and  O_23 
ROOT
HETATM    1  N   UNL     1     -42.318  56.492 -56.802  1.00  0.00    -0.322 N 
HETATM    2  C   UNL     1     -42.732  56.539 -55.476  1.00  0.00     0.265 C 
HETATM    3  O   UNL     1     -43.646  57.254 -55.074  1.00  0.00    -0.267 OA
HETATM    4  H   UNL     1     -41.664  55.751 -57.025  1.00  0.00     0.169 HD
ENDROOT
BRANCH   2   5
HETATM    5  C   UNL     1     -41.997  55.637 -54.601  1.00  0.00     0.107 A 
HETATM    6  S   UNL     1     -42.094  53.943 -54.846  1.00  0.00    -0.081 SA
HETATM    7  C   UNL     1     -40.924  53.624 -53.637  1.00  0.00     0.018 A 
HETATM    8  C   UNL     1     -40.516  54.791 -53.019  1.00  0.00     0.058 A 
HETATM    9  C   UNL     1     -41.139  55.953 -53.567  1.00  0.00     0.092 A 
BRANCH   7  10
HETATM   10  C   UNL     1     -40.454  52.255 -53.404  1.00  0.00    -0.019 A 
HETATM   11  C   UNL     1     -39.980  51.891 -52.134  1.00  0.00     0.013 A 
HETATM   12  C   UNL     1     -39.525  50.593 -51.889  1.00  0.00     0.001 A 
HETATM   13  C   UNL     1     -39.546  49.644 -52.910  1.00  0.00     0.000 A 
HETATM   14  C   UNL     1     -40.020  49.991 -54.173  1.00  0.00     0.001 A 
HETATM   15  C   UNL     1     -40.473  51.290 -54.420  1.00  0.00     0.013 A 
ENDBRANCH   7  10
BRANCH   9  16
HETATM   16  O   UNL     1     -40.985  57.250 -53.196  1.00  0.00    -0.354 OA
HETATM   17  C   UNL     1     -41.662  57.619 -52.002  1.00  0.00     0.210 C 
ENDBRANCH   9  16
ENDBRANCH   2   5
BRANCH   1  18
HETATM   18  C   UNL     1     -42.743  57.318 -57.859  1.00  0.00     0.035 A 
HETATM   19  C   UNL     1     -44.009  57.221 -58.446  1.00  0.00     0.039 A 
HETATM   20  C   UNL     1     -44.353  58.108 -59.456  1.00  0.00    -0.022 A 
HETATM   21  C   UNL     1     -45.657  58.215 -60.163  1.00  0.00     0.274 C 
HETATM   22  C   UNL     1     -43.459  59.081 -59.900  1.00  0.00    -0.025 A 
HETATM   23  N   UNL     1     -45.438  59.274 -61.240  1.00  0.00    -0.067 N 
HETATM   24  C   UNL     1     -46.557  60.246 -61.369  1.00  0.00     0.270 C 
HETATM   25  H   UNL     1     -45.340  58.762 -62.124  1.00  0.00     0.280 HD
HETATM   26  C   UNL     1     -44.082  59.917 -60.963  1.00  0.00     0.273 C 
HETATM   27  C   UNL     1     -42.201  59.196 -59.335  1.00  0.00     0.012 A 
HETATM   28  C   UNL     1     -41.852  58.314 -58.304  1.00  0.00     0.030 A 
ENDBRANCH   1  18
TORSDOF 4
ENDMDL
MODEL 4
REMARK VINA RESULT:      -7.9      1.345      1.533
REMARK  4 active torsions:
REMARK  status: ('A' for Active; 'I' for Inactive)
REMARK    1  A    between atoms: C_9  and  N_10 
REMARK       I    between atoms: N_10  and  C_11 
REMARK    2  A    between atoms: C_11  and  C_12 
REMARK    3  A    between atoms: C_14  and  C_15 
REMARK    4  A    between atoms: C_22  and  O_23 
ROOT
HETATM    1  N   UNL     1     -43.320  57.281 -52.930  1.00  0.00    -0.322 N 
HETATM    2  C   UNL     1     -41.956  57.116 -52.725  1.00  0.00     0.265 C 
HETATM    3  O   UNL     1     -41.259  57.917 -52.106  1.00  0.00    -0.267 OA
HETATM    4  H   UNL     1     -43.800  56.477 -53.317  1.00  0.00     0.169 HD
ENDROOT
BRANCH   2   5
HETATM    5  C   UNL     1     -41.423  55.886 -53.291  1.00  0.00     0.107 A 
HETATM    6  S   UNL     1     -40.931  54.612 -52.254  1.00  0.00    -0.081 SA
HETATM    7  C   UNL     1     -40.621  53.559 -53.568  1.00  0.00     0.018 A 
HETATM    8  C   UNL     1     -40.833  54.195 -54.777  1.00  0.00     0.058 A 
HETATM    9  C   UNL     1     -41.288  55.540 -54.620  1.00  0.00     0.092 A 
BRANCH   7  10
HETATM   10  C   UNL     1     -40.231  52.167 -53.326  1.00  0.00    -0.019 A 
HETATM   11  C   UNL     1     -39.854  51.766 -52.035  1.00  0.00     0.013 A 
HETATM   12  C   UNL     1     -39.477  50.445 -51.780  1.00  0.00     0.001 A 
HETATM   13  C   UNL     1     -39.481  49.509 -52.814  1.00  0.00     0.000 A 
HETATM   14  C   UNL     1     -39.860  49.893 -54.098  1.00  0.00     0.001 A 
HETATM   15  C   UNL     1     -40.234  51.215 -54.354  1.00  0.00     0.013 A 
ENDBRANCH   7  10
BRANCH   9  16
HETATM   16  O   UNL     1     -41.578  56.452 -55.584  1.00  0.00    -0.354 OA
HETATM   17  C   UNL     1     -42.655  56.099 -56.442  1.00  0.00     0.210 C 
ENDBRANCH   9  16
ENDBRANCH   2   5
BRANCH   1  18
HETATM   18  C   UNL     1     -44.101  58.409 -52.613  1.00  0.00     0.035 A 
HETATM   19  C   UNL     1     -44.341  58.830 -51.302  1.00  0.00     0.039 A 
HETATM   20  C   UNL     1     -45.090  59.979 -51.090  1.00  0.00    -0.022 A 
HETATM   21  C   UNL     1     -45.406  60.629 -49.790  1.00  0.00     0.274 C 
HETATM   22  C   UNL     1     -45.614  60.708 -52.157  1.00  0.00    -0.025 A 
HETATM   23  N   UNL     1     -46.344  61.781 -50.140  1.00  0.00    -0.067 N 
HETATM   24  C   UNL     1     -46.035  63.050 -49.427  1.00  0.00     0.270 C 
HETATM   25  H   UNL     1     -47.285  61.471 -49.873  1.00  0.00     0.280 HD
HETATM   26  C   UNL     1     -46.348  61.906 -51.662  1.00  0.00     0.273 C 
HETATM   27  C   UNL     1     -45.391  60.309 -53.463  1.00  0.00     0.012 A 
HETATM   28  C   UNL     1     -44.622  59.159 -53.685  1.00  0.00     0.030 A 
ENDBRANCH   1  18
TORSDOF 4
ENDMDL
MODEL 5
REMARK VINA RESULT:      -7.8      5.035      7.352
REMARK  4 active torsions:
REMARK  status: ('A' for Active; 'I' for Inactive)
REMARK    1  A    between atoms: C_9  and  N_10 
REMARK       I    between atoms: N_10  and  C_11 
REMARK    2  A    between atoms: C_11  and  C_12 
REMARK    3  A    between atoms: C_14  and  C_15 
REMARK    4  A    between atoms: C_22  and  O_23 
ROOT
HETATM    1  N   UNL     1     -44.365  57.311 -57.149  1.00  0.00    -0.322 N 
HETATM    2  C   UNL     1     -42.995  57.080 -57.189  1.00  0.00     0.265 C 
HETATM    3  O   UNL     1     -42.293  57.319 -58.169  1.00  0.00    -0.267 OA
HETATM    4  H   UNL     1     -44.792  57.218 -56.235  1.00  0.00     0.169 HD
ENDROOT
BRANCH   2   5
HETATM    5  C   UNL     1     -42.454  56.548 -55.947  1.00  0.00     0.107 A 
HETATM    6  S   UNL     1     -42.126  54.872 -55.806  1.00  0.00    -0.081 SA
HETATM    7  C   UNL     1     -41.419  55.061 -54.259  1.00  0.00     0.018 A 
HETATM    8  C   UNL     1     -41.490  56.375 -53.836  1.00  0.00     0.058 A 
HETATM    9  C   UNL     1     -42.094  57.235 -54.804  1.00  0.00     0.092 A 
BRANCH   7  10
HETATM   10  C   UNL     1     -40.803  53.917 -53.580  1.00  0.00    -0.019 A 
HETATM   11  C   UNL     1     -40.658  53.933 -52.184  1.00  0.00     0.013 A 
HETATM   12  C   UNL     1     -40.073  52.855 -51.516  1.00  0.00     0.001 A 
HETATM   13  C   UNL     1     -39.633  51.746 -52.236  1.00  0.00     0.000 A 
HETATM   14  C   UNL     1     -39.778  51.715 -53.622  1.00  0.00     0.001 A 
HETATM   15  C   UNL     1     -40.360  52.794 -54.292  1.00  0.00     0.013 A 
ENDBRANCH   7  10
BRANCH   9  16
HETATM   16  O   UNL     1     -42.336  58.568 -54.717  1.00  0.00    -0.354 OA
HETATM   17  C   UNL     1     -41.423  59.294 -53.907  1.00  0.00     0.210 C 
ENDBRANCH   9  16
ENDBRANCH   2   5
BRANCH   1  18
HETATM   18  C   UNL     1     -45.196  57.706 -58.214  1.00  0.00     0.035 A 
HETATM   19  C   UNL     1     -45.692  56.813 -59.170  1.00  0.00     0.039 A 
HETATM   20  C   UNL     1     -46.538  57.289 -60.161  1.00  0.00    -0.022 A 
HETATM   21  C   UNL     1     -47.219  56.505 -61.226  1.00  0.00     0.274 C 
HETATM   22  C   UNL     1     -46.891  58.637 -60.226  1.00  0.00    -0.025 A 
HETATM   23  N   UNL     1     -47.926  57.544 -62.092  1.00  0.00    -0.067 N 
HETATM   24  C   UNL     1     -49.312  57.164 -62.480  1.00  0.00     0.270 C 
HETATM   25  H   UNL     1     -47.358  57.638 -62.941  1.00  0.00     0.280 HD
HETATM   26  C   UNL     1     -47.828  58.878 -61.357  1.00  0.00     0.273 C 
HETATM   27  C   UNL     1     -46.411  59.538 -59.291  1.00  0.00     0.012 A 
HETATM   28  C   UNL     1     -45.569  59.062 -58.279  1.00  0.00     0.030 A 
ENDBRANCH   1  18
TORSDOF 4
ENDMDL
MODEL 6
REMARK VINA RESULT:      -7.8      2.398      9.590
REMARK  4 active torsions:
REMARK  status: ('A' for Active; 'I' for Inactive)
REMARK    1  A    between atoms: C_9  and  N_10 
REMARK       I    between atoms: N_10  and  C_11 
REMARK    2  A    between atoms: C_11  and  C_12 
REMARK    3  A    between atoms: C_14  and  C_15 
REMARK    4  A    between atoms: C_22  and  O_23 
ROOT
HETATM    1  N   UNL     1     -42.218  56.394 -52.402  1.00  0.00    -0.322 N 
HETATM    2  C   UNL     1     -41.692  57.680 -52.431  1.00  0.00     0.265 C 
HETATM    3  O   UNL     1     -40.586  57.952 -52.894  1.00  0.00    -0.267 OA
HETATM    4  H   UNL     1     -43.195  56.333 -52.139  1.00  0.00     0.169 HD
ENDROOT
BRANCH   2   5
HETATM    5  C   UNL     1     -42.584  58.691 -51.883  1.00  0.00     0.107 A 
HETATM    6  S   UNL     1     -41.974  59.877 -50.806  1.00  0.00    -0.081 SA
HETATM    7  C   UNL     1     -43.466  60.714 -50.760  1.00  0.00     0.018 A 
HETATM    8  C   UNL     1     -44.428  60.060 -51.507  1.00  0.00     0.058 A 
HETATM    9  C   UNL     1     -43.924  58.888 -52.150  1.00  0.00     0.092 A 
BRANCH   7  10
HETATM   10  C   UNL     1     -43.584  61.979 -50.028  1.00  0.00    -0.019 A 
HETATM   11  C   UNL     1     -42.787  63.073 -50.400  1.00  0.00     0.013 A 
HETATM   12  C   UNL     1     -42.881  64.288 -49.717  1.00  0.00     0.001 A 
HETATM   13  C   UNL     1     -43.778  64.423 -48.658  1.00  0.00     0.000 A 
HETATM   14  C   UNL     1     -44.579  63.347 -48.284  1.00  0.00     0.001 A 
HETATM   15  C   UNL     1     -44.484  62.130 -48.965  1.00  0.00     0.013 A 
ENDBRANCH   7  10
BRANCH   9  16
HETATM   16  O   UNL     1     -44.588  58.007 -52.941  1.00  0.00    -0.354 OA
HETATM   17  C   UNL     1     -44.987  58.515 -54.207  1.00  0.00     0.210 C 
ENDBRANCH   9  16
ENDBRANCH   2   5
BRANCH   1  18
HETATM   18  C   UNL     1     -41.565  55.196 -52.744  1.00  0.00     0.035 A 
HETATM   19  C   UNL     1     -41.060  54.301 -51.795  1.00  0.00     0.039 A 
HETATM   20  C   UNL     1     -40.466  53.125 -52.228  1.00  0.00    -0.022 A 
HETATM   21  C   UNL     1     -39.926  52.019 -51.392  1.00  0.00     0.274 C 
HETATM   22  C   UNL     1     -40.356  52.826 -53.586  1.00  0.00    -0.025 A 
HETATM   23  N   UNL     1     -39.300  51.041 -52.382  1.00  0.00    -0.067 N 
HETATM   24  C   UNL     1     -39.603  49.613 -52.095  1.00  0.00     0.270 C 
HETATM   25  H   UNL     1     -38.286  51.184 -52.318  1.00  0.00     0.280 HD
HETATM   26  C   UNL     1     -39.712  51.498 -53.779  1.00  0.00     0.273 C 
HETATM   27  C   UNL     1     -40.848  53.697 -54.543  1.00  0.00     0.012 A 
HETATM   28  C   UNL     1     -41.462  54.880 -54.112  1.00  0.00     0.030 A 
ENDBRANCH   1  18
TORSDOF 4
ENDMDL
MODEL 7
REMARK VINA RESULT:      -7.7      5.229      9.034
REMARK  4 active torsions:
REMARK  status: ('A' for Active; 'I' for Inactive)
REMARK    1  A    between atoms: C_9  and  N_10 
REMARK       I    between atoms: N_10  and  C_11 
REMARK    2  A    between atoms: C_11  and  C_12 
REMARK    3  A    between atoms: C_14  and  C_15 
REMARK    4  A    between atoms: C_22  and  O_23 
ROOT
HETATM    1  N   UNL     1     -41.433  55.690 -55.636  1.00  0.00    -0.322 N 
HETATM    2  C   UNL     1     -42.727  56.023 -56.019  1.00  0.00     0.265 C 
HETATM    3  O   UNL     1     -43.725  55.739 -55.360  1.00  0.00    -0.267 OA
HETATM    4  H   UNL     1     -40.696  56.117 -56.185  1.00  0.00     0.169 HD
ENDROOT
BRANCH   2   5
HETATM    5  C   UNL     1     -42.795  56.768 -57.267  1.00  0.00     0.107 A 
HETATM    6  S   UNL     1     -42.292  58.406 -57.312  1.00  0.00    -0.081 SA
HETATM    7  C   UNL     1     -42.497  58.503 -59.009  1.00  0.00     0.018 A 
HETATM    8  C   UNL     1     -43.000  57.320 -59.518  1.00  0.00     0.058 A 
HETATM    9  C   UNL     1     -43.180  56.320 -58.514  1.00  0.00     0.092 A 
BRANCH   7  10
HETATM   10  C   UNL     1     -42.113  59.717 -59.734  1.00  0.00    -0.019 A 
HETATM   11  C   UNL     1     -41.649  60.834 -59.021  1.00  0.00     0.013 A 
HETATM   12  C   UNL     1     -41.278  62.003 -59.691  1.00  0.00     0.001 A 
HETATM   13  C   UNL     1     -41.360  62.064 -61.081  1.00  0.00     0.000 A 
HETATM   14  C   UNL     1     -41.812  60.960 -61.800  1.00  0.00     0.001 A 
HETATM   15  C   UNL     1     -42.186  59.792 -61.132  1.00  0.00     0.013 A 
ENDBRANCH   7  10
BRANCH   9  16
HETATM   16  O   UNL     1     -43.664  55.058 -58.655  1.00  0.00    -0.354 OA
HETATM   17  C   UNL     1     -44.426  54.834 -59.833  1.00  0.00     0.210 C 
ENDBRANCH   9  16
ENDBRANCH   2   5
BRANCH   1  18
HETATM   18  C   UNL     1     -41.044  54.878 -54.554  1.00  0.00     0.035 A 
HETATM   19  C   UNL     1     -41.023  55.327 -53.229  1.00  0.00     0.039 A 
HETATM   20  C   UNL     1     -40.664  54.440 -52.224  1.00  0.00    -0.022 A 
HETATM   21  C   UNL     1     -40.637  54.693 -50.759  1.00  0.00     0.274 C 
HETATM   22  C   UNL     1     -40.317  53.120 -52.512  1.00  0.00    -0.025 A 
HETATM   23  N   UNL     1     -40.066  53.418 -50.146  1.00  0.00    -0.067 N 
HETATM   24  C   UNL     1     -40.782  52.960 -48.925  1.00  0.00     0.270 C 
HETATM   25  H   UNL     1     -39.094  53.633 -49.899  1.00  0.00     0.280 HD
HETATM   26  C   UNL     1     -40.006  52.376 -51.261  1.00  0.00     0.273 C 
HETATM   27  C   UNL     1     -40.330  52.655 -53.816  1.00  0.00     0.012 A 
HETATM   28  C   UNL     1     -40.706  53.540 -54.834  1.00  0.00     0.030 A 
ENDBRANCH   1  18
TORSDOF 4
ENDMDL
MODEL 8
REMARK VINA RESULT:      -7.6      1.924      2.689
REMARK  4 active torsions:
REMARK  status: ('A' for Active; 'I' for Inactive)
REMARK    1  A    between atoms: C_9  and  N_10 
REMARK       I    between atoms: N_10  and  C_11 
REMARK    2  A    between atoms: C_11  and  C_12 
REMARK    3  A    between atoms: C_14  and  C_15 
REMARK    4  A    between atoms: C_22  and  O_23 
ROOT
HETATM    1  N   UNL     1     -44.116  58.887 -51.968  1.00  0.00    -0.322 N 
HETATM    2  C   UNL     1     -44.357  57.580 -51.562  1.00  0.00     0.265 C 
HETATM    3  O   UNL     1     -45.107  57.283 -50.635  1.00  0.00    -0.267 OA
HETATM    4  H   UNL     1     -43.605  58.982 -52.838  1.00  0.00     0.169 HD
ENDROOT
BRANCH   2   5
HETATM    5  C   UNL     1     -43.657  56.581 -52.357  1.00  0.00     0.107 A 
HETATM    6  S   UNL     1     -42.416  55.639 -51.643  1.00  0.00    -0.081 SA
HETATM    7  C   UNL     1     -42.234  54.676 -53.046  1.00  0.00     0.018 A 
HETATM    8  C   UNL     1     -43.067  55.111 -54.060  1.00  0.00     0.058 A 
HETATM    9  C   UNL     1     -43.883  56.215 -53.668  1.00  0.00     0.092 A 
BRANCH   7  10
HETATM   10  C   UNL     1     -41.317  53.531 -53.047  1.00  0.00    -0.019 A 
HETATM   11  C   UNL     1     -41.140  52.784 -54.221  1.00  0.00     0.013 A 
HETATM   12  C   UNL     1     -40.273  51.689 -54.245  1.00  0.00     0.001 A 
HETATM   13  C   UNL     1     -39.569  51.334 -53.095  1.00  0.00     0.000 A 
HETATM   14  C   UNL     1     -39.731  52.072 -51.925  1.00  0.00     0.001 A 
HETATM   15  C   UNL     1     -40.600  53.166 -51.899  1.00  0.00     0.013 A 
ENDBRANCH   7  10
BRANCH   9  16
HETATM   16  O   UNL     1     -44.796  56.896 -54.408  1.00  0.00    -0.354 OA
HETATM   17  C   UNL     1     -44.280  57.517 -55.578  1.00  0.00     0.210 C 
ENDBRANCH   9  16
ENDBRANCH   2   5
BRANCH   1  18
HETATM   18  C   UNL     1     -44.545  60.070 -51.338  1.00  0.00     0.035 A 
HETATM   19  C   UNL     1     -45.712  60.750 -51.697  1.00  0.00     0.039 A 
HETATM   20  C   UNL     1     -46.075  61.886 -50.989  1.00  0.00    -0.022 A 
HETATM   21  C   UNL     1     -47.298  62.714 -51.167  1.00  0.00     0.274 C 
HETATM   22  C   UNL     1     -45.293  62.366 -49.939  1.00  0.00    -0.025 A 
HETATM   23  N   UNL     1     -47.125  63.888 -50.208  1.00  0.00    -0.067 N 
HETATM   24  C   UNL     1     -48.356  64.232 -49.445  1.00  0.00     0.270 C 
HETATM   25  H   UNL     1     -46.860  64.692 -50.788  1.00  0.00     0.280 HD
HETATM   26  C   UNL     1     -45.916  63.573 -49.331  1.00  0.00     0.273 C 
HETATM   27  C   UNL     1     -44.132  61.709 -49.566  1.00  0.00     0.012 A 
HETATM   28  C   UNL     1     -43.768  60.552 -50.266  1.00  0.00     0.030 A 
ENDBRANCH   1  18
TORSDOF 4
ENDMDL
MODEL 9
REMARK VINA RESULT:      -7.6      1.475      2.738
REMARK  4 active torsions:
REMARK  status: ('A' for Active; 'I' for Inactive)
REMARK    1  A    between atoms: C_9  and  N_10 
REMARK       I    between atoms: N_10  and  C_11 
REMARK    2  A    between atoms: C_11  and  C_12 
REMARK    3  A    between atoms: C_14  and  C_15 
REMARK    4  A    between atoms: C_22  and  O_23 
ROOT
HETATM    1  N   UNL     1     -42.310  57.506 -51.306  1.00  0.00    -0.322 N 
HETATM    2  C   UNL     1     -41.523  56.913 -52.286  1.00  0.00     0.265 C 
HETATM    3  O   UNL     1     -41.117  57.505 -53.283  1.00  0.00    -0.267 OA
HETATM    4  H   UNL     1     -42.443  56.956 -50.466  1.00  0.00     0.169 HD
ENDROOT
BRANCH   2   5
HETATM    5  C   UNL     1     -41.196  55.522 -52.011  1.00  0.00     0.107 A 
HETATM    6  S   UNL     1     -41.090  54.398 -53.301  1.00  0.00    -0.081 SA
HETATM    7  C   UNL     1     -40.546  53.146 -52.268  1.00  0.00     0.018 A 
HETATM    8  C   UNL     1     -40.507  53.567 -50.953  1.00  0.00     0.058 A 
HETATM    9  C   UNL     1     -40.889  54.935 -50.799  1.00  0.00     0.092 A 
BRANCH   7  10
HETATM   10  C   UNL     1     -40.154  51.846 -52.822  1.00  0.00    -0.019 A 
HETATM   11  C   UNL     1     -40.242  51.626 -54.205  1.00  0.00     0.013 A 
HETATM   12  C   UNL     1     -39.876  50.395 -54.755  1.00  0.00     0.001 A 
HETATM   13  C   UNL     1     -39.411  49.374 -53.928  1.00  0.00     0.000 A 
HETATM   14  C   UNL     1     -39.312  49.583 -52.554  1.00  0.00     0.001 A 
HETATM   15  C   UNL     1     -39.681  50.812 -52.003  1.00  0.00     0.013 A 
ENDBRANCH   7  10
BRANCH   9  16
HETATM   16  O   UNL     1     -40.977  55.666 -49.658  1.00  0.00    -0.354 OA
HETATM   17  C   UNL     1     -40.970  54.908 -48.456  1.00  0.00     0.210 C 
ENDBRANCH   9  16
ENDBRANCH   2   5
BRANCH   1  18
HETATM   18  C   UNL     1     -42.888  58.789 -51.336  1.00  0.00     0.035 A 
HETATM   19  C   UNL     1     -44.159  59.045 -51.859  1.00  0.00     0.039 A 
HETATM   20  C   UNL     1     -44.661  60.337 -51.807  1.00  0.00    -0.022 A 
HETATM   21  C   UNL     1     -46.002  60.808 -52.246  1.00  0.00     0.274 C 
HETATM   22  C   UNL     1     -43.919  61.382 -51.256  1.00  0.00    -0.025 A 
HETATM   23  N   UNL     1     -45.971  62.323 -52.063  1.00  0.00    -0.067 N 
HETATM   24  C   UNL     1     -47.207  62.884 -51.453  1.00  0.00     0.270 C 
HETATM   25  H   UNL     1     -45.855  62.719 -53.002  1.00  0.00     0.280 HD
HETATM   26  C   UNL     1     -44.693  62.652 -51.296  1.00  0.00     0.273 C 
HETATM   27  C   UNL     1     -42.657  61.152 -50.734  1.00  0.00     0.012 A 
HETATM   28  C   UNL     1     -42.151  59.847 -50.768  1.00  0.00     0.030 A 
ENDBRANCH   1  18
TORSDOF 4
ENDMDL
MODEL 10
REMARK VINA RESULT:      -7.5      2.383      9.584
REMARK  4 active torsions:
REMARK  status: ('A' for Active; 'I' for Inactive)
REMARK    1  A    between atoms: C_9  and  N_10 
REMARK       I    between atoms: N_10  and  C_11 
REMARK    2  A    between atoms: C_11  and  C_12 
REMARK    3  A    between atoms: C_14  and  C_15 
REMARK    4  A    between atoms: C_22  and  O_23 
ROOT
HETATM    1  N   UNL     1     -41.705  56.429 -52.001  1.00  0.00    -0.322 N 
HETATM    2  C   UNL     1     -42.926  57.012 -52.320  1.00  0.00     0.265 C 
HETATM    3  O   UNL     1     -43.789  56.457 -52.996  1.00  0.00    -0.267 OA
HETATM    4  H   UNL     1     -41.155  56.928 -51.312  1.00  0.00     0.169 HD
ENDROOT
BRANCH   2   5
HETATM    5  C   UNL     1     -43.106  58.341 -51.753  1.00  0.00     0.107 A 
HETATM    6  S   UNL     1     -44.646  58.821 -51.174  1.00  0.00    -0.081 SA
HETATM    7  C   UNL     1     -44.042  60.303 -50.567  1.00  0.00     0.018 A 
HETATM    8  C   UNL     1     -42.699  60.450 -50.860  1.00  0.00     0.058 A 
HETATM    9  C   UNL     1     -42.157  59.323 -51.551  1.00  0.00     0.092 A 
BRANCH   7  10
HETATM   10  C   UNL     1     -44.914  61.204 -49.809  1.00  0.00    -0.019 A 
HETATM   11  C   UNL     1     -44.662  61.431 -48.447  1.00  0.00     0.013 A 
HETATM   12  C   UNL     1     -45.481  62.284 -47.703  1.00  0.00     0.001 A 
HETATM   13  C   UNL     1     -46.556  62.926 -48.316  1.00  0.00     0.000 A 
HETATM   14  C   UNL     1     -46.812  62.715 -49.669  1.00  0.00     0.001 A 
HETATM   15  C   UNL     1     -45.996  61.859 -50.413  1.00  0.00     0.013 A 
ENDBRANCH   7  10
BRANCH   9  16
HETATM   16  O   UNL     1     -40.890  59.136 -52.001  1.00  0.00    -0.354 OA
HETATM   17  C   UNL     1     -39.875  59.266 -51.015  1.00  0.00     0.210 C 
ENDBRANCH   9  16
ENDBRANCH   2   5
BRANCH   1  18
HETATM   18  C   UNL     1     -41.186  55.215 -52.488  1.00  0.00     0.035 A 
HETATM   19  C   UNL     1     -40.729  54.189 -51.655  1.00  0.00     0.039 A 
HETATM   20  C   UNL     1     -40.272  53.011 -52.227  1.00  0.00    -0.022 A 
HETATM   21  C   UNL     1     -39.806  51.784 -51.527  1.00  0.00     0.274 C 
HETATM   22  C   UNL     1     -40.252  52.837 -53.611  1.00  0.00    -0.025 A 
HETATM   23  N   UNL     1     -39.322  50.854 -52.636  1.00  0.00    -0.067 N 
HETATM   24  C   UNL     1     -39.749  49.438 -52.468  1.00  0.00     0.270 C 
HETATM   25  H   UNL     1     -38.296  50.895 -52.613  1.00  0.00     0.280 HD
HETATM   26  C   UNL     1     -39.748  51.480 -53.961  1.00  0.00     0.273 C 
HETATM   27  C   UNL     1     -40.699  53.839 -54.455  1.00  0.00     0.012 A 
HETATM   28  C   UNL     1     -41.176  55.026 -53.884  1.00  0.00     0.030 A 
ENDBRANCH   1  18
TORSDOF 4
ENDMDL
