MODEL 1
REMARK VINA RESULT:     -10.3      0.000      0.000
REMARK  8 active torsions:
REMARK  status: ('A' for Active; 'I' for Inactive)
REMARK    1  A    between atoms: C_6  and  N_7 
REMARK       I    between atoms: N_7  and  C_8 
REMARK    2  A    between atoms: C_8  and  C_9 
REMARK    3  A    between atoms: C_9  and  N_10 
REMARK    4  A    between atoms: N_14  and  C_15 
REMARK    5  A    between atoms: C_17  and  N_18 
REMARK    6  A    between atoms: N_18  and  C_19 
REMARK    7  A    between atoms: C_26  and  N_27 
REMARK    8  A    between atoms: N_27  and  C_28 
ROOT
HETATM    1  C   UNL     1     -43.059  59.293 -55.825  1.00  0.00     0.756 A 
HETATM    2  N   UNL     1     -42.527  60.462 -56.133  1.00  0.00     0.131 NA
HETATM    3  C   UNL     1     -41.860  60.513 -57.284  1.00  0.00     0.758 A 
HETATM    4  N   UNL     1     -41.730  59.482 -58.111  1.00  0.00     0.131 NA
HETATM    5  C   UNL     1     -42.283  58.343 -57.719  1.00  0.00     0.758 A 
HETATM    6  N   UNL     1     -42.915  58.206 -56.562  1.00  0.00     0.131 NA
ENDROOT
BRANCH   1   7
HETATM    7  N   UNL     1     -43.838  59.168 -54.679  1.00  0.00    -0.210 N 
HETATM    8  C   UNL     1     -43.350  59.856 -53.477  1.00  0.00     0.169 C 
HETATM    9  C   UNL     1     -42.484  58.943 -52.587  1.00  0.00     0.256 C 
HETATM   10  N   UNL     1     -43.255  57.643 -52.314  1.00  0.00    -0.060 N 
HETATM   11  H   UNL     1     -44.180  57.926 -51.971  1.00  0.00     0.280 HD
HETATM   12  C   UNL     1     -43.508  56.924 -53.640  1.00  0.00     0.256 C 
HETATM   13  C   UNL     1     -44.410  57.822 -54.522  1.00  0.00     0.169 C 
BRANCH  10  14
HETATM   14  C   UNL     1     -42.654  56.767 -51.225  1.00  0.00     0.337 C 
BRANCH  14  15
HETATM   15  C   UNL     1     -42.449  55.284 -51.556  1.00  0.00     0.248 C 
HETATM   16  N   UNL     1     -41.173  55.028 -52.039  1.00  0.00    -0.325 N 
HETATM   17  H   UNL     1     -40.631  55.831 -52.331  1.00  0.00     0.169 HD
HETATM   18  O   UNL     1     -43.371  54.486 -51.434  1.00  0.00    -0.271 OA
BRANCH  16  19
HETATM   19  C   UNL     1     -40.679  53.791 -52.535  1.00  0.00     0.046 A 
HETATM   20  C   UNL     1     -40.530  53.685 -53.943  1.00  0.00    -0.034 A 
HETATM   21  C   UNL     1     -40.106  52.472 -54.513  1.00  0.00     0.015 A 
HETATM   22  C   UNL     1     -40.843  54.818 -54.889  1.00  0.00     0.050 C 
HETATM   23  C   UNL     1     -39.802  51.370 -53.718  1.00  0.00    -0.061 A 
HETATM   24  C   UNL     1     -39.402  50.063 -54.336  1.00  0.00     0.048 C 
HETATM   25  C   UNL     1     -39.908  51.495 -52.331  1.00  0.00     0.015 A 
HETATM   26  C   UNL     1     -40.302  52.704 -51.721  1.00  0.00    -0.034 A 
HETATM   27  C   UNL     1     -40.218  52.738 -50.220  1.00  0.00     0.050 C 
ENDBRANCH  16  19
ENDBRANCH  14  15
ENDBRANCH  10  14
ENDBRANCH   1   7
BRANCH   3  28
HETATM   28  N   UNL     1     -41.300  61.708 -57.727  1.00  0.00    -0.187 N 
HETATM   29  H   UNL     1     -41.475  62.446 -57.058  1.00  0.00     0.184 HD
BRANCH  28  30
HETATM   30  C   UNL     1     -40.872  62.134 -58.990  1.00  0.00     0.049 A 
HETATM   31  C   UNL     1     -41.533  61.805 -60.178  1.00  0.00     0.030 A 
HETATM   32  C   UNL     1     -41.047  62.233 -61.418  1.00  0.00     0.002 A 
HETATM   33  C   UNL     1     -39.874  62.979 -61.487  1.00  0.00     0.000 A 
HETATM   34  C   UNL     1     -39.188  63.298 -60.318  1.00  0.00     0.002 A 
HETATM   35  C   UNL     1     -39.684  62.876 -59.082  1.00  0.00     0.030 A 
ENDBRANCH  28  30
ENDBRANCH   3  28
BRANCH   5  36
HETATM   36  N   UNL     1     -42.138  57.260 -58.585  1.00  0.00    -0.187 N 
HETATM   37  H   UNL     1     -41.222  57.278 -59.013  1.00  0.00     0.184 HD
BRANCH  36  38
HETATM   38  C   UNL     1     -43.079  56.431 -59.215  1.00  0.00     0.049 A 
HETATM   39  C   UNL     1     -43.841  56.820 -60.323  1.00  0.00     0.030 A 
HETATM   40  C   UNL     1     -44.792  55.963 -60.888  1.00  0.00     0.002 A 
HETATM   41  C   UNL     1     -45.013  54.705 -60.338  1.00  0.00     0.000 A 
HETATM   42  C   UNL     1     -44.285  54.307 -59.221  1.00  0.00     0.002 A 
HETATM   43  C   UNL     1     -43.332  55.165 -58.663  1.00  0.00     0.030 A 
ENDBRANCH  36  38
ENDBRANCH   5  36
TORSDOF 8
ENDMDL
MODEL 2
REMARK VINA RESULT:     -10.3      0.364      4.903
REMARK  8 active torsions:
REMARK  status: ('A' for Active; 'I' for Inactive)
REMARK    1  A    between atoms: C_6  and  N_7 
REMARK       I    between atoms: N_7  and  C_8 
REMARK    2  A    between atoms: C_8  and  C_9 
REMARK    3  A    between atoms: C_9  and  N_10 
REMARK    4  A    between atoms: N_14  and  C_15 
REMARK    5  A    between atoms: C_17  and  N_18 
REMARK    6  A    between atoms: N_18  and  C_19 
REMARK    7  A    between atoms: C_26  and  N_27 
REMARK    8  A    between atoms: N_27  and  C_28 
ROOT
HETATM    1  C   UNL     1     -43.009  59.492 -55.760  1.00  0.00     0.756 A 
HETATM    2  N   UNL     1     -42.980  58.373 -56.462  1.00  0.00     0.131 NA
HETATM    3  C   UNL     1     -42.294  58.420 -57.602  1.00  0.00     0.758 A 
HETATM    4  N   UNL     1     -41.647  59.496 -58.034  1.00  0.00     0.131 NA
HETATM    5  C   UNL     1     -41.739  60.579 -57.276  1.00  0.00     0.758 A 
HETATM    6  N   UNL     1     -42.448  60.620 -56.158  1.00  0.00     0.131 NA
ENDROOT
BRANCH   1   7
HETATM    7  N   UNL     1     -43.638  59.513 -54.519  1.00  0.00    -0.210 N 
HETATM    8  C   UNL     1     -42.870  60.083 -53.405  1.00  0.00     0.169 C 
HETATM    9  C   UNL     1     -42.089  59.011 -52.620  1.00  0.00     0.256 C 
HETATM   10  N   UNL     1     -43.056  57.885 -52.224  1.00  0.00    -0.060 N 
HETATM   11  H   UNL     1     -43.854  58.342 -51.767  1.00  0.00     0.280 HD
HETATM   12  C   UNL     1     -43.618  57.240 -53.491  1.00  0.00     0.256 C 
HETATM   13  C   UNL     1     -44.436  58.304 -54.264  1.00  0.00     0.169 C 
BRANCH  10  14
HETATM   14  C   UNL     1     -42.498  56.900 -51.207  1.00  0.00     0.337 C 
BRANCH  14  15
HETATM   15  C   UNL     1     -42.448  55.424 -51.621  1.00  0.00     0.248 C 
HETATM   16  N   UNL     1     -41.211  55.071 -52.143  1.00  0.00    -0.325 N 
HETATM   17  H   UNL     1     -40.596  55.831 -52.403  1.00  0.00     0.169 HD
HETATM   18  O   UNL     1     -43.442  54.716 -51.522  1.00  0.00    -0.271 OA
BRANCH  16  19
HETATM   19  C   UNL     1     -40.850  53.821 -52.714  1.00  0.00     0.046 A 
HETATM   20  C   UNL     1     -40.167  52.909 -51.866  1.00  0.00    -0.034 A 
HETATM   21  C   UNL     1     -39.722  51.677 -52.376  1.00  0.00     0.015 A 
HETATM   22  C   UNL     1     -39.854  53.208 -50.421  1.00  0.00     0.050 C 
HETATM   23  C   UNL     1     -39.960  51.317 -53.700  1.00  0.00    -0.061 A 
HETATM   24  C   UNL     1     -39.434  50.025 -54.252  1.00  0.00     0.048 C 
HETATM   25  C   UNL     1     -40.670  52.201 -54.516  1.00  0.00     0.015 A 
HETATM   26  C   UNL     1     -41.158  53.432 -54.033  1.00  0.00    -0.034 A 
HETATM   27  C   UNL     1     -42.039  54.204 -54.977  1.00  0.00     0.050 C 
ENDBRANCH  16  19
ENDBRANCH  14  15
ENDBRANCH  10  14
ENDBRANCH   1   7
BRANCH   3  28
HETATM   28  N   UNL     1     -42.160  57.283 -58.396  1.00  0.00    -0.187 N 
HETATM   29  H   UNL     1     -41.225  57.230 -58.777  1.00  0.00     0.184 HD
BRANCH  28  30
HETATM   30  C   UNL     1     -43.103  56.444 -59.003  1.00  0.00     0.049 A 
HETATM   31  C   UNL     1     -43.318  55.119 -58.611  1.00  0.00     0.030 A 
HETATM   32  C   UNL     1     -44.254  54.313 -59.270  1.00  0.00     0.002 A 
HETATM   33  C   UNL     1     -44.972  54.820 -60.350  1.00  0.00     0.000 A 
HETATM   34  C   UNL     1     -44.756  56.130 -60.769  1.00  0.00     0.002 A 
HETATM   35  C   UNL     1     -43.827  56.932 -60.101  1.00  0.00     0.030 A 
ENDBRANCH  28  30
ENDBRANCH   3  28
BRANCH   5  36
HETATM   36  N   UNL     1     -41.066  61.709 -57.736  1.00  0.00    -0.187 N 
HETATM   37  H   UNL     1     -41.070  62.429 -57.026  1.00  0.00     0.184 HD
BRANCH  36  38
HETATM   38  C   UNL     1     -40.739  62.144 -59.029  1.00  0.00     0.049 A 
HETATM   39  C   UNL     1     -41.433  61.754 -60.181  1.00  0.00     0.030 A 
HETATM   40  C   UNL     1     -41.039  62.192 -61.450  1.00  0.00     0.002 A 
HETATM   41  C   UNL     1     -39.925  63.012 -61.591  1.00  0.00     0.000 A 
HETATM   42  C   UNL     1     -39.205  63.392 -60.464  1.00  0.00     0.002 A 
HETATM   43  C   UNL     1     -39.606  62.957 -59.197  1.00  0.00     0.030 A 
ENDBRANCH  36  38
ENDBRANCH   5  36
TORSDOF 8
ENDMDL
MODEL 3
REMARK VINA RESULT:     -10.3      3.668      8.965
REMARK  8 active torsions:
REMARK  status: ('A' for Active; 'I' for Inactive)
REMARK    1  A    between atoms: C_6  and  N_7 
REMARK       I    between atoms: N_7  and  C_8 
REMARK    2  A    between atoms: C_8  and  C_9 
REMARK    3  A    between atoms: C_9  and  N_10 
REMARK    4  A    between atoms: N_14  and  C_15 
REMARK    5  A    between atoms: C_17  and  N_18 
REMARK    6  A    between atoms: N_18  and  C_19 
REMARK    7  A    between atoms: C_26  and  N_27 
REMARK    8  A    between atoms: N_27  and  C_28 
ROOT
HETATM    1  C   UNL     1     -42.986  55.517 -53.263  1.00  0.00     0.756 A 
HETATM    2  N   UNL     1     -41.949  54.717 -53.086  1.00  0.00     0.131 NA
HETATM    3  C   UNL     1     -41.428  54.188 -54.191  1.00  0.00     0.758 A 
HETATM    4  N   UNL     1     -41.877  54.438 -55.415  1.00  0.00     0.131 NA
HETATM    5  C   UNL     1     -42.928  55.240 -55.502  1.00  0.00     0.758 A 
HETATM    6  N   UNL     1     -43.531  55.758 -54.442  1.00  0.00     0.131 NA
ENDROOT
BRANCH   1   7
HETATM    7  N   UNL     1     -43.547  56.173 -52.172  1.00  0.00    -0.210 N 
HETATM    8  C   UNL     1     -44.282  57.412 -52.460  1.00  0.00     0.169 C 
HETATM    9  C   UNL     1     -43.395  58.665 -52.336  1.00  0.00     0.256 C 
HETATM   10  N   UNL     1     -42.690  58.640 -50.973  1.00  0.00    -0.060 N 
HETATM   11  H   UNL     1     -43.426  58.490 -50.273  1.00  0.00     0.280 HD
HETATM   12  C   UNL     1     -41.791  57.404 -50.897  1.00  0.00     0.256 C 
HETATM   13  C   UNL     1     -42.684  56.141 -50.982  1.00  0.00     0.169 C 
BRANCH  10  14
HETATM   14  C   UNL     1     -42.005  59.943 -50.589  1.00  0.00     0.337 C 
BRANCH  14  15
HETATM   15  C   UNL     1     -42.907  61.099 -50.140  1.00  0.00     0.248 C 
HETATM   16  N   UNL     1     -44.102  60.649 -49.596  1.00  0.00    -0.325 N 
HETATM   17  H   UNL     1     -44.338  59.680 -49.766  1.00  0.00     0.169 HD
HETATM   18  O   UNL     1     -42.566  62.262 -50.323  1.00  0.00    -0.271 OA
BRANCH  16  19
HETATM   19  C   UNL     1     -45.203  61.442 -49.176  1.00  0.00     0.046 A 
HETATM   20  C   UNL     1     -46.067  61.922 -50.196  1.00  0.00    -0.034 A 
HETATM   21  C   UNL     1     -47.142  62.765 -49.864  1.00  0.00     0.015 A 
HETATM   22  C   UNL     1     -45.871  61.598 -51.656  1.00  0.00     0.050 C 
HETATM   23  C   UNL     1     -47.395  63.123 -48.542  1.00  0.00    -0.061 A 
HETATM   24  C   UNL     1     -48.510  64.066 -48.202  1.00  0.00     0.048 C 
HETATM   25  C   UNL     1     -46.568  62.612 -47.540  1.00  0.00     0.015 A 
HETATM   26  C   UNL     1     -45.498  61.741 -47.831  1.00  0.00    -0.034 A 
HETATM   27  C   UNL     1     -44.795  61.146 -46.641  1.00  0.00     0.050 C 
ENDBRANCH  16  19
ENDBRANCH  14  15
ENDBRANCH  10  14
ENDBRANCH   1   7
BRANCH   3  28
HETATM   28  N   UNL     1     -40.304  53.369 -54.122  1.00  0.00    -0.187 N 
HETATM   29  H   UNL     1     -39.636  53.629 -54.836  1.00  0.00     0.184 HD
BRANCH  28  30
HETATM   30  C   UNL     1     -40.084  52.123 -53.522  1.00  0.00     0.049 A 
HETATM   31  C   UNL     1     -39.782  51.965 -52.165  1.00  0.00     0.030 A 
HETATM   32  C   UNL     1     -39.543  50.698 -51.621  1.00  0.00     0.002 A 
HETATM   33  C   UNL     1     -39.581  49.571 -52.436  1.00  0.00     0.000 A 
HETATM   34  C   UNL     1     -39.859  49.709 -53.794  1.00  0.00     0.002 A 
HETATM   35  C   UNL     1     -40.105  50.976 -54.329  1.00  0.00     0.030 A 
ENDBRANCH  28  30
ENDBRANCH   3  28
BRANCH   5  36
HETATM   36  N   UNL     1     -43.402  55.494 -56.788  1.00  0.00    -0.187 N 
HETATM   37  H   UNL     1     -44.031  54.757 -57.079  1.00  0.00     0.184 HD
BRANCH  36  38
HETATM   38  C   UNL     1     -42.919  56.311 -57.821  1.00  0.00     0.049 A 
HETATM   39  C   UNL     1     -42.428  57.608 -57.624  1.00  0.00     0.030 A 
HETATM   40  C   UNL     1     -41.992  58.392 -58.697  1.00  0.00     0.002 A 
HETATM   41  C   UNL     1     -42.062  57.898 -59.996  1.00  0.00     0.000 A 
HETATM   42  C   UNL     1     -42.571  56.623 -60.219  1.00  0.00     0.002 A 
HETATM   43  C   UNL     1     -42.999  55.841 -59.142  1.00  0.00     0.030 A 
ENDBRANCH  36  38
ENDBRANCH   5  36
TORSDOF 8
ENDMDL
MODEL 4
REMARK VINA RESULT:      -9.9      0.743      4.710
REMARK  8 active torsions:
REMARK  status: ('A' for Active; 'I' for Inactive)
REMARK    1  A    between atoms: C_6  and  N_7 
REMARK       I    between atoms: N_7  and  C_8 
REMARK    2  A    between atoms: C_8  and  C_9 
REMARK    3  A    between atoms: C_9  and  N_10 
REMARK    4  A    between atoms: N_14  and  C_15 
REMARK    5  A    between atoms: C_17  and  N_18 
REMARK    6  A    between atoms: N_18  and  C_19 
REMARK    7  A    between atoms: C_26  and  N_27 
REMARK    8  A    between atoms: N_27  and  C_28 
ROOT
HETATM    1  C   UNL     1     -43.623  59.243 -55.505  1.00  0.00     0.756 A 
HETATM    2  N   UNL     1     -43.606  58.252 -56.379  1.00  0.00     0.131 NA
HETATM    3  C   UNL     1     -42.927  58.477 -57.502  1.00  0.00     0.758 A 
HETATM    4  N   UNL     1     -42.274  59.605 -57.759  1.00  0.00     0.131 NA
HETATM    5  C   UNL     1     -42.353  60.552 -56.835  1.00  0.00     0.758 A 
HETATM    6  N   UNL     1     -43.055  60.416 -55.720  1.00  0.00     0.131 NA
ENDROOT
BRANCH   1   7
HETATM    7  N   UNL     1     -44.244  59.068 -54.272  1.00  0.00    -0.210 N 
HETATM    8  C   UNL     1     -43.648  59.776 -53.132  1.00  0.00     0.169 C 
HETATM    9  C   UNL     1     -42.629  58.908 -52.368  1.00  0.00     0.256 C 
HETATM   10  N   UNL     1     -43.287  57.566 -52.018  1.00  0.00    -0.060 N 
HETATM   11  H   UNL     1     -44.176  57.794 -51.559  1.00  0.00     0.280 HD
HETATM   12  C   UNL     1     -43.663  56.840 -53.311  1.00  0.00     0.256 C 
HETATM   13  C   UNL     1     -44.717  57.691 -54.063  1.00  0.00     0.169 C 
BRANCH  10  14
HETATM   14  C   UNL     1     -42.507  56.719 -51.023  1.00  0.00     0.337 C 
BRANCH  14  15
HETATM   15  C   UNL     1     -42.321  55.235 -51.364  1.00  0.00     0.248 C 
HETATM   16  N   UNL     1     -41.094  54.986 -51.962  1.00  0.00    -0.325 N 
HETATM   17  H   UNL     1     -40.588  55.792 -52.306  1.00  0.00     0.169 HD
HETATM   18  O   UNL     1     -43.221  54.431 -51.152  1.00  0.00    -0.271 OA
BRANCH  16  19
HETATM   19  C   UNL     1     -40.637  53.751 -52.494  1.00  0.00     0.046 A 
HETATM   20  C   UNL     1     -40.518  53.673 -53.907  1.00  0.00    -0.034 A 
HETATM   21  C   UNL     1     -40.133  52.464 -54.512  1.00  0.00     0.015 A 
HETATM   22  C   UNL     1     -40.824  54.833 -54.821  1.00  0.00     0.050 C 
HETATM   23  C   UNL     1     -39.838  51.338 -53.748  1.00  0.00    -0.061 A 
HETATM   24  C   UNL     1     -39.480  50.037 -54.403  1.00  0.00     0.048 C 
HETATM   25  C   UNL     1     -39.913  51.435 -52.357  1.00  0.00     0.015 A 
HETATM   26  C   UNL     1     -40.268  52.638 -51.713  1.00  0.00    -0.034 A 
HETATM   27  C   UNL     1     -40.153  52.637 -50.212  1.00  0.00     0.050 C 
ENDBRANCH  16  19
ENDBRANCH  14  15
ENDBRANCH  10  14
ENDBRANCH   1   7
BRANCH   3  28
HETATM   28  N   UNL     1     -42.807  57.483 -58.469  1.00  0.00    -0.187 N 
HETATM   29  H   UNL     1     -41.883  57.503 -58.880  1.00  0.00     0.184 HD
BRANCH  28  30
HETATM   30  C   UNL     1     -43.761  56.740 -59.176  1.00  0.00     0.049 A 
HETATM   31  C   UNL     1     -43.571  55.406 -59.553  1.00  0.00     0.030 A 
HETATM   32  C   UNL     1     -44.545  54.717 -60.284  1.00  0.00     0.002 A 
HETATM   33  C   UNL     1     -45.715  55.364 -60.670  1.00  0.00     0.000 A 
HETATM   34  C   UNL     1     -45.913  56.699 -60.324  1.00  0.00     0.002 A 
HETATM   35  C   UNL     1     -44.941  57.378 -59.586  1.00  0.00     0.030 A 
ENDBRANCH  28  30
ENDBRANCH   3  28
BRANCH   5  36
HETATM   36  N   UNL     1     -41.673  61.737 -57.111  1.00  0.00    -0.187 N 
HETATM   37  H   UNL     1     -41.653  62.325 -56.289  1.00  0.00     0.184 HD
BRANCH  36  38
HETATM   38  C   UNL     1     -41.367  62.382 -58.319  1.00  0.00     0.049 A 
HETATM   39  C   UNL     1     -42.324  62.982 -59.146  1.00  0.00     0.030 A 
HETATM   40  C   UNL     1     -41.965  63.581 -60.359  1.00  0.00     0.002 A 
HETATM   41  C   UNL     1     -40.638  63.568 -60.777  1.00  0.00     0.000 A 
HETATM   42  C   UNL     1     -39.674  62.955 -59.984  1.00  0.00     0.002 A 
HETATM   43  C   UNL     1     -40.037  62.364 -58.771  1.00  0.00     0.030 A 
ENDBRANCH  36  38
ENDBRANCH   5  36
TORSDOF 8
ENDMDL
MODEL 5
REMARK VINA RESULT:      -9.3      2.676      8.350
REMARK  8 active torsions:
REMARK  status: ('A' for Active; 'I' for Inactive)
REMARK    1  A    between atoms: C_6  and  N_7 
REMARK       I    between atoms: N_7  and  C_8 
REMARK    2  A    between atoms: C_8  and  C_9 
REMARK    3  A    between atoms: C_9  and  N_10 
REMARK    4  A    between atoms: N_14  and  C_15 
REMARK    5  A    between atoms: C_17  and  N_18 
REMARK    6  A    between atoms: N_18  and  C_19 
REMARK    7  A    between atoms: C_26  and  N_27 
REMARK    8  A    between atoms: N_27  and  C_28 
ROOT
HETATM    1  C   UNL     1     -42.671  55.752 -52.401  1.00  0.00     0.756 A 
HETATM    2  N   UNL     1     -41.655  54.910 -52.464  1.00  0.00     0.131 NA
HETATM    3  C   UNL     1     -41.419  54.371 -53.658  1.00  0.00     0.758 A 
HETATM    4  N   UNL     1     -42.122  54.652 -54.750  1.00  0.00     0.131 NA
HETATM    5  C   UNL     1     -43.132  55.496 -54.595  1.00  0.00     0.758 A 
HETATM    6  N   UNL     1     -43.457  56.027 -53.426  1.00  0.00     0.131 NA
ENDROOT
BRANCH   1   7
HETATM    7  N   UNL     1     -42.943  56.419 -51.210  1.00  0.00    -0.210 N 
HETATM    8  C   UNL     1     -44.356  56.700 -50.926  1.00  0.00     0.169 C 
HETATM    9  C   UNL     1     -44.790  58.094 -51.420  1.00  0.00     0.256 C 
HETATM   10  N   UNL     1     -43.805  59.140 -50.877  1.00  0.00    -0.060 N 
HETATM   11  H   UNL     1     -43.744  58.976 -49.866  1.00  0.00     0.280 HD
HETATM   12  C   UNL     1     -42.409  58.846 -51.429  1.00  0.00     0.256 C 
HETATM   13  C   UNL     1     -41.954  57.462 -50.902  1.00  0.00     0.169 C 
BRANCH  10  14
HETATM   14  C   UNL     1     -44.259  60.583 -51.042  1.00  0.00     0.337 C 
BRANCH  14  15
HETATM   15  C   UNL     1     -43.689  61.361 -52.234  1.00  0.00     0.248 C 
HETATM   16  N   UNL     1     -44.007  60.766 -53.447  1.00  0.00    -0.325 N 
HETATM   17  H   UNL     1     -44.350  59.815 -53.407  1.00  0.00     0.169 HD
HETATM   18  O   UNL     1     -42.996  62.356 -52.054  1.00  0.00    -0.271 OA
BRANCH  16  19
HETATM   19  C   UNL     1     -43.559  61.161 -54.736  1.00  0.00     0.046 A 
HETATM   20  C   UNL     1     -42.496  60.406 -55.299  1.00  0.00    -0.034 A 
HETATM   21  C   UNL     1     -41.957  60.774 -56.544  1.00  0.00     0.015 A 
HETATM   22  C   UNL     1     -41.872  59.222 -54.603  1.00  0.00     0.050 C 
HETATM   23  C   UNL     1     -42.464  61.858 -57.256  1.00  0.00    -0.061 A 
HETATM   24  C   UNL     1     -41.849  62.279 -58.557  1.00  0.00     0.048 C 
HETATM   25  C   UNL     1     -43.539  62.569 -56.717  1.00  0.00     0.015 A 
HETATM   26  C   UNL     1     -44.125  62.212 -55.485  1.00  0.00    -0.034 A 
HETATM   27  C   UNL     1     -45.372  62.965 -55.109  1.00  0.00     0.050 C 
ENDBRANCH  16  19
ENDBRANCH  14  15
ENDBRANCH  10  14
ENDBRANCH   1   7
BRANCH   3  28
HETATM   28  N   UNL     1     -40.343  53.507 -53.846  1.00  0.00    -0.187 N 
HETATM   29  H   UNL     1     -39.777  53.816 -54.625  1.00  0.00     0.184 HD
BRANCH  28  30
HETATM   30  C   UNL     1     -40.105  52.196 -53.416  1.00  0.00     0.049 A 
HETATM   31  C   UNL     1     -39.745  51.871 -52.103  1.00  0.00     0.030 A 
HETATM   32  C   UNL     1     -39.490  50.546 -51.731  1.00  0.00     0.002 A 
HETATM   33  C   UNL     1     -39.568  49.529 -52.679  1.00  0.00     0.000 A 
HETATM   34  C   UNL     1     -39.902  49.835 -53.995  1.00  0.00     0.002 A 
HETATM   35  C   UNL     1     -40.165  51.158 -54.358  1.00  0.00     0.030 A 
ENDBRANCH  28  30
ENDBRANCH   3  28
BRANCH   5  36
HETATM   36  N   UNL     1     -43.873  55.782 -55.740  1.00  0.00    -0.187 N 
HETATM   37  H   UNL     1     -44.409  54.972 -56.019  1.00  0.00     0.184 HD
BRANCH  36  38
HETATM   38  C   UNL     1     -43.737  56.777 -56.721  1.00  0.00     0.049 A 
HETATM   39  C   UNL     1     -44.672  57.799 -56.928  1.00  0.00     0.030 A 
HETATM   40  C   UNL     1     -44.502  58.744 -57.946  1.00  0.00     0.002 A 
HETATM   41  C   UNL     1     -43.402  58.668 -58.793  1.00  0.00     0.000 A 
HETATM   42  C   UNL     1     -42.474  57.647 -58.622  1.00  0.00     0.002 A 
HETATM   43  C   UNL     1     -42.644  56.708 -57.600  1.00  0.00     0.030 A 
ENDBRANCH  36  38
ENDBRANCH   5  36
TORSDOF 8
ENDMDL
MODEL 6
REMARK VINA RESULT:      -9.3      5.867      9.480
REMARK  8 active torsions:
REMARK  status: ('A' for Active; 'I' for Inactive)
REMARK    1  A    between atoms: C_6  and  N_7 
REMARK       I    between atoms: N_7  and  C_8 
REMARK    2  A    between atoms: C_8  and  C_9 
REMARK    3  A    between atoms: C_9  and  N_10 
REMARK    4  A    between atoms: N_14  and  C_15 
REMARK    5  A    between atoms: C_17  and  N_18 
REMARK    6  A    between atoms: N_18  and  C_19 
REMARK    7  A    between atoms: C_26  and  N_27 
REMARK    8  A    between atoms: N_27  and  C_28 
ROOT
HETATM    1  C   UNL     1     -45.907  62.514 -50.548  1.00  0.00     0.756 A 
HETATM    2  N   UNL     1     -45.844  62.476 -49.229  1.00  0.00     0.131 NA
HETATM    3  C   UNL     1     -46.905  62.955 -48.582  1.00  0.00     0.758 A 
HETATM    4  N   UNL     1     -47.988  63.430 -49.186  1.00  0.00     0.131 NA
HETATM    5  C   UNL     1     -47.963  63.444 -50.511  1.00  0.00     0.758 A 
HETATM    6  N   UNL     1     -46.920  63.035 -51.218  1.00  0.00     0.131 NA
ENDROOT
BRANCH   1   7
HETATM    7  N   UNL     1     -44.876  61.967 -51.306  1.00  0.00    -0.210 N 
HETATM    8  C   UNL     1     -45.203  61.602 -52.690  1.00  0.00     0.169 C 
HETATM    9  C   UNL     1     -45.638  60.130 -52.824  1.00  0.00     0.256 C 
HETATM   10  N   UNL     1     -44.579  59.239 -52.158  1.00  0.00    -0.060 N 
HETATM   11  H   UNL     1     -43.676  59.521 -52.558  1.00  0.00     0.280 HD
HETATM   12  C   UNL     1     -44.498  59.584 -50.670  1.00  0.00     0.256 C 
HETATM   13  C   UNL     1     -44.024  61.052 -50.531  1.00  0.00     0.169 C 
BRANCH  10  14
HETATM   14  C   UNL     1     -44.723  57.753 -52.455  1.00  0.00     0.337 C 
BRANCH  14  15
HETATM   15  C   UNL     1     -43.444  56.985 -52.809  1.00  0.00     0.248 C 
HETATM   16  N   UNL     1     -43.653  55.613 -52.851  1.00  0.00    -0.325 N 
HETATM   17  H   UNL     1     -44.510  55.275 -52.433  1.00  0.00     0.169 HD
HETATM   18  O   UNL     1     -42.385  57.580 -52.969  1.00  0.00    -0.271 OA
BRANCH  16  19
HETATM   19  C   UNL     1     -42.672  54.605 -53.046  1.00  0.00     0.046 A 
HETATM   20  C   UNL     1     -42.038  54.100 -51.880  1.00  0.00    -0.034 A 
HETATM   21  C   UNL     1     -41.013  53.146 -51.997  1.00  0.00     0.015 A 
HETATM   22  C   UNL     1     -42.387  54.568 -50.489  1.00  0.00     0.050 C 
HETATM   23  C   UNL     1     -40.619  52.661 -53.241  1.00  0.00    -0.061 A 
HETATM   24  C   UNL     1     -39.487  51.684 -53.362  1.00  0.00     0.048 C 
HETATM   25  C   UNL     1     -41.276  53.129 -54.381  1.00  0.00     0.015 A 
HETATM   26  C   UNL     1     -42.328  54.064 -54.301  1.00  0.00    -0.034 A 
HETATM   27  C   UNL     1     -43.046  54.354 -55.591  1.00  0.00     0.050 C 
ENDBRANCH  16  19
ENDBRANCH  14  15
ENDBRANCH  10  14
ENDBRANCH   1   7
BRANCH   3  28
HETATM   28  N   UNL     1     -46.963  62.919 -47.191  1.00  0.00    -0.187 N 
HETATM   29  H   UNL     1     -47.729  63.488 -46.857  1.00  0.00     0.184 HD
BRANCH  28  30
HETATM   30  C   UNL     1     -46.022  62.552 -46.221  1.00  0.00     0.049 A 
HETATM   31  C   UNL     1     -45.525  61.251 -46.085  1.00  0.00     0.030 A 
HETATM   32  C   UNL     1     -44.606  60.930 -45.079  1.00  0.00     0.002 A 
HETATM   33  C   UNL     1     -44.190  61.907 -44.178  1.00  0.00     0.000 A 
HETATM   34  C   UNL     1     -44.690  63.202 -44.283  1.00  0.00     0.002 A 
HETATM   35  C   UNL     1     -45.600  63.518 -45.296  1.00  0.00     0.030 A 
ENDBRANCH  28  30
ENDBRANCH   3  28
BRANCH   5  36
HETATM   36  N   UNL     1     -49.098  63.952 -51.141  1.00  0.00    -0.187 N 
HETATM   37  H   UNL     1     -49.280  64.894 -50.823  1.00  0.00     0.184 HD
BRANCH  36  38
HETATM   38  C   UNL     1     -50.168  63.322 -51.794  1.00  0.00     0.049 A 
HETATM   39  C   UNL     1     -51.475  63.288 -51.293  1.00  0.00     0.030 A 
HETATM   40  C   UNL     1     -52.496  62.613 -51.970  1.00  0.00     0.002 A 
HETATM   41  C   UNL     1     -52.221  61.937 -53.155  1.00  0.00     0.000 A 
HETATM   42  C   UNL     1     -50.924  61.935 -53.658  1.00  0.00     0.002 A 
HETATM   43  C   UNL     1     -49.908  62.616 -52.980  1.00  0.00     0.030 A 
ENDBRANCH  36  38
ENDBRANCH   5  36
TORSDOF 8
ENDMDL
MODEL 7
REMARK VINA RESULT:      -9.3      2.226      8.630
REMARK  8 active torsions:
REMARK  status: ('A' for Active; 'I' for Inactive)
REMARK    1  A    between atoms: C_6  and  N_7 
REMARK       I    between atoms: N_7  and  C_8 
REMARK    2  A    between atoms: C_8  and  C_9 
REMARK    3  A    between atoms: C_9  and  N_10 
REMARK    4  A    between atoms: N_14  and  C_15 
REMARK    5  A    between atoms: C_17  and  N_18 
REMARK    6  A    between atoms: N_18  and  C_19 
REMARK    7  A    between atoms: C_26  and  N_27 
REMARK    8  A    between atoms: N_27  and  C_28 
ROOT
HETATM    1  C   UNL     1     -41.936  56.284 -53.729  1.00  0.00     0.756 A 
HETATM    2  N   UNL     1     -41.044  55.316 -53.615  1.00  0.00     0.131 NA
HETATM    3  C   UNL     1     -41.045  54.406 -54.586  1.00  0.00     0.758 A 
HETATM    4  N   UNL     1     -41.859  54.443 -55.635  1.00  0.00     0.131 NA
HETATM    5  C   UNL     1     -42.731  55.440 -55.665  1.00  0.00     0.758 A 
HETATM    6  N   UNL     1     -42.823  56.349 -54.706  1.00  0.00     0.131 NA
ENDROOT
BRANCH   1   7
HETATM    7  N   UNL     1     -41.956  57.319 -52.800  1.00  0.00    -0.210 N 
HETATM    8  C   UNL     1     -43.280  57.812 -52.397  1.00  0.00     0.169 C 
HETATM    9  C   UNL     1     -43.745  59.010 -53.247  1.00  0.00     0.256 C 
HETATM   10  N   UNL     1     -42.638  60.074 -53.250  1.00  0.00    -0.060 N 
HETATM   11  H   UNL     1     -42.395  60.237 -52.266  1.00  0.00     0.280 HD
HETATM   12  C   UNL     1     -41.382  59.486 -53.895  1.00  0.00     0.256 C 
HETATM   13  C   UNL     1     -40.888  58.305 -53.021  1.00  0.00     0.169 C 
BRANCH  10  14
HETATM   14  C   UNL     1     -43.060  61.425 -53.807  1.00  0.00     0.337 C 
BRANCH  14  15
HETATM   15  C   UNL     1     -43.403  61.488 -55.301  1.00  0.00     0.248 C 
HETATM   16  N   UNL     1     -42.281  61.720 -56.085  1.00  0.00    -0.325 N 
HETATM   17  H   UNL     1     -41.452  62.042 -55.603  1.00  0.00     0.169 HD
HETATM   18  O   UNL     1     -44.565  61.391 -55.678  1.00  0.00    -0.271 OA
BRANCH  16  19
HETATM   19  C   UNL     1     -42.248  61.935 -57.489  1.00  0.00     0.046 A 
HETATM   20  C   UNL     1     -41.919  60.815 -58.296  1.00  0.00    -0.034 A 
HETATM   21  C   UNL     1     -41.806  60.964 -59.690  1.00  0.00     0.015 A 
HETATM   22  C   UNL     1     -41.642  59.446 -57.727  1.00  0.00     0.050 C 
HETATM   23  C   UNL     1     -42.036  62.193 -60.303  1.00  0.00    -0.061 A 
HETATM   24  C   UNL     1     -41.860  62.357 -61.784  1.00  0.00     0.048 C 
HETATM   25  C   UNL     1     -42.403  63.280 -59.507  1.00  0.00     0.015 A 
HETATM   26  C   UNL     1     -42.555  63.162 -58.110  1.00  0.00    -0.034 A 
HETATM   27  C   UNL     1     -43.107  64.372 -57.407  1.00  0.00     0.050 C 
ENDBRANCH  16  19
ENDBRANCH  14  15
ENDBRANCH  10  14
ENDBRANCH   1   7
BRANCH   3  28
HETATM   28  N   UNL     1     -40.115  53.369 -54.588  1.00  0.00    -0.187 N 
HETATM   29  H   UNL     1     -39.609  53.353 -55.463  1.00  0.00     0.184 HD
BRANCH  28  30
HETATM   30  C   UNL     1     -39.994  52.215 -53.805  1.00  0.00     0.049 A 
HETATM   31  C   UNL     1     -39.786  52.241 -52.421  1.00  0.00     0.030 A 
HETATM   32  C   UNL     1     -39.644  51.057 -51.689  1.00  0.00     0.002 A 
HETATM   33  C   UNL     1     -39.683  49.827 -52.340  1.00  0.00     0.000 A 
HETATM   34  C   UNL     1     -39.867  49.780 -53.719  1.00  0.00     0.002 A 
HETATM   35  C   UNL     1     -40.018  50.965 -54.442  1.00  0.00     0.030 A 
ENDBRANCH  28  30
ENDBRANCH   3  28
BRANCH   5  36
HETATM   36  N   UNL     1     -43.590  55.471 -56.763  1.00  0.00    -0.187 N 
HETATM   37  H   UNL     1     -44.120  54.612 -56.814  1.00  0.00     0.184 HD
BRANCH  36  38
HETATM   38  C   UNL     1     -43.587  56.244 -57.934  1.00  0.00     0.049 A 
HETATM   39  C   UNL     1     -44.557  57.207 -58.235  1.00  0.00     0.030 A 
HETATM   40  C   UNL     1     -44.524  57.924 -59.436  1.00  0.00     0.002 A 
HETATM   41  C   UNL     1     -43.526  57.671 -60.372  1.00  0.00     0.000 A 
HETATM   42  C   UNL     1     -42.566  56.700 -60.106  1.00  0.00     0.002 A 
HETATM   43  C   UNL     1     -42.601  55.991 -58.902  1.00  0.00     0.030 A 
ENDBRANCH  36  38
ENDBRANCH   5  36
TORSDOF 8
ENDMDL
MODEL 8
REMARK VINA RESULT:      -9.2      4.969      8.437
REMARK  8 active torsions:
REMARK  status: ('A' for Active; 'I' for Inactive)
REMARK    1  A    between atoms: C_6  and  N_7 
REMARK       I    between atoms: N_7  and  C_8 
REMARK    2  A    between atoms: C_8  and  C_9 
REMARK    3  A    between atoms: C_9  and  N_10 
REMARK    4  A    between atoms: N_14  and  C_15 
REMARK    5  A    between atoms: C_17  and  N_18 
REMARK    6  A    between atoms: N_18  and  C_19 
REMARK    7  A    between atoms: C_26  and  N_27 
REMARK    8  A    between atoms: N_27  and  C_28 
ROOT
HETATM    1  C   UNL     1     -45.133  61.786 -52.565  1.00  0.00     0.756 A 
HETATM    2  N   UNL     1     -44.531  62.129 -51.440  1.00  0.00     0.131 NA
HETATM    3  C   UNL     1     -45.180  63.004 -50.676  1.00  0.00     0.758 A 
HETATM    4  N   UNL     1     -46.371  63.510 -50.977  1.00  0.00     0.131 NA
HETATM    5  C   UNL     1     -46.898  63.123 -52.130  1.00  0.00     0.758 A 
HETATM    6  N   UNL     1     -46.283  62.298 -52.965  1.00  0.00     0.131 NA
ENDROOT
BRANCH   1   7
HETATM    7  N   UNL     1     -44.562  60.820 -53.388  1.00  0.00    -0.210 N 
HETATM    8  C   UNL     1     -45.137  59.471 -53.310  1.00  0.00     0.169 C 
HETATM    9  C   UNL     1     -44.396  58.573 -52.301  1.00  0.00     0.256 C 
HETATM   10  N   UNL     1     -42.893  58.613 -52.614  1.00  0.00    -0.060 N 
HETATM   11  H   UNL     1     -42.803  58.402 -53.614  1.00  0.00     0.280 HD
HETATM   12  C   UNL     1     -42.386  60.046 -52.446  1.00  0.00     0.256 C 
HETATM   13  C   UNL     1     -43.100  60.945 -53.486  1.00  0.00     0.169 C 
BRANCH  10  14
HETATM   14  C   UNL     1     -42.066  57.562 -51.888  1.00  0.00     0.337 C 
BRANCH  14  15
HETATM   15  C   UNL     1     -41.427  56.462 -52.746  1.00  0.00     0.248 C 
HETATM   16  N   UNL     1     -41.758  55.191 -52.297  1.00  0.00    -0.325 N 
HETATM   17  H   UNL     1     -42.159  55.130 -51.370  1.00  0.00     0.169 HD
HETATM   18  O   UNL     1     -40.679  56.752 -53.671  1.00  0.00    -0.271 OA
BRANCH  16  19
HETATM   19  C   UNL     1     -41.263  53.955 -52.790  1.00  0.00     0.046 A 
HETATM   20  C   UNL     1     -40.387  53.234 -51.936  1.00  0.00    -0.034 A 
HETATM   21  C   UNL     1     -39.807  52.033 -52.379  1.00  0.00     0.015 A 
HETATM   22  C   UNL     1     -40.006  53.714 -50.558  1.00  0.00     0.050 C 
HETATM   23  C   UNL     1     -40.095  51.516 -53.640  1.00  0.00    -0.061 A 
HETATM   24  C   UNL     1     -39.430  50.263 -54.127  1.00  0.00     0.048 C 
HETATM   25  C   UNL     1     -40.991  52.207 -54.458  1.00  0.00     0.015 A 
HETATM   26  C   UNL     1     -41.615  53.400 -54.037  1.00  0.00    -0.034 A 
HETATM   27  C   UNL     1     -42.674  53.945 -54.956  1.00  0.00     0.050 C 
ENDBRANCH  16  19
ENDBRANCH  14  15
ENDBRANCH  10  14
ENDBRANCH   1   7
BRANCH   3  28
HETATM   28  N   UNL     1     -44.657  63.398 -49.447  1.00  0.00    -0.187 N 
HETATM   29  H   UNL     1     -43.827  63.959 -49.583  1.00  0.00     0.184 HD
BRANCH  28  30
HETATM   30  C   UNL     1     -44.847  62.914 -48.147  1.00  0.00     0.049 A 
HETATM   31  C   UNL     1     -45.063  63.743 -47.041  1.00  0.00     0.030 A 
HETATM   32  C   UNL     1     -45.218  63.210 -45.757  1.00  0.00     0.002 A 
HETATM   33  C   UNL     1     -45.135  61.834 -45.559  1.00  0.00     0.000 A 
HETATM   34  C   UNL     1     -44.899  60.993 -46.644  1.00  0.00     0.002 A 
HETATM   35  C   UNL     1     -44.754  61.532 -47.924  1.00  0.00     0.030 A 
ENDBRANCH  28  30
ENDBRANCH   3  28
BRANCH   5  36
HETATM   36  N   UNL     1     -48.143  63.662 -52.447  1.00  0.00    -0.187 N 
HETATM   37  H   UNL     1     -48.134  64.664 -52.311  1.00  0.00     0.184 HD
BRANCH  36  38
HETATM   38  C   UNL     1     -49.418  63.083 -52.546  1.00  0.00     0.049 A 
HETATM   39  C   UNL     1     -49.796  62.201 -53.565  1.00  0.00     0.030 A 
HETATM   40  C   UNL     1     -51.094  61.682 -53.634  1.00  0.00     0.002 A 
HETATM   41  C   UNL     1     -52.046  62.058 -52.692  1.00  0.00     0.000 A 
HETATM   42  C   UNL     1     -51.701  62.953 -51.686  1.00  0.00     0.002 A 
HETATM   43  C   UNL     1     -50.401  63.464 -51.618  1.00  0.00     0.030 A 
ENDBRANCH  36  38
ENDBRANCH   5  36
TORSDOF 8
ENDMDL
MODEL 9
REMARK VINA RESULT:      -9.1      2.516      3.722
REMARK  8 active torsions:
REMARK  status: ('A' for Active; 'I' for Inactive)
REMARK    1  A    between atoms: C_6  and  N_7 
REMARK       I    between atoms: N_7  and  C_8 
REMARK    2  A    between atoms: C_8  and  C_9 
REMARK    3  A    between atoms: C_9  and  N_10 
REMARK    4  A    between atoms: N_14  and  C_15 
REMARK    5  A    between atoms: C_17  and  N_18 
REMARK    6  A    between atoms: N_18  and  C_19 
REMARK    7  A    between atoms: C_26  and  N_27 
REMARK    8  A    between atoms: N_27  and  C_28 
ROOT
HETATM    1  C   UNL     1     -42.500  59.713 -54.852  1.00  0.00     0.756 A 
HETATM    2  N   UNL     1     -43.389  60.584 -55.297  1.00  0.00     0.131 NA
HETATM    3  C   UNL     1     -43.866  60.356 -56.519  1.00  0.00     0.758 A 
HETATM    4  N   UNL     1     -43.513  59.319 -57.270  1.00  0.00     0.131 NA
HETATM    5  C   UNL     1     -42.607  58.502 -56.754  1.00  0.00     0.758 A 
HETATM    6  N   UNL     1     -42.050  58.698 -55.567  1.00  0.00     0.131 NA
ENDROOT
BRANCH   1   7
HETATM    7  N   UNL     1     -42.005  59.831 -53.557  1.00  0.00    -0.210 N 
HETATM    8  C   UNL     1     -40.740  59.141 -53.275  1.00  0.00     0.169 C 
HETATM    9  C   UNL     1     -40.956  57.724 -52.709  1.00  0.00     0.256 C 
HETATM   10  N   UNL     1     -41.921  57.809 -51.517  1.00  0.00    -0.060 N 
HETATM   11  H   UNL     1     -41.543  58.532 -50.895  1.00  0.00     0.280 HD
HETATM   12  C   UNL     1     -43.269  58.344 -52.003  1.00  0.00     0.256 C 
HETATM   13  C   UNL     1     -43.063  59.784 -52.537  1.00  0.00     0.169 C 
BRANCH  10  14
HETATM   14  C   UNL     1     -42.009  56.540 -50.682  1.00  0.00     0.337 C 
BRANCH  14  15
HETATM   15  C   UNL     1     -42.088  55.209 -51.440  1.00  0.00     0.248 C 
HETATM   16  N   UNL     1     -40.831  54.683 -51.705  1.00  0.00    -0.325 N 
HETATM   17  H   UNL     1     -40.046  55.311 -51.591  1.00  0.00     0.169 HD
HETATM   18  O   UNL     1     -43.172  54.754 -51.786  1.00  0.00    -0.271 OA
BRANCH  16  19
HETATM   19  C   UNL     1     -40.534  53.524 -52.471  1.00  0.00     0.046 A 
HETATM   20  C   UNL     1     -40.265  52.334 -51.745  1.00  0.00    -0.034 A 
HETATM   21  C   UNL     1     -39.901  51.162 -52.430  1.00  0.00     0.015 A 
HETATM   22  C   UNL     1     -40.315  52.262 -50.239  1.00  0.00     0.050 C 
HETATM   23  C   UNL     1     -39.822  51.136 -53.820  1.00  0.00    -0.061 A 
HETATM   24  C   UNL     1     -39.381  49.897 -54.542  1.00  0.00     0.048 C 
HETATM   25  C   UNL     1     -40.130  52.298 -54.530  1.00  0.00     0.015 A 
HETATM   26  C   UNL     1     -40.527  53.485 -53.879  1.00  0.00    -0.034 A 
HETATM   27  C   UNL     1     -40.981  54.604 -54.777  1.00  0.00     0.050 C 
ENDBRANCH  16  19
ENDBRANCH  14  15
ENDBRANCH  10  14
ENDBRANCH   1   7
BRANCH   3  28
HETATM   28  N   UNL     1     -44.842  61.186 -57.065  1.00  0.00    -0.187 N 
HETATM   29  H   UNL     1     -44.526  62.146 -57.064  1.00  0.00     0.184 HD
BRANCH  28  30
HETATM   30  C   UNL     1     -46.214  61.006 -57.281  1.00  0.00     0.049 A 
HETATM   31  C   UNL     1     -46.739  59.987 -58.083  1.00  0.00     0.030 A 
HETATM   32  C   UNL     1     -48.118  59.869 -58.290  1.00  0.00     0.002 A 
HETATM   33  C   UNL     1     -48.990  60.789 -57.713  1.00  0.00     0.000 A 
HETATM   34  C   UNL     1     -48.485  61.823 -56.930  1.00  0.00     0.002 A 
HETATM   35  C   UNL     1     -47.108  61.929 -56.720  1.00  0.00     0.030 A 
ENDBRANCH  28  30
ENDBRANCH   3  28
BRANCH   5  36
HETATM   36  N   UNL     1     -42.233  57.419 -57.548  1.00  0.00    -0.187 N 
HETATM   37  H   UNL     1     -41.227  57.386 -57.640  1.00  0.00     0.184 HD
BRANCH  36  38
HETATM   38  C   UNL     1     -42.946  56.650 -58.480  1.00  0.00     0.049 A 
HETATM   39  C   UNL     1     -43.381  57.135 -59.720  1.00  0.00     0.030 A 
HETATM   40  C   UNL     1     -44.120  56.333 -60.596  1.00  0.00     0.002 A 
HETATM   41  C   UNL     1     -44.459  55.033 -60.235  1.00  0.00     0.000 A 
HETATM   42  C   UNL     1     -44.060  54.538 -58.997  1.00  0.00     0.002 A 
HETATM   43  C   UNL     1     -43.316  55.342 -58.128  1.00  0.00     0.030 A 
ENDBRANCH  36  38
ENDBRANCH   5  36
TORSDOF 8
ENDMDL
MODEL 10
REMARK VINA RESULT:      -8.9      3.720      8.739
REMARK  8 active torsions:
REMARK  status: ('A' for Active; 'I' for Inactive)
REMARK    1  A    between atoms: C_6  and  N_7 
REMARK       I    between atoms: N_7  and  C_8 
REMARK    2  A    between atoms: C_8  and  C_9 
REMARK    3  A    between atoms: C_9  and  N_10 
REMARK    4  A    between atoms: N_14  and  C_15 
REMARK    5  A    between atoms: C_17  and  N_18 
REMARK    6  A    between atoms: N_18  and  C_19 
REMARK    7  A    between atoms: C_26  and  N_27 
REMARK    8  A    between atoms: N_27  and  C_28 
ROOT
HETATM    1  C   UNL     1     -41.846  57.746 -54.842  1.00  0.00     0.756 A 
HETATM    2  N   UNL     1     -41.957  56.690 -54.056  1.00  0.00     0.131 NA
HETATM    3  C   UNL     1     -42.310  55.554 -54.653  1.00  0.00     0.758 A 
HETATM    4  N   UNL     1     -42.525  55.440 -55.959  1.00  0.00     0.131 NA
HETATM    5  C   UNL     1     -42.405  56.550 -56.672  1.00  0.00     0.758 A 
HETATM    6  N   UNL     1     -42.111  57.725 -56.136  1.00  0.00     0.131 NA
ENDROOT
BRANCH   1   7
HETATM    7  N   UNL     1     -41.409  58.958 -54.315  1.00  0.00    -0.210 N 
HETATM    8  C   UNL     1     -40.463  58.881 -53.195  1.00  0.00     0.169 C 
HETATM    9  C   UNL     1     -41.168  58.920 -51.825  1.00  0.00     0.256 C 
HETATM   10  N   UNL     1     -42.111  60.132 -51.788  1.00  0.00    -0.060 N 
HETATM   11  H   UNL     1     -41.546  60.941 -52.071  1.00  0.00     0.280 HD
HETATM   12  C   UNL     1     -43.176  59.970 -52.873  1.00  0.00     0.256 C 
HETATM   13  C   UNL     1     -42.474  59.970 -54.255  1.00  0.00     0.169 C 
BRANCH  10  14
HETATM   14  C   UNL     1     -42.660  60.465 -50.409  1.00  0.00     0.337 C 
BRANCH  14  15
HETATM   15  C   UNL     1     -44.174  60.681 -50.294  1.00  0.00     0.248 C 
HETATM   16  N   UNL     1     -44.500  62.022 -50.142  1.00  0.00    -0.325 N 
HETATM   17  H   UNL     1     -43.742  62.646 -49.896  1.00  0.00     0.169 HD
HETATM   18  O   UNL     1     -44.941  59.726 -50.290  1.00  0.00    -0.271 OA
BRANCH  16  19
HETATM   19  C   UNL     1     -45.791  62.567 -49.907  1.00  0.00     0.046 A 
HETATM   20  C   UNL     1     -46.159  62.766 -48.551  1.00  0.00    -0.034 A 
HETATM   21  C   UNL     1     -47.444  63.242 -48.236  1.00  0.00     0.015 A 
HETATM   22  C   UNL     1     -45.240  62.454 -47.396  1.00  0.00     0.050 C 
HETATM   23  C   UNL     1     -48.363  63.550 -49.236  1.00  0.00    -0.061 A 
HETATM   24  C   UNL     1     -49.749  64.006 -48.892  1.00  0.00     0.048 C 
HETATM   25  C   UNL     1     -47.978  63.393 -50.570  1.00  0.00     0.015 A 
HETATM   26  C   UNL     1     -46.689  62.945 -50.925  1.00  0.00    -0.034 A 
HETATM   27  C   UNL     1     -46.365  62.978 -52.394  1.00  0.00     0.050 C 
ENDBRANCH  16  19
ENDBRANCH  14  15
ENDBRANCH  10  14
ENDBRANCH   1   7
BRANCH   3  28
HETATM   28  N   UNL     1     -42.409  54.371 -53.925  1.00  0.00    -0.187 N 
HETATM   29  H   UNL     1     -43.298  54.329 -53.444  1.00  0.00     0.184 HD
BRANCH  28  30
HETATM   30  C   UNL     1     -41.446  53.455 -53.485  1.00  0.00     0.049 A 
HETATM   31  C   UNL     1     -40.945  52.422 -54.285  1.00  0.00     0.030 A 
HETATM   32  C   UNL     1     -40.003  51.515 -53.787  1.00  0.00     0.002 A 
HETATM   33  C   UNL     1     -39.567  51.616 -52.468  1.00  0.00     0.000 A 
HETATM   34  C   UNL     1     -40.070  52.624 -51.650  1.00  0.00     0.002 A 
HETATM   35  C   UNL     1     -41.003  53.532 -52.156  1.00  0.00     0.030 A 
ENDBRANCH  28  30
ENDBRANCH   3  28
BRANCH   5  36
HETATM   36  N   UNL     1     -42.640  56.429 -58.041  1.00  0.00    -0.187 N 
HETATM   37  H   UNL     1     -41.890  56.862 -58.562  1.00  0.00     0.184 HD
BRANCH  36  38
HETATM   38  C   UNL     1     -43.811  56.176 -58.772  1.00  0.00     0.049 A 
HETATM   39  C   UNL     1     -44.011  55.030 -59.551  1.00  0.00     0.030 A 
HETATM   40  C   UNL     1     -45.185  54.848 -60.289  1.00  0.00     0.002 A 
HETATM   41  C   UNL     1     -46.175  55.825 -60.279  1.00  0.00     0.000 A 
HETATM   42  C   UNL     1     -45.987  56.985 -59.534  1.00  0.00     0.002 A 
HETATM   43  C   UNL     1     -44.814  57.159 -58.793  1.00  0.00     0.030 A 
ENDBRANCH  36  38
ENDBRANCH   5  36
TORSDOF 8
ENDMDL
