MODEL 1
REMARK VINA RESULT:      -7.7      0.000      0.000
REMARK  3 active torsions:
REMARK  status: ('A' for Active; 'I' for Inactive)
REMARK    1  A    between atoms: C_8  and  N_9 
REMARK       I    between atoms: N_9  and  C_10 
REMARK       I    between atoms: C_10  and  N_11 
REMARK    2  A    between atoms: N_11  and  C_12 
REMARK    3  A    between atoms: C_16  and  O_17 
ROOT
HETATM    1  N   UNL     1     -42.121  55.955 -56.318  1.00  0.00    -0.305 N 
HETATM    2  C   UNL     1     -42.136  54.783 -55.582  1.00  0.00     0.325 C 
HETATM    3  N   UNL     1     -40.883  54.564 -55.019  1.00  0.00    -0.309 N 
HETATM    4  O   UNL     1     -43.104  54.056 -55.420  1.00  0.00    -0.247 OA
HETATM    5  H   UNL     1     -41.351  56.582 -56.150  1.00  0.00     0.171 HD
HETATM    6  H   UNL     1     -40.128  55.102 -55.416  1.00  0.00     0.170 HD
ENDROOT
BRANCH   1   7
HETATM    7  C   UNL     1     -43.158  56.492 -57.063  1.00  0.00     0.086 A 
HETATM    8  C   UNL     1     -44.134  57.278 -56.476  1.00  0.00     0.052 A 
HETATM    9  C   UNL     1     -44.357  57.722 -55.080  1.00  0.00     0.072 C 
HETATM   10  N   UNL     1     -44.991  57.624 -57.481  1.00  0.00    -0.280 N 
HETATM   11  H   UNL     1     -45.834  58.184 -57.423  1.00  0.00     0.189 HD
HETATM   12  N   UNL     1     -44.638  57.149 -58.678  1.00  0.00    -0.177 NA
HETATM   13  C   UNL     1     -43.514  56.453 -58.443  1.00  0.00     0.079 A 
HETATM   14  C   UNL     1     -42.839  55.811 -59.599  1.00  0.00     0.075 C 
ENDBRANCH   1   7
BRANCH   3  15
HETATM   15  C   UNL     1     -40.527  53.619 -54.034  1.00  0.00     0.039 A 
HETATM   16  C   UNL     1     -40.469  53.895 -52.667  1.00  0.00     0.056 A 
HETATM   17  C   UNL     1     -40.045  52.911 -51.763  1.00  0.00     0.071 A 
HETATM   18 CL   UNL     1     -39.980  53.315 -50.084  1.00  0.00    -0.081 Cl
HETATM   19  C   UNL     1     -39.680  51.638 -52.214  1.00  0.00     0.111 A 
HETATM   20  C   UNL     1     -39.729  51.364 -53.583  1.00  0.00     0.071 A 
HETATM   21 CL   UNL     1     -39.232  49.841 -54.229  1.00  0.00    -0.081 Cl
HETATM   22  C   UNL     1     -40.162  52.344 -54.483  1.00  0.00     0.056 A 
BRANCH  19  23
HETATM   23  O   UNL     1     -39.187  50.723 -51.319  1.00  0.00    -0.352 OA
HETATM   24  C   UNL     1     -40.215  49.881 -50.798  1.00  0.00     0.210 C 
ENDBRANCH  19  23
ENDBRANCH   3  15
TORSDOF 3
ENDMDL
MODEL 2
REMARK VINA RESULT:      -7.4      0.951      2.202
REMARK  3 active torsions:
REMARK  status: ('A' for Active; 'I' for Inactive)
REMARK    1  A    between atoms: C_8  and  N_9 
REMARK       I    between atoms: N_9  and  C_10 
REMARK       I    between atoms: C_10  and  N_11 
REMARK    2  A    between atoms: N_11  and  C_12 
REMARK    3  A    between atoms: C_16  and  O_17 
ROOT
HETATM    1  N   UNL     1     -43.380  55.433 -56.226  1.00  0.00    -0.305 N 
HETATM    2  C   UNL     1     -42.266  55.144 -55.458  1.00  0.00     0.325 C 
HETATM    3  N   UNL     1     -42.482  53.975 -54.735  1.00  0.00    -0.309 N 
HETATM    4  O   UNL     1     -41.232  55.794 -55.429  1.00  0.00    -0.247 OA
HETATM    5  H   UNL     1     -44.042  54.686 -56.357  1.00  0.00     0.171 HD
HETATM    6  H   UNL     1     -43.443  53.675 -54.671  1.00  0.00     0.170 HD
ENDROOT
BRANCH   1   7
HETATM    7  C   UNL     1     -43.572  56.532 -57.047  1.00  0.00     0.086 A 
HETATM    8  C   UNL     1     -44.064  57.726 -56.549  1.00  0.00     0.052 A 
HETATM    9  C   UNL     1     -44.488  58.146 -55.192  1.00  0.00     0.072 C 
HETATM   10  N   UNL     1     -44.136  58.576 -57.615  1.00  0.00    -0.280 N 
HETATM   11  H   UNL     1     -44.464  59.535 -57.633  1.00  0.00     0.189 HD
HETATM   12  N   UNL     1     -43.706  58.041 -58.760  1.00  0.00    -0.177 NA
HETATM   13  C   UNL     1     -43.353  56.788 -58.433  1.00  0.00     0.079 A 
HETATM   14  C   UNL     1     -42.794  55.920 -59.500  1.00  0.00     0.075 C 
ENDBRANCH   1   7
BRANCH   3  15
HETATM   15  C   UNL     1     -41.540  53.217 -54.007  1.00  0.00     0.039 A 
HETATM   16  C   UNL     1     -40.913  52.070 -54.494  1.00  0.00     0.056 A 
HETATM   17  C   UNL     1     -40.035  51.342 -53.679  1.00  0.00     0.071 A 
HETATM   18 CL   UNL     1     -39.298  49.922 -54.331  1.00  0.00    -0.081 Cl
HETATM   19  C   UNL     1     -39.770  51.757 -52.369  1.00  0.00     0.111 A 
HETATM   20  C   UNL     1     -40.404  52.900 -51.878  1.00  0.00     0.071 A 
HETATM   21 CL   UNL     1     -40.184  53.443 -50.253  1.00  0.00    -0.081 Cl
HETATM   22  C   UNL     1     -41.273  53.632 -52.697  1.00  0.00     0.056 A 
BRANCH  19  23
HETATM   23  O   UNL     1     -38.975  50.980 -51.565  1.00  0.00    -0.352 OA
HETATM   24  C   UNL     1     -39.733  49.998 -50.857  1.00  0.00     0.210 C 
ENDBRANCH  19  23
ENDBRANCH   3  15
TORSDOF 3
ENDMDL
MODEL 3
REMARK VINA RESULT:      -6.9      1.938      2.853
REMARK  3 active torsions:
REMARK  status: ('A' for Active; 'I' for Inactive)
REMARK    1  A    between atoms: C_8  and  N_9 
REMARK       I    between atoms: N_9  and  C_10 
REMARK       I    between atoms: C_10  and  N_11 
REMARK    2  A    between atoms: N_11  and  C_12 
REMARK    3  A    between atoms: C_16  and  O_17 
ROOT
HETATM    1  N   UNL     1     -43.991  56.134 -57.444  1.00  0.00    -0.305 N 
HETATM    2  C   UNL     1     -43.018  56.152 -56.460  1.00  0.00     0.325 C 
HETATM    3  N   UNL     1     -43.332  55.227 -55.470  1.00  0.00    -0.309 N 
HETATM    4  O   UNL     1     -42.016  56.851 -56.461  1.00  0.00    -0.247 OA
HETATM    5  H   UNL     1     -44.608  55.338 -57.452  1.00  0.00     0.171 HD
HETATM    6  H   UNL     1     -44.284  54.894 -55.472  1.00  0.00     0.170 HD
ENDROOT
BRANCH   1   7
HETATM    7  C   UNL     1     -44.060  56.937 -58.570  1.00  0.00     0.086 A 
HETATM    8  C   UNL     1     -44.264  56.397 -59.828  1.00  0.00     0.052 A 
HETATM    9  C   UNL     1     -44.436  55.004 -60.304  1.00  0.00     0.072 C 
HETATM   10  N   UNL     1     -44.268  57.454 -60.694  1.00  0.00    -0.280 N 
HETATM   11  H   UNL     1     -44.377  57.439 -61.702  1.00  0.00     0.189 HD
HETATM   12  N   UNL     1     -44.110  58.638 -60.098  1.00  0.00    -0.177 NA
HETATM   13  C   UNL     1     -43.983  58.343 -58.795  1.00  0.00     0.079 A 
HETATM   14  C   UNL     1     -43.819  59.468 -57.840  1.00  0.00     0.075 C 
ENDBRANCH   1   7
BRANCH   3  15
HETATM   15  C   UNL     1     -42.513  54.774 -54.414  1.00  0.00     0.039 A 
HETATM   16  C   UNL     1     -42.277  55.493 -53.241  1.00  0.00     0.056 A 
HETATM   17  C   UNL     1     -41.400  54.994 -52.269  1.00  0.00     0.071 A 
HETATM   18 CL   UNL     1     -41.135  55.934 -50.843  1.00  0.00    -0.081 Cl
HETATM   19  C   UNL     1     -40.753  53.767 -52.454  1.00  0.00     0.111 A 
HETATM   20  C   UNL     1     -40.982  53.052 -53.632  1.00  0.00     0.071 A 
HETATM   21 CL   UNL     1     -40.172  51.563 -53.970  1.00  0.00    -0.081 Cl
HETATM   22  C   UNL     1     -41.866  53.546 -54.597  1.00  0.00     0.056 A 
BRANCH  19  23
HETATM   23  O   UNL     1     -39.834  53.344 -51.528  1.00  0.00    -0.352 OA
HETATM   24  C   UNL     1     -40.415  52.461 -50.567  1.00  0.00     0.210 C 
ENDBRANCH  19  23
ENDBRANCH   3  15
TORSDOF 3
ENDMDL
MODEL 4
REMARK VINA RESULT:      -6.9      3.773      7.954
REMARK  3 active torsions:
REMARK  status: ('A' for Active; 'I' for Inactive)
REMARK    1  A    between atoms: C_8  and  N_9 
REMARK       I    between atoms: N_9  and  C_10 
REMARK       I    between atoms: C_10  and  N_11 
REMARK    2  A    between atoms: N_11  and  C_12 
REMARK    3  A    between atoms: C_16  and  O_17 
ROOT
HETATM    1  N   UNL     1     -41.676  53.510 -53.778  1.00  0.00    -0.305 N 
HETATM    2  C   UNL     1     -41.461  54.142 -54.990  1.00  0.00     0.325 C 
HETATM    3  N   UNL     1     -42.658  54.663 -55.470  1.00  0.00    -0.309 N 
HETATM    4  O   UNL     1     -40.382  54.256 -55.552  1.00  0.00    -0.247 OA
HETATM    5  H   UNL     1     -42.543  53.719 -53.309  1.00  0.00     0.171 HD
HETATM    6  H   UNL     1     -43.494  54.301 -55.036  1.00  0.00     0.170 HD
ENDROOT
BRANCH   1   7
HETATM    7  C   UNL     1     -40.745  52.833 -53.007  1.00  0.00     0.086 A 
HETATM    8  C   UNL     1     -40.372  53.295 -51.757  1.00  0.00     0.052 A 
HETATM    9  C   UNL     1     -40.775  54.482 -50.967  1.00  0.00     0.072 C 
HETATM   10  N   UNL     1     -39.446  52.407 -51.290  1.00  0.00    -0.280 N 
HETATM   11  H   UNL     1     -38.941  52.430 -50.411  1.00  0.00     0.189 HD
HETATM   12  N   UNL     1     -39.206  51.391 -52.123  1.00  0.00    -0.177 NA
HETATM   13  C   UNL     1     -39.996  51.632 -53.181  1.00  0.00     0.079 A 
HETATM   14  C   UNL     1     -39.985  50.651 -54.295  1.00  0.00     0.075 C 
ENDBRANCH   1   7
BRANCH   3  15
HETATM   15  C   UNL     1     -42.847  55.556 -56.546  1.00  0.00     0.039 A 
HETATM   16  C   UNL     1     -43.323  55.179 -57.803  1.00  0.00     0.056 A 
HETATM   17  C   UNL     1     -43.422  56.122 -58.834  1.00  0.00     0.071 A 
HETATM   18 CL   UNL     1     -44.004  55.595 -60.374  1.00  0.00    -0.081 Cl
HETATM   19  C   UNL     1     -43.054  57.455 -58.620  1.00  0.00     0.111 A 
HETATM   20  C   UNL     1     -42.569  57.831 -57.365  1.00  0.00     0.071 A 
HETATM   21 CL   UNL     1     -42.030  59.438 -57.036  1.00  0.00    -0.081 Cl
HETATM   22  C   UNL     1     -42.480  56.890 -56.332  1.00  0.00     0.056 A 
BRANCH  19  23
HETATM   23  O   UNL     1     -43.079  58.337 -59.670  1.00  0.00    -0.352 OA
HETATM   24  C   UNL     1     -41.859  58.317 -60.411  1.00  0.00     0.210 C 
ENDBRANCH  19  23
ENDBRANCH   3  15
TORSDOF 3
ENDMDL
MODEL 5
REMARK VINA RESULT:      -6.9      2.171      3.242
REMARK  3 active torsions:
REMARK  status: ('A' for Active; 'I' for Inactive)
REMARK    1  A    between atoms: C_8  and  N_9 
REMARK       I    between atoms: N_9  and  C_10 
REMARK       I    between atoms: C_10  and  N_11 
REMARK    2  A    between atoms: N_11  and  C_12 
REMARK    3  A    between atoms: C_16  and  O_17 
ROOT
HETATM    1  N   UNL     1     -44.025  56.149 -57.693  1.00  0.00    -0.305 N 
HETATM    2  C   UNL     1     -43.248  56.138 -56.549  1.00  0.00     0.325 C 
HETATM    3  N   UNL     1     -43.516  54.993 -55.807  1.00  0.00    -0.309 N 
HETATM    4  O   UNL     1     -42.426  56.987 -56.238  1.00  0.00    -0.247 OA
HETATM    5  H   UNL     1     -44.453  55.276 -57.955  1.00  0.00     0.171 HD
HETATM    6  H   UNL     1     -44.366  54.506 -56.051  1.00  0.00     0.170 HD
ENDROOT
BRANCH   1   7
HETATM    7  C   UNL     1     -44.080  57.138 -58.662  1.00  0.00     0.086 A 
HETATM    8  C   UNL     1     -45.169  57.984 -58.767  1.00  0.00     0.052 A 
HETATM    9  C   UNL     1     -46.436  58.086 -58.003  1.00  0.00     0.072 C 
HETATM   10  N   UNL     1     -44.900  58.814 -59.817  1.00  0.00    -0.280 N 
HETATM   11  H   UNL     1     -45.479  59.556 -60.196  1.00  0.00     0.189 HD
HETATM   12  N   UNL     1     -43.713  58.594 -60.387  1.00  0.00    -0.177 NA
HETATM   13  C   UNL     1     -43.193  57.570 -59.692  1.00  0.00     0.079 A 
HETATM   14  C   UNL     1     -41.837  57.093 -60.065  1.00  0.00     0.075 C 
ENDBRANCH   1   7
BRANCH   3  15
HETATM   15  C   UNL     1     -42.801  54.486 -54.701  1.00  0.00     0.039 A 
HETATM   16  C   UNL     1     -41.693  53.644 -54.804  1.00  0.00     0.056 A 
HETATM   17  C   UNL     1     -41.079  53.138 -53.650  1.00  0.00     0.071 A 
HETATM   18 CL   UNL     1     -39.719  52.089 -53.838  1.00  0.00    -0.081 Cl
HETATM   19  C   UNL     1     -41.563  53.472 -52.380  1.00  0.00     0.111 A 
HETATM   20  C   UNL     1     -42.678  54.307 -52.277  1.00  0.00     0.071 A 
HETATM   21 CL   UNL     1     -43.379  54.714 -50.752  1.00  0.00    -0.081 Cl
HETATM   22  C   UNL     1     -43.283  54.820 -53.430  1.00  0.00     0.056 A 
BRANCH  19  23
HETATM   23  O   UNL     1     -40.998  52.894 -51.272  1.00  0.00    -0.352 OA
HETATM   24  C   UNL     1     -39.972  53.713 -50.709  1.00  0.00     0.210 C 
ENDBRANCH  19  23
ENDBRANCH   3  15
TORSDOF 3
ENDMDL
MODEL 6
REMARK VINA RESULT:      -6.8      3.841      7.810
REMARK  3 active torsions:
REMARK  status: ('A' for Active; 'I' for Inactive)
REMARK    1  A    between atoms: C_8  and  N_9 
REMARK       I    between atoms: N_9  and  C_10 
REMARK       I    between atoms: C_10  and  N_11 
REMARK    2  A    between atoms: N_11  and  C_12 
REMARK    3  A    between atoms: C_16  and  O_17 
ROOT
HETATM    1  N   UNL     1     -41.634  53.413 -53.968  1.00  0.00    -0.305 N 
HETATM    2  C   UNL     1     -41.306  54.258 -55.013  1.00  0.00     0.325 C 
HETATM    3  N   UNL     1     -42.464  54.698 -55.645  1.00  0.00    -0.309 N 
HETATM    4  O   UNL     1     -40.175  54.596 -55.328  1.00  0.00    -0.247 OA
HETATM    5  H   UNL     1     -42.592  53.432 -53.657  1.00  0.00     0.171 HD
HETATM    6  H   UNL     1     -43.299  54.169 -55.441  1.00  0.00     0.170 HD
ENDROOT
BRANCH   1   7
HETATM    7  C   UNL     1     -40.762  52.738 -53.128  1.00  0.00     0.086 A 
HETATM    8  C   UNL     1     -40.456  53.223 -51.869  1.00  0.00     0.052 A 
HETATM    9  C   UNL     1     -40.884  54.434 -51.130  1.00  0.00     0.072 C 
HETATM   10  N   UNL     1     -39.574  52.331 -51.328  1.00  0.00    -0.280 N 
HETATM   11  H   UNL     1     -39.122  52.366 -50.422  1.00  0.00     0.189 HD
HETATM   12  N   UNL     1     -39.304  51.292 -52.123  1.00  0.00    -0.177 NA
HETATM   13  C   UNL     1     -40.025  51.522 -53.231  1.00  0.00     0.079 A 
HETATM   14  C   UNL     1     -39.966  50.515 -54.321  1.00  0.00     0.075 C 
ENDBRANCH   1   7
BRANCH   3  15
HETATM   15  C   UNL     1     -42.594  55.726 -56.603  1.00  0.00     0.039 A 
HETATM   16  C   UNL     1     -42.281  57.065 -56.363  1.00  0.00     0.056 A 
HETATM   17  C   UNL     1     -42.500  58.031 -57.354  1.00  0.00     0.071 A 
HETATM   18 CL   UNL     1     -42.107  59.676 -56.996  1.00  0.00    -0.081 Cl
HETATM   19  C   UNL     1     -43.028  57.670 -58.599  1.00  0.00     0.111 A 
HETATM   20  C   UNL     1     -43.349  56.332 -58.836  1.00  0.00     0.071 A 
HETATM   21 CL   UNL     1     -44.067  55.812 -60.319  1.00  0.00    -0.081 Cl
HETATM   22  C   UNL     1     -43.121  55.366 -57.849  1.00  0.00     0.056 A 
BRANCH  19  23
HETATM   23  O   UNL     1     -43.312  58.648 -59.518  1.00  0.00    -0.352 OA
HETATM   24  C   UNL     1     -42.225  58.862 -60.420  1.00  0.00     0.210 C 
ENDBRANCH  19  23
ENDBRANCH   3  15
TORSDOF 3
ENDMDL
MODEL 7
REMARK VINA RESULT:      -6.6      3.590      8.057
REMARK  3 active torsions:
REMARK  status: ('A' for Active; 'I' for Inactive)
REMARK    1  A    between atoms: C_8  and  N_9 
REMARK       I    between atoms: N_9  and  C_10 
REMARK       I    between atoms: C_10  and  N_11 
REMARK    2  A    between atoms: N_11  and  C_12 
REMARK    3  A    between atoms: C_16  and  O_17 
ROOT
HETATM    1  N   UNL     1     -39.953  52.719 -53.390  1.00  0.00    -0.305 N 
HETATM    2  C   UNL     1     -41.027  53.569 -53.589  1.00  0.00     0.325 C 
HETATM    3  N   UNL     1     -40.694  54.538 -54.529  1.00  0.00    -0.309 N 
HETATM    4  O   UNL     1     -42.118  53.476 -53.047  1.00  0.00    -0.247 OA
HETATM    5  H   UNL     1     -39.224  52.746 -54.084  1.00  0.00     0.171 HD
HETATM    6  H   UNL     1     -39.708  54.641 -54.717  1.00  0.00     0.170 HD
ENDROOT
BRANCH   1   7
HETATM    7  C   UNL     1     -39.875  51.657 -52.504  1.00  0.00     0.086 A 
HETATM    8  C   UNL     1     -39.605  50.372 -52.942  1.00  0.00     0.052 A 
HETATM    9  C   UNL     1     -39.361  49.804 -54.289  1.00  0.00     0.072 C 
HETATM   10  N   UNL     1     -39.613  49.587 -51.825  1.00  0.00    -0.280 N 
HETATM   11  H   UNL     1     -39.466  48.585 -51.761  1.00  0.00     0.189 HD
HETATM   12  N   UNL     1     -39.839  50.259 -50.695  1.00  0.00    -0.177 NA
HETATM   13  C   UNL     1     -40.000  51.532 -51.089  1.00  0.00     0.079 A 
HETATM   14  C   UNL     1     -40.242  52.559 -50.045  1.00  0.00     0.075 C 
ENDBRANCH   1   7
BRANCH   3  15
HETATM   15  C   UNL     1     -41.552  55.453 -55.175  1.00  0.00     0.039 A 
HETATM   16  C   UNL     1     -42.202  55.199 -56.384  1.00  0.00     0.056 A 
HETATM   17  C   UNL     1     -42.989  56.190 -56.987  1.00  0.00     0.071 A 
HETATM   18 CL   UNL     1     -43.758  55.823 -58.490  1.00  0.00    -0.081 Cl
HETATM   19  C   UNL     1     -43.141  57.444 -56.385  1.00  0.00     0.111 A 
HETATM   20  C   UNL     1     -42.484  57.701 -55.180  1.00  0.00     0.071 A 
HETATM   21 CL   UNL     1     -42.564  59.244 -54.405  1.00  0.00    -0.081 Cl
HETATM   22  C   UNL     1     -41.706  56.708 -54.574  1.00  0.00     0.056 A 
BRANCH  19  23
HETATM   23  O   UNL     1     -43.845  58.422 -57.039  1.00  0.00    -0.352 OA
HETATM   24  C   UNL     1     -45.214  58.455 -56.632  1.00  0.00     0.210 C 
ENDBRANCH  19  23
ENDBRANCH   3  15
TORSDOF 3
ENDMDL
MODEL 8
REMARK VINA RESULT:      -6.6      2.693      3.814
REMARK  3 active torsions:
REMARK  status: ('A' for Active; 'I' for Inactive)
REMARK    1  A    between atoms: C_8  and  N_9 
REMARK       I    between atoms: N_9  and  C_10 
REMARK       I    between atoms: C_10  and  N_11 
REMARK    2  A    between atoms: N_11  and  C_12 
REMARK    3  A    between atoms: C_16  and  O_17 
ROOT
HETATM    1  N   UNL     1     -44.738  57.068 -53.428  1.00  0.00    -0.305 N 
HETATM    2  C   UNL     1     -43.552  56.623 -52.869  1.00  0.00     0.325 C 
HETATM    3  N   UNL     1     -43.608  55.247 -52.679  1.00  0.00    -0.309 N 
HETATM    4  O   UNL     1     -42.585  57.321 -52.603  1.00  0.00    -0.247 OA
HETATM    5  H   UNL     1     -45.334  56.366 -53.836  1.00  0.00     0.171 HD
HETATM    6  H   UNL     1     -44.530  54.839 -52.719  1.00  0.00     0.170 HD
ENDROOT
BRANCH   1   7
HETATM    7  C   UNL     1     -45.087  58.374 -53.727  1.00  0.00     0.086 A 
HETATM    8  C   UNL     1     -45.244  58.796 -55.036  1.00  0.00     0.052 A 
HETATM    9  C   UNL     1     -45.102  58.099 -56.337  1.00  0.00     0.072 C 
HETATM   10  N   UNL     1     -45.573  60.119 -54.967  1.00  0.00    -0.280 N 
HETATM   11  H   UNL     1     -45.751  60.763 -55.730  1.00  0.00     0.189 HD
HETATM   12  N   UNL     1     -45.669  60.586 -53.720  1.00  0.00    -0.177 NA
HETATM   13  C   UNL     1     -45.377  59.530 -52.944  1.00  0.00     0.079 A 
HETATM   14  C   UNL     1     -45.426  59.713 -51.471  1.00  0.00     0.075 C 
ENDBRANCH   1   7
BRANCH   3  15
HETATM   15  C   UNL     1     -42.551  54.373 -52.343  1.00  0.00     0.039 A 
HETATM   16  C   UNL     1     -42.079  54.177 -51.045  1.00  0.00     0.056 A 
HETATM   17  C   UNL     1     -40.983  53.336 -50.809  1.00  0.00     0.071 A 
HETATM   18 CL   UNL     1     -40.433  53.142 -49.182  1.00  0.00    -0.081 Cl
HETATM   19  C   UNL     1     -40.350  52.676 -51.868  1.00  0.00     0.111 A 
HETATM   20  C   UNL     1     -40.817  52.879 -53.169  1.00  0.00     0.071 A 
HETATM   21 CL   UNL     1     -40.052  52.156 -54.539  1.00  0.00    -0.081 Cl
HETATM   22  C   UNL     1     -41.918  53.711 -53.402  1.00  0.00     0.056 A 
BRANCH  19  23
HETATM   23  O   UNL     1     -39.227  51.928 -51.620  1.00  0.00    -0.352 OA
HETATM   24  C   UNL     1     -39.541  50.550 -51.416  1.00  0.00     0.210 C 
ENDBRANCH  19  23
ENDBRANCH   3  15
TORSDOF 3
ENDMDL
MODEL 9
REMARK VINA RESULT:      -6.6      4.062      8.182
REMARK  3 active torsions:
REMARK  status: ('A' for Active; 'I' for Inactive)
REMARK    1  A    between atoms: C_8  and  N_9 
REMARK       I    between atoms: N_9  and  C_10 
REMARK       I    between atoms: C_10  and  N_11 
REMARK    2  A    between atoms: N_11  and  C_12 
REMARK    3  A    between atoms: C_16  and  O_17 
ROOT
HETATM    1  N   UNL     1     -41.127  54.788 -55.015  1.00  0.00    -0.305 N 
HETATM    2  C   UNL     1     -42.369  55.102 -55.538  1.00  0.00     0.325 C 
HETATM    3  N   UNL     1     -42.216  55.800 -56.731  1.00  0.00    -0.309 N 
HETATM    4  O   UNL     1     -43.446  54.796 -55.048  1.00  0.00    -0.247 OA
HETATM    5  H   UNL     1     -40.343  54.864 -55.643  1.00  0.00     0.171 HD
HETATM    6  H   UNL     1     -41.298  56.183 -56.896  1.00  0.00     0.170 HD
ENDROOT
BRANCH   1   7
HETATM    7  C   UNL     1     -40.858  54.138 -53.822  1.00  0.00     0.086 A 
HETATM    8  C   UNL     1     -40.954  54.794 -52.607  1.00  0.00     0.052 A 
HETATM    9  C   UNL     1     -41.311  56.187 -52.246  1.00  0.00     0.072 C 
HETATM   10  N   UNL     1     -40.614  53.875 -51.657  1.00  0.00    -0.280 N 
HETATM   11  H   UNL     1     -40.560  54.001 -50.652  1.00  0.00     0.189 HD
HETATM   12  N   UNL     1     -40.330  52.668 -52.152  1.00  0.00    -0.177 NA
HETATM   13  C   UNL     1     -40.476  52.808 -53.479  1.00  0.00     0.079 A 
HETATM   14  C   UNL     1     -40.256  51.614 -54.333  1.00  0.00     0.075 C 
ENDBRANCH   1   7
BRANCH   3  15
HETATM   15  C   UNL     1     -43.206  56.115 -57.686  1.00  0.00     0.039 A 
HETATM   16  C   UNL     1     -43.514  55.316 -58.789  1.00  0.00     0.056 A 
HETATM   17  C   UNL     1     -44.471  55.737 -59.723  1.00  0.00     0.071 A 
HETATM   18 CL   UNL     1     -44.801  54.713 -61.075  1.00  0.00    -0.081 Cl
HETATM   19  C   UNL     1     -45.136  56.957 -59.562  1.00  0.00     0.111 A 
HETATM   20  C   UNL     1     -44.821  57.761 -58.464  1.00  0.00     0.071 A 
HETATM   21 CL   UNL     1     -45.546  59.311 -58.227  1.00  0.00    -0.081 Cl
HETATM   22  C   UNL     1     -43.873  57.335 -57.526  1.00  0.00     0.056 A 
BRANCH  19  23
HETATM   23  O   UNL     1     -46.003  57.384 -60.535  1.00  0.00    -0.352 OA
HETATM   24  C   UNL     1     -47.316  56.856 -60.346  1.00  0.00     0.210 C 
ENDBRANCH  19  23
ENDBRANCH   3  15
TORSDOF 3
ENDMDL
MODEL 10
REMARK VINA RESULT:      -6.6      3.602      7.769
REMARK  3 active torsions:
REMARK  status: ('A' for Active; 'I' for Inactive)
REMARK    1  A    between atoms: C_8  and  N_9 
REMARK       I    between atoms: N_9  and  C_10 
REMARK       I    between atoms: C_10  and  N_11 
REMARK    2  A    between atoms: N_11  and  C_12 
REMARK    3  A    between atoms: C_16  and  O_17 
ROOT
HETATM    1  N   UNL     1     -39.888  52.667 -53.323  1.00  0.00    -0.305 N 
HETATM    2  C   UNL     1     -40.894  53.612 -53.416  1.00  0.00     0.325 C 
HETATM    3  N   UNL     1     -40.532  54.600 -54.324  1.00  0.00    -0.309 N 
HETATM    4  O   UNL     1     -41.958  53.581 -52.815  1.00  0.00    -0.247 OA
HETATM    5  H   UNL     1     -39.198  52.672 -54.056  1.00  0.00     0.171 HD
HETATM    6  H   UNL     1     -39.552  54.631 -54.565  1.00  0.00     0.170 HD
ENDROOT
BRANCH   1   7
HETATM    7  C   UNL     1     -39.852  51.556 -52.496  1.00  0.00     0.086 A 
HETATM    8  C   UNL     1     -39.615  50.290 -53.002  1.00  0.00     0.052 A 
HETATM    9  C   UNL     1     -39.371  49.789 -54.376  1.00  0.00     0.072 C 
HETATM   10  N   UNL     1     -39.659  49.444 -51.931  1.00  0.00    -0.280 N 
HETATM   11  H   UNL     1     -39.543  48.437 -51.921  1.00  0.00     0.189 HD
HETATM   12  N   UNL     1     -39.879  50.060 -50.767  1.00  0.00    -0.177 NA
HETATM   13  C   UNL     1     -39.997  51.357 -51.092  1.00  0.00     0.079 A 
HETATM   14  C   UNL     1     -40.222  52.332 -49.995  1.00  0.00     0.075 C 
ENDBRANCH   1   7
BRANCH   3  15
HETATM   15  C   UNL     1     -41.343  55.616 -54.872  1.00  0.00     0.039 A 
HETATM   16  C   UNL     1     -41.623  56.825 -54.234  1.00  0.00     0.056 A 
HETATM   17  C   UNL     1     -42.491  57.754 -54.825  1.00  0.00     0.071 A 
HETATM   18 CL   UNL     1     -42.811  59.228 -53.982  1.00  0.00    -0.081 Cl
HETATM   19  C   UNL     1     -43.084  57.488 -56.064  1.00  0.00     0.111 A 
HETATM   20  C   UNL     1     -42.811  56.274 -56.699  1.00  0.00     0.071 A 
HETATM   21 CL   UNL     1     -43.552  55.838 -58.197  1.00  0.00    -0.081 Cl
HETATM   22  C   UNL     1     -41.936  55.352 -56.113  1.00  0.00     0.056 A 
BRANCH  19  23
HETATM   23  O   UNL     1     -43.995  58.375 -56.579  1.00  0.00    -0.352 OA
HETATM   24  C   UNL     1     -45.314  58.123 -56.093  1.00  0.00     0.210 C 
ENDBRANCH  19  23
ENDBRANCH   3  15
TORSDOF 3
ENDMDL
