MODEL 1
REMARK VINA RESULT:      -8.5      0.000      0.000
REMARK  8 active torsions:
REMARK  status: ('A' for Active; 'I' for Inactive)
REMARK    1  A    between atoms: C_2  and  N_3 
REMARK    2  A    between atoms: C_11  and  C_12 
REMARK    3  A    between atoms: C_14  and  O_15 
REMARK    4  A    between atoms: O_15  and  C_16 
REMARK    5  A    between atoms: C_18  and  O_19 
REMARK    6  A    between atoms: O_19  and  C_20 
REMARK    7  A    between atoms: C_20  and  C_21 
REMARK    8  A    between atoms: C_31  and  O_32 
ROOT
HETATM    1  N   UNL     1     -46.656  64.088 -50.791  1.00  0.00    -0.067 N 
HETATM    2  H   UNL     1     -47.140  64.868 -50.331  1.00  0.00     0.280 HD
HETATM    3  C   UNL     1     -45.931  63.334 -49.671  1.00  0.00     0.281 C 
HETATM    4  C   UNL     1     -44.887  62.434 -50.235  1.00  0.00     0.018 A 
HETATM    5  C   UNL     1     -44.329  62.558 -51.496  1.00  0.00    -0.024 A 
HETATM    6  C   UNL     1     -43.370  61.522 -51.735  1.00  0.00     0.057 A 
HETATM    7  C   UNL     1     -43.258  60.675 -50.659  1.00  0.00     0.087 A 
HETATM    8  N   UNL     1     -42.455  59.599 -50.673  1.00  0.00    -0.357 N 
HETATM    9  C   UNL     1     -41.486  59.476 -51.752  1.00  0.00     0.243 C 
HETATM   10  N   UNL     1     -41.686  60.298 -52.957  1.00  0.00    -0.235 NA
HETATM   11  C   UNL     1     -42.562  61.225 -52.888  1.00  0.00     0.173 C 
HETATM   12  S   UNL     1     -44.256  61.119 -49.360  1.00  0.00    -0.074 SA
HETATM   13  C   UNL     1     -44.769  63.633 -52.447  1.00  0.00     0.068 C 
HETATM   14  C   UNL     1     -45.634  64.700 -51.750  1.00  0.00     0.240 C 
HETATM   15  H   UNL     1     -42.251  59.064 -49.834  1.00  0.00     0.162 HD
ENDROOT
BRANCH   9  16
HETATM   16  C   UNL     1     -41.388  58.015 -52.171  1.00  0.00    -0.012 A 
HETATM   17  C   UNL     1     -41.550  56.976 -51.229  1.00  0.00     0.050 A 
HETATM   18  C   UNL     1     -41.548  55.636 -51.626  1.00  0.00     0.103 A 
HETATM   19  C   UNL     1     -41.400  55.345 -52.986  1.00  0.00     0.112 A 
HETATM   20  C   UNL     1     -41.251  56.356 -53.938  1.00  0.00     0.041 A 
HETATM   21  C   UNL     1     -41.238  57.687 -53.528  1.00  0.00     0.014 A 
BRANCH  18  22
HETATM   22  O   UNL     1     -41.714  54.566 -50.788  1.00  0.00    -0.349 OA
BRANCH  22  23
HETATM   23  C   UNL     1     -41.344  54.749 -49.422  1.00  0.00     0.171 C 
HETATM   24  C   UNL     1     -39.917  54.263 -49.251  1.00  0.00     0.034 C 
ENDBRANCH  22  23
ENDBRANCH  18  22
BRANCH  19  25
HETATM   25  O   UNL     1     -41.540  54.012 -53.405  1.00  0.00    -0.272 OA
BRANCH  25  26
HETATM   26  C   UNL     1     -40.475  53.471 -54.098  1.00  0.00     0.298 C 
HETATM   27  O   UNL     1     -39.918  53.940 -55.079  1.00  0.00    -0.259 OA
BRANCH  26  28
HETATM   28  C   UNL     1     -40.127  52.149 -53.506  1.00  0.00     0.039 A 
HETATM   29  C   UNL     1     -40.144  51.025 -54.342  1.00  0.00     0.017 A 
HETATM   30  C   UNL     1     -39.862  49.758 -53.827  1.00  0.00     0.001 A 
HETATM   31  C   UNL     1     -39.555  49.609 -52.475  1.00  0.00     0.000 A 
HETATM   32  C   UNL     1     -39.525  50.723 -51.637  1.00  0.00     0.001 A 
HETATM   33  C   UNL     1     -39.808  51.992 -52.149  1.00  0.00     0.017 A 
ENDBRANCH  26  28
ENDBRANCH  25  26
ENDBRANCH  19  25
ENDBRANCH   9  16
BRANCH  11  34
HETATM   34  O   UNL     1     -42.759  61.992 -53.974  1.00  0.00    -0.344 OA
HETATM   35  H   UNL     1     -42.407  62.873 -53.754  1.00  0.00     0.219 HD
ENDBRANCH  11  34
BRANCH   1  36
HETATM   36  C   UNL     1     -47.726  63.232 -51.436  1.00  0.00     0.231 C 
HETATM   37  C   UNL     1     -48.538  64.034 -52.435  1.00  0.00     0.034 C 
ENDBRANCH   1  36
TORSDOF 8
ENDMDL
MODEL 2
REMARK VINA RESULT:      -8.3      1.179      2.302
REMARK  8 active torsions:
REMARK  status: ('A' for Active; 'I' for Inactive)
REMARK    1  A    between atoms: C_2  and  N_3 
REMARK    2  A    between atoms: C_11  and  C_12 
REMARK    3  A    between atoms: C_14  and  O_15 
REMARK    4  A    between atoms: O_15  and  C_16 
REMARK    5  A    between atoms: C_18  and  O_19 
REMARK    6  A    between atoms: O_19  and  C_20 
REMARK    7  A    between atoms: C_20  and  C_21 
REMARK    8  A    between atoms: C_31  and  O_32 
ROOT
HETATM    1  N   UNL     1     -46.777  64.265 -51.003  1.00  0.00    -0.067 N 
HETATM    2  H   UNL     1     -47.233  65.072 -50.560  1.00  0.00     0.280 HD
HETATM    3  C   UNL     1     -46.415  63.317 -49.856  1.00  0.00     0.281 C 
HETATM    4  C   UNL     1     -45.412  62.310 -50.303  1.00  0.00     0.018 A 
HETATM    5  C   UNL     1     -44.591  62.446 -51.409  1.00  0.00    -0.024 A 
HETATM    6  C   UNL     1     -43.758  61.293 -51.572  1.00  0.00     0.057 A 
HETATM    7  C   UNL     1     -43.992  60.354 -50.597  1.00  0.00     0.087 A 
HETATM    8  N   UNL     1     -43.363  59.169 -50.576  1.00  0.00    -0.357 N 
HETATM    9  C   UNL     1     -42.217  58.981 -51.453  1.00  0.00     0.243 C 
HETATM   10  N   UNL     1     -42.043  59.920 -52.573  1.00  0.00    -0.235 NA
HETATM   11  C   UNL     1     -42.776  60.966 -52.572  1.00  0.00     0.173 C 
HETATM   12  S   UNL     1     -45.168  60.844 -49.475  1.00  0.00    -0.074 SA
HETATM   13  C   UNL     1     -44.667  63.652 -52.300  1.00  0.00     0.068 C 
HETATM   14  C   UNL     1     -45.501  64.782 -51.669  1.00  0.00     0.240 C 
HETATM   15  H   UNL     1     -43.416  58.541 -49.779  1.00  0.00     0.162 HD
ENDROOT
BRANCH   9  16
HETATM   16  C   UNL     1     -42.239  57.563 -52.006  1.00  0.00    -0.012 A 
HETATM   17  C   UNL     1     -42.910  57.262 -53.211  1.00  0.00     0.050 A 
HETATM   18  C   UNL     1     -42.859  55.981 -53.766  1.00  0.00     0.103 A 
HETATM   19  C   UNL     1     -42.107  55.000 -53.109  1.00  0.00     0.112 A 
HETATM   20  C   UNL     1     -41.423  55.277 -51.923  1.00  0.00     0.041 A 
HETATM   21  C   UNL     1     -41.496  56.553 -51.371  1.00  0.00     0.014 A 
BRANCH  18  22
HETATM   22  O   UNL     1     -43.463  55.604 -54.935  1.00  0.00    -0.349 OA
BRANCH  22  23
HETATM   23  C   UNL     1     -43.389  56.519 -56.027  1.00  0.00     0.171 C 
HETATM   24  C   UNL     1     -42.853  55.771 -57.234  1.00  0.00     0.034 C 
ENDBRANCH  22  23
ENDBRANCH  18  22
BRANCH  19  25
HETATM   25  O   UNL     1     -41.935  53.756 -53.736  1.00  0.00    -0.272 OA
BRANCH  25  26
HETATM   26  C   UNL     1     -40.661  53.462 -54.177  1.00  0.00     0.298 C 
HETATM   27  O   UNL     1     -39.988  54.103 -54.971  1.00  0.00    -0.259 OA
BRANCH  26  28
HETATM   28  C   UNL     1     -40.225  52.166 -53.585  1.00  0.00     0.039 A 
HETATM   29  C   UNL     1     -40.221  51.032 -54.407  1.00  0.00     0.017 A 
HETATM   30  C   UNL     1     -39.856  49.787 -53.890  1.00  0.00     0.001 A 
HETATM   31  C   UNL     1     -39.488  49.671 -52.550  1.00  0.00     0.000 A 
HETATM   32  C   UNL     1     -39.478  50.796 -51.727  1.00  0.00     0.001 A 
HETATM   33  C   UNL     1     -39.843  52.043 -52.241  1.00  0.00     0.017 A 
ENDBRANCH  26  28
ENDBRANCH  25  26
ENDBRANCH  19  25
ENDBRANCH   9  16
BRANCH  11  34
HETATM   34  O   UNL     1     -42.632  61.841 -53.582  1.00  0.00    -0.344 OA
HETATM   35  H   UNL     1     -41.706  62.142 -53.553  1.00  0.00     0.219 HD
ENDBRANCH  11  34
BRANCH   1  36
HETATM   36  C   UNL     1     -47.797  63.647 -51.936  1.00  0.00     0.231 C 
HETATM   37  C   UNL     1     -49.179  63.645 -51.310  1.00  0.00     0.034 C 
ENDBRANCH   1  36
TORSDOF 8
ENDMDL
MODEL 3
REMARK VINA RESULT:      -7.7      5.203      6.739
REMARK  8 active torsions:
REMARK  status: ('A' for Active; 'I' for Inactive)
REMARK    1  A    between atoms: C_2  and  N_3 
REMARK    2  A    between atoms: C_11  and  C_12 
REMARK    3  A    between atoms: C_14  and  O_15 
REMARK    4  A    between atoms: O_15  and  C_16 
REMARK    5  A    between atoms: C_18  and  O_19 
REMARK    6  A    between atoms: O_19  and  C_20 
REMARK    7  A    between atoms: C_20  and  C_21 
REMARK    8  A    between atoms: C_31  and  O_32 
ROOT
HETATM    1  N   UNL     1     -40.965  63.021 -61.868  1.00  0.00    -0.067 N 
HETATM    2  H   UNL     1     -41.050  63.494 -62.777  1.00  0.00     0.280 HD
HETATM    3  C   UNL     1     -41.604  61.643 -62.060  1.00  0.00     0.281 C 
HETATM    4  C   UNL     1     -41.903  61.015 -60.742  1.00  0.00     0.018 A 
HETATM    5  C   UNL     1     -42.017  61.701 -59.545  1.00  0.00    -0.024 A 
HETATM    6  C   UNL     1     -42.290  60.801 -58.465  1.00  0.00     0.057 A 
HETATM    7  C   UNL     1     -42.360  59.498 -58.894  1.00  0.00     0.087 A 
HETATM    8  N   UNL     1     -42.557  58.474 -58.049  1.00  0.00    -0.357 N 
HETATM    9  C   UNL     1     -42.967  58.774 -56.685  1.00  0.00     0.243 C 
HETATM   10  N   UNL     1     -42.769  60.147 -56.191  1.00  0.00    -0.235 NA
HETATM   11  C   UNL     1     -42.464  61.036 -57.056  1.00  0.00     0.173 C 
HETATM   12  S   UNL     1     -42.138  59.339 -60.569  1.00  0.00    -0.074 SA
HETATM   13  C   UNL     1     -41.813  63.186 -59.468  1.00  0.00     0.068 C 
HETATM   14  C   UNL     1     -41.781  63.836 -60.863  1.00  0.00     0.240 C 
HETATM   15  H   UNL     1     -42.765  57.534 -58.375  1.00  0.00     0.162 HD
ENDROOT
BRANCH   9  16
HETATM   16  C   UNL     1     -42.273  57.810 -55.732  1.00  0.00    -0.012 A 
HETATM   17  C   UNL     1     -41.894  58.217 -54.434  1.00  0.00     0.050 A 
HETATM   18  C   UNL     1     -41.336  57.312 -53.527  1.00  0.00     0.103 A 
HETATM   19  C   UNL     1     -41.177  55.981 -53.928  1.00  0.00     0.112 A 
HETATM   20  C   UNL     1     -41.557  55.552 -55.202  1.00  0.00     0.041 A 
HETATM   21  C   UNL     1     -42.095  56.467 -56.102  1.00  0.00     0.014 A 
BRANCH  18  22
HETATM   22  O   UNL     1     -40.956  57.612 -52.247  1.00  0.00    -0.349 OA
BRANCH  22  23
HETATM   23  C   UNL     1     -41.932  58.229 -51.409  1.00  0.00     0.171 C 
HETATM   24  C   UNL     1     -43.130  57.302 -51.318  1.00  0.00     0.034 C 
ENDBRANCH  22  23
ENDBRANCH  18  22
BRANCH  19  25
HETATM   25  O   UNL     1     -40.753  55.040 -52.976  1.00  0.00    -0.272 OA
BRANCH  25  26
HETATM   26  C   UNL     1     -41.594  53.969 -52.755  1.00  0.00     0.298 C 
HETATM   27  O   UNL     1     -42.770  54.008 -52.426  1.00  0.00    -0.259 OA
BRANCH  26  28
HETATM   28  C   UNL     1     -40.824  52.703 -52.910  1.00  0.00     0.039 A 
HETATM   29  C   UNL     1     -40.870  52.048 -54.148  1.00  0.00     0.017 A 
HETATM   30  C   UNL     1     -40.195  50.839 -54.331  1.00  0.00     0.001 A 
HETATM   31  C   UNL     1     -39.467  50.281 -53.281  1.00  0.00     0.000 A 
HETATM   32  C   UNL     1     -39.406  50.931 -52.049  1.00  0.00     0.001 A 
HETATM   33  C   UNL     1     -40.081  52.140 -51.861  1.00  0.00     0.017 A 
ENDBRANCH  26  28
ENDBRANCH  25  26
ENDBRANCH  19  25
ENDBRANCH   9  16
BRANCH  11  34
HETATM   34  O   UNL     1     -42.284  62.298 -56.630  1.00  0.00    -0.344 OA
HETATM   35  H   UNL     1     -41.360  62.355 -56.327  1.00  0.00     0.219 HD
ENDBRANCH  11  34
BRANCH   1  36
HETATM   36  C   UNL     1     -39.484  62.912 -61.572  1.00  0.00     0.231 C 
HETATM   37  C   UNL     1     -38.665  63.688 -62.587  1.00  0.00     0.034 C 
ENDBRANCH   1  36
TORSDOF 8
ENDMDL
MODEL 4
REMARK VINA RESULT:      -7.6      2.769      3.722
REMARK  8 active torsions:
REMARK  status: ('A' for Active; 'I' for Inactive)
REMARK    1  A    between atoms: C_2  and  N_3 
REMARK    2  A    between atoms: C_11  and  C_12 
REMARK    3  A    between atoms: C_14  and  O_15 
REMARK    4  A    between atoms: O_15  and  C_16 
REMARK    5  A    between atoms: C_18  and  O_19 
REMARK    6  A    between atoms: O_19  and  C_20 
REMARK    7  A    between atoms: C_20  and  C_21 
REMARK    8  A    between atoms: C_31  and  O_32 
ROOT
HETATM    1  N   UNL     1     -45.915  63.050 -57.109  1.00  0.00    -0.067 N 
HETATM    2  H   UNL     1     -46.411  63.876 -57.462  1.00  0.00     0.280 HD
HETATM    3  C   UNL     1     -46.118  63.063 -55.591  1.00  0.00     0.281 C 
HETATM    4  C   UNL     1     -45.138  62.163 -54.923  1.00  0.00     0.018 A 
HETATM    5  C   UNL     1     -43.951  61.723 -55.485  1.00  0.00    -0.024 A 
HETATM    6  C   UNL     1     -43.250  60.855 -54.588  1.00  0.00     0.057 A 
HETATM    7  C   UNL     1     -43.937  60.679 -53.410  1.00  0.00     0.087 A 
HETATM    8  N   UNL     1     -43.496  59.866 -52.438  1.00  0.00    -0.357 N 
HETATM    9  C   UNL     1     -42.133  59.365 -52.523  1.00  0.00     0.243 C 
HETATM   10  N   UNL     1     -41.448  59.442 -53.824  1.00  0.00    -0.235 NA
HETATM   11  C   UNL     1     -42.007  60.145 -54.732  1.00  0.00     0.173 C 
HETATM   12  S   UNL     1     -45.386  61.561 -53.351  1.00  0.00    -0.074 SA
HETATM   13  C   UNL     1     -43.554  62.110 -56.880  1.00  0.00     0.068 C 
HETATM   14  C   UNL     1     -44.433  63.245 -57.436  1.00  0.00     0.240 C 
HETATM   15  H   UNL     1     -43.913  59.853 -51.512  1.00  0.00     0.162 HD
ENDROOT
BRANCH   9  16
HETATM   16  C   UNL     1     -42.101  57.920 -52.043  1.00  0.00    -0.012 A 
HETATM   17  C   UNL     1     -42.728  56.893 -52.783  1.00  0.00     0.050 A 
HETATM   18  C   UNL     1     -42.627  55.556 -52.391  1.00  0.00     0.103 A 
HETATM   19  C   UNL     1     -41.871  55.251 -51.254  1.00  0.00     0.112 A 
HETATM   20  C   UNL     1     -41.230  56.247 -50.514  1.00  0.00     0.041 A 
HETATM   21  C   UNL     1     -41.353  57.578 -50.904  1.00  0.00     0.014 A 
BRANCH  18  22
HETATM   22  O   UNL     1     -43.186  54.497 -53.054  1.00  0.00    -0.349 OA
BRANCH  22  23
HETATM   23  C   UNL     1     -43.823  54.775 -54.299  1.00  0.00     0.171 C 
HETATM   24  C   UNL     1     -42.926  54.264 -55.412  1.00  0.00     0.034 C 
ENDBRANCH  22  23
ENDBRANCH  18  22
BRANCH  19  25
HETATM   25  O   UNL     1     -41.648  53.901 -50.940  1.00  0.00    -0.272 OA
BRANCH  25  26
HETATM   26  C   UNL     1     -40.330  53.489 -50.902  1.00  0.00     0.298 C 
HETATM   27  O   UNL     1     -39.436  53.941 -50.202  1.00  0.00    -0.259 OA
BRANCH  26  28
HETATM   28  C   UNL     1     -40.121  52.424 -51.922  1.00  0.00     0.039 A 
HETATM   29  C   UNL     1     -40.348  52.744 -53.267  1.00  0.00     0.017 A 
HETATM   30  C   UNL     1     -40.202  51.770 -54.257  1.00  0.00     0.001 A 
HETATM   31  C   UNL     1     -39.823  50.474 -53.909  1.00  0.00     0.000 A 
HETATM   32  C   UNL     1     -39.584  50.149 -52.575  1.00  0.00     0.001 A 
HETATM   33  C   UNL     1     -39.731  51.121 -51.581  1.00  0.00     0.017 A 
ENDBRANCH  26  28
ENDBRANCH  25  26
ENDBRANCH  19  25
ENDBRANCH   9  16
BRANCH  11  34
HETATM   34  O   UNL     1     -41.399  60.235 -55.928  1.00  0.00    -0.344 OA
HETATM   35  H   UNL     1     -41.781  61.014 -56.371  1.00  0.00     0.219 HD
ENDBRANCH  11  34
BRANCH   1  36
HETATM   36  C   UNL     1     -46.571  61.843 -57.748  1.00  0.00     0.231 C 
HETATM   37  C   UNL     1     -48.032  61.743 -57.353  1.00  0.00     0.034 C 
ENDBRANCH   1  36
TORSDOF 8
ENDMDL
MODEL 5
REMARK VINA RESULT:      -7.5      2.437      3.454
REMARK  8 active torsions:
REMARK  status: ('A' for Active; 'I' for Inactive)
REMARK    1  A    between atoms: C_2  and  N_3 
REMARK    2  A    between atoms: C_11  and  C_12 
REMARK    3  A    between atoms: C_14  and  O_15 
REMARK    4  A    between atoms: O_15  and  C_16 
REMARK    5  A    between atoms: C_18  and  O_19 
REMARK    6  A    between atoms: O_19  and  C_20 
REMARK    7  A    between atoms: C_20  and  C_21 
REMARK    8  A    between atoms: C_31  and  O_32 
ROOT
HETATM    1  N   UNL     1     -45.876  64.666 -48.241  1.00  0.00    -0.067 N 
HETATM    2  H   UNL     1     -46.266  65.565 -47.933  1.00  0.00     0.280 HD
HETATM    3  C   UNL     1     -46.079  64.627 -49.758  1.00  0.00     0.281 C 
HETATM    4  C   UNL     1     -45.925  63.238 -50.273  1.00  0.00     0.018 A 
HETATM    5  C   UNL     1     -46.027  62.091 -49.505  1.00  0.00    -0.024 A 
HETATM    6  C   UNL     1     -45.808  60.921 -50.300  1.00  0.00     0.057 A 
HETATM    7  C   UNL     1     -45.547  61.238 -51.611  1.00  0.00     0.087 A 
HETATM    8  N   UNL     1     -45.259  60.306 -52.532  1.00  0.00    -0.357 N 
HETATM    9  C   UNL     1     -45.488  58.909 -52.194  1.00  0.00     0.243 C 
HETATM   10  N   UNL     1     -45.641  58.559 -50.772  1.00  0.00    -0.235 NA
HETATM   11  C   UNL     1     -45.789  59.525 -49.949  1.00  0.00     0.173 C 
HETATM   12  S   UNL     1     -45.593  62.909 -51.909  1.00  0.00    -0.074 SA
HETATM   13  C   UNL     1     -46.284  62.156 -48.027  1.00  0.00     0.068 C 
HETATM   14  C   UNL     1     -46.708  63.567 -47.578  1.00  0.00     0.240 C 
HETATM   15  H   UNL     1     -45.221  60.518 -53.525  1.00  0.00     0.162 HD
ENDROOT
BRANCH   9  16
HETATM   16  C   UNL     1     -44.369  58.062 -52.785  1.00  0.00    -0.012 A 
HETATM   17  C   UNL     1     -43.115  57.962 -52.143  1.00  0.00     0.050 A 
HETATM   18  C   UNL     1     -42.117  57.118 -52.636  1.00  0.00     0.103 A 
HETATM   19  C   UNL     1     -42.394  56.355 -53.775  1.00  0.00     0.112 A 
HETATM   20  C   UNL     1     -43.631  56.426 -54.420  1.00  0.00     0.041 A 
HETATM   21  C   UNL     1     -44.612  57.284 -53.929  1.00  0.00     0.014 A 
BRANCH  18  22
HETATM   22  O   UNL     1     -40.882  56.946 -52.071  1.00  0.00    -0.349 OA
BRANCH  22  23
HETATM   23  C   UNL     1     -40.557  57.774 -50.957  1.00  0.00     0.171 C 
HETATM   24  C   UNL     1     -39.743  58.950 -51.464  1.00  0.00     0.034 C 
ENDBRANCH  22  23
ENDBRANCH  18  22
BRANCH  19  25
HETATM   25  O   UNL     1     -41.449  55.402 -54.189  1.00  0.00    -0.272 OA
BRANCH  25  26
HETATM   26  C   UNL     1     -41.930  54.134 -54.447  1.00  0.00     0.298 C 
HETATM   27  O   UNL     1     -42.900  53.836 -55.127  1.00  0.00    -0.259 OA
BRANCH  26  28
HETATM   28  C   UNL     1     -41.113  53.139 -53.696  1.00  0.00     0.039 A 
HETATM   29  C   UNL     1     -40.904  53.355 -52.327  1.00  0.00     0.017 A 
HETATM   30  C   UNL     1     -40.115  52.471 -51.587  1.00  0.00     0.001 A 
HETATM   31  C   UNL     1     -39.537  51.366 -52.208  1.00  0.00     0.000 A 
HETATM   32  C   UNL     1     -39.749  51.137 -53.567  1.00  0.00     0.001 A 
HETATM   33  C   UNL     1     -40.536  52.019 -54.311  1.00  0.00     0.017 A 
ENDBRANCH  26  28
ENDBRANCH  25  26
ENDBRANCH  19  25
ENDBRANCH   9  16
BRANCH  11  34
HETATM   34  O   UNL     1     -45.935  59.231 -48.646  1.00  0.00    -0.344 OA
HETATM   35  H   UNL     1     -45.096  59.476 -48.215  1.00  0.00     0.219 HD
ENDBRANCH  11  34
BRANCH   1  36
HETATM   36  C   UNL     1     -44.406  64.682 -47.876  1.00  0.00     0.231 C 
HETATM   37  C   UNL     1     -43.537  64.772 -49.117  1.00  0.00     0.034 C 
ENDBRANCH   1  36
TORSDOF 8
ENDMDL
MODEL 6
REMARK VINA RESULT:      -7.4      5.606      9.821
REMARK  8 active torsions:
REMARK  status: ('A' for Active; 'I' for Inactive)
REMARK    1  A    between atoms: C_2  and  N_3 
REMARK    2  A    between atoms: C_11  and  C_12 
REMARK    3  A    between atoms: C_14  and  O_15 
REMARK    4  A    between atoms: O_15  and  C_16 
REMARK    5  A    between atoms: C_18  and  O_19 
REMARK    6  A    between atoms: O_19  and  C_20 
REMARK    7  A    between atoms: C_20  and  C_21 
REMARK    8  A    between atoms: C_31  and  O_32 
ROOT
HETATM    1  N   UNL     1     -41.414  54.440 -49.814  1.00  0.00    -0.067 N 
HETATM    2  H   UNL     1     -41.299  54.200 -48.822  1.00  0.00     0.280 HD
HETATM    3  C   UNL     1     -41.360  55.970 -49.876  1.00  0.00     0.281 C 
HETATM    4  C   UNL     1     -41.902  56.461 -51.173  1.00  0.00     0.018 A 
HETATM    5  C   UNL     1     -42.730  55.736 -52.013  1.00  0.00    -0.024 A 
HETATM    6  C   UNL     1     -43.055  56.489 -53.187  1.00  0.00     0.057 A 
HETATM    7  C   UNL     1     -42.458  57.727 -53.178  1.00  0.00     0.087 A 
HETATM    8  N   UNL     1     -42.578  58.589 -54.200  1.00  0.00    -0.357 N 
HETATM    9  C   UNL     1     -43.577  58.313 -55.222  1.00  0.00     0.243 C 
HETATM   10  N   UNL     1     -44.120  56.946 -55.305  1.00  0.00    -0.235 NA
HETATM   11  C   UNL     1     -43.850  56.156 -54.338  1.00  0.00     0.173 C 
HETATM   12  S   UNL     1     -41.545  58.012 -51.776  1.00  0.00    -0.074 SA
HETATM   13  C   UNL     1     -43.143  54.330 -51.687  1.00  0.00     0.068 C 
HETATM   14  C   UNL     1     -42.802  53.953 -50.233  1.00  0.00     0.240 C 
HETATM   15  H   UNL     1     -42.273  59.556 -54.132  1.00  0.00     0.162 HD
ENDROOT
BRANCH   9  16
HETATM   16  C   UNL     1     -43.017  58.696 -56.584  1.00  0.00    -0.012 A 
HETATM   17  C   UNL     1     -43.473  58.066 -57.762  1.00  0.00     0.050 A 
HETATM   18  C   UNL     1     -43.025  58.476 -59.021  1.00  0.00     0.103 A 
HETATM   19  C   UNL     1     -42.123  59.544 -59.091  1.00  0.00     0.112 A 
HETATM   20  C   UNL     1     -41.668  60.192 -57.940  1.00  0.00     0.041 A 
HETATM   21  C   UNL     1     -42.109  59.763 -56.691  1.00  0.00     0.014 A 
BRANCH  18  22
HETATM   22  O   UNL     1     -43.424  57.936 -60.214  1.00  0.00    -0.349 OA
BRANCH  22  23
HETATM   23  C   UNL     1     -44.659  57.223 -60.221  1.00  0.00     0.171 C 
HETATM   24  C   UNL     1     -44.360  55.761 -60.496  1.00  0.00     0.034 C 
ENDBRANCH  22  23
ENDBRANCH  18  22
BRANCH  19  25
HETATM   25  O   UNL     1     -41.782  60.051 -60.355  1.00  0.00    -0.272 OA
BRANCH  25  26
HETATM   26  C   UNL     1     -42.198  61.338 -60.631  1.00  0.00     0.298 C 
HETATM   27  O   UNL     1     -43.348  61.739 -60.724  1.00  0.00    -0.259 OA
BRANCH  26  28
HETATM   28  C   UNL     1     -41.004  62.193 -60.883  1.00  0.00     0.039 A 
HETATM   29  C   UNL     1     -40.627  62.427 -62.212  1.00  0.00     0.017 A 
HETATM   30  C   UNL     1     -39.493  63.192 -62.499  1.00  0.00     0.001 A 
HETATM   31  C   UNL     1     -38.735  63.731 -61.461  1.00  0.00     0.000 A 
HETATM   32  C   UNL     1     -39.109  63.513 -60.136  1.00  0.00     0.001 A 
HETATM   33  C   UNL     1     -40.242  62.748 -59.844  1.00  0.00     0.017 A 
ENDBRANCH  26  28
ENDBRANCH  25  26
ENDBRANCH  19  25
ENDBRANCH   9  16
BRANCH  11  34
HETATM   34  O   UNL     1     -44.339  54.904 -54.389  1.00  0.00    -0.344 OA
HETATM   35  H   UNL     1     -44.490  54.632 -53.466  1.00  0.00     0.219 HD
ENDBRANCH  11  34
BRANCH   1  36
HETATM   36  C   UNL     1     -40.250  53.812 -50.551  1.00  0.00     0.231 C 
HETATM   37  C   UNL     1     -40.279  52.300 -50.429  1.00  0.00     0.034 C 
ENDBRANCH   1  36
TORSDOF 8
ENDMDL
MODEL 7
REMARK VINA RESULT:      -7.3      3.615     10.141
REMARK  8 active torsions:
REMARK  status: ('A' for Active; 'I' for Inactive)
REMARK    1  A    between atoms: C_2  and  N_3 
REMARK    2  A    between atoms: C_11  and  C_12 
REMARK    3  A    between atoms: C_14  and  O_15 
REMARK    4  A    between atoms: O_15  and  C_16 
REMARK    5  A    between atoms: C_18  and  O_19 
REMARK    6  A    between atoms: O_19  and  C_20 
REMARK    7  A    between atoms: C_20  and  C_21 
REMARK    8  A    between atoms: C_31  and  O_32 
ROOT
HETATM    1  N   UNL     1     -41.655  53.996 -54.575  1.00  0.00    -0.067 N 
HETATM    2  H   UNL     1     -41.573  53.164 -55.172  1.00  0.00     0.280 HD
HETATM    3  C   UNL     1     -42.960  54.679 -54.996  1.00  0.00     0.281 C 
HETATM    4  C   UNL     1     -43.001  56.082 -54.500  1.00  0.00     0.018 A 
HETATM    5  C   UNL     1     -41.895  56.821 -54.114  1.00  0.00    -0.024 A 
HETATM    6  C   UNL     1     -42.281  58.126 -53.670  1.00  0.00     0.057 A 
HETATM    7  C   UNL     1     -43.642  58.304 -53.735  1.00  0.00     0.087 A 
HETATM    8  N   UNL     1     -44.239  59.432 -53.322  1.00  0.00    -0.357 N 
HETATM    9  C   UNL     1     -43.405  60.592 -53.045  1.00  0.00     0.243 C 
HETATM   10  N   UNL     1     -41.962  60.374 -52.851  1.00  0.00    -0.235 NA
HETATM   11  C   UNL     1     -41.503  59.223 -53.160  1.00  0.00     0.173 C 
HETATM   12  S   UNL     1     -44.458  56.948 -54.349  1.00  0.00    -0.074 SA
HETATM   13  C   UNL     1     -40.513  56.235 -54.138  1.00  0.00     0.068 C 
HETATM   14  C   UNL     1     -40.466  54.900 -54.904  1.00  0.00     0.240 C 
HETATM   15  H   UNL     1     -45.218  59.629 -53.511  1.00  0.00     0.162 HD
ENDROOT
BRANCH   9  16
HETATM   16  C   UNL     1     -43.954  61.323 -51.827  1.00  0.00    -0.012 A 
HETATM   17  C   UNL     1     -45.299  61.749 -51.779  1.00  0.00     0.050 A 
HETATM   18  C   UNL     1     -45.828  62.341 -50.630  1.00  0.00     0.103 A 
HETATM   19  C   UNL     1     -44.997  62.488 -49.514  1.00  0.00     0.112 A 
HETATM   20  C   UNL     1     -43.667  62.062 -49.532  1.00  0.00     0.041 A 
HETATM   21  C   UNL     1     -43.147  61.489 -50.690  1.00  0.00     0.014 A 
BRANCH  18  22
HETATM   22  O   UNL     1     -47.121  62.768 -50.487  1.00  0.00    -0.349 OA
BRANCH  22  23
HETATM   23  C   UNL     1     -47.854  63.026 -51.684  1.00  0.00     0.171 C 
HETATM   24  C   UNL     1     -49.073  63.856 -51.321  1.00  0.00     0.034 C 
ENDBRANCH  22  23
ENDBRANCH  18  22
BRANCH  19  25
HETATM   25  O   UNL     1     -45.562  62.949 -48.314  1.00  0.00    -0.272 OA
BRANCH  25  26
HETATM   26  C   UNL     1     -45.964  61.983 -47.413  1.00  0.00     0.298 C 
HETATM   27  O   UNL     1     -46.731  61.055 -47.619  1.00  0.00    -0.259 OA
BRANCH  26  28
HETATM   28  C   UNL     1     -45.366  62.277 -46.081  1.00  0.00     0.039 A 
HETATM   29  C   UNL     1     -45.475  63.582 -45.581  1.00  0.00     0.017 A 
HETATM   30  C   UNL     1     -44.899  63.917 -44.353  1.00  0.00     0.001 A 
HETATM   31  C   UNL     1     -44.216  62.950 -43.617  1.00  0.00     0.000 A 
HETATM   32  C   UNL     1     -44.111  61.646 -44.102  1.00  0.00     0.001 A 
HETATM   33  C   UNL     1     -44.685  61.308 -45.330  1.00  0.00     0.017 A 
ENDBRANCH  26  28
ENDBRANCH  25  26
ENDBRANCH  19  25
ENDBRANCH   9  16
BRANCH  11  34
HETATM   34  O   UNL     1     -40.187  59.002 -52.996  1.00  0.00    -0.344 OA
HETATM   35  H   UNL     1     -39.765  59.221 -53.846  1.00  0.00     0.219 HD
ENDBRANCH  11  34
BRANCH   1  36
HETATM   36  C   UNL     1     -41.722  53.500 -53.145  1.00  0.00     0.231 C 
HETATM   37  C   UNL     1     -40.417  52.845 -52.732  1.00  0.00     0.034 C 
ENDBRANCH   1  36
TORSDOF 8
ENDMDL
MODEL 8
REMARK VINA RESULT:      -7.2      5.811      6.495
REMARK  8 active torsions:
REMARK  status: ('A' for Active; 'I' for Inactive)
REMARK    1  A    between atoms: C_2  and  N_3 
REMARK    2  A    between atoms: C_11  and  C_12 
REMARK    3  A    between atoms: C_14  and  O_15 
REMARK    4  A    between atoms: O_15  and  C_16 
REMARK    5  A    between atoms: C_18  and  O_19 
REMARK    6  A    between atoms: O_19  and  C_20 
REMARK    7  A    between atoms: C_20  and  C_21 
REMARK    8  A    between atoms: C_31  and  O_32 
ROOT
HETATM    1  N   UNL     1     -48.186  60.398 -61.837  1.00  0.00    -0.067 N 
HETATM    2  H   UNL     1     -48.956  60.892 -62.305  1.00  0.00     0.280 HD
HETATM    3  C   UNL     1     -48.654  60.178 -60.395  1.00  0.00     0.281 C 
HETATM    4  C   UNL     1     -47.502  59.835 -59.516  1.00  0.00     0.018 A 
HETATM    5  C   UNL     1     -46.174  60.099 -59.809  1.00  0.00    -0.024 A 
HETATM    6  C   UNL     1     -45.316  59.625 -58.765  1.00  0.00     0.057 A 
HETATM    7  C   UNL     1     -46.029  59.029 -57.753  1.00  0.00     0.087 A 
HETATM    8  N   UNL     1     -45.432  58.465 -56.691  1.00  0.00    -0.357 N 
HETATM    9  C   UNL     1     -44.015  58.723 -56.478  1.00  0.00     0.243 C 
HETATM   10  N   UNL     1     -43.231  59.244 -57.610  1.00  0.00    -0.235 NA
HETATM   11  C   UNL     1     -43.884  59.648 -58.631  1.00  0.00     0.173 C 
HETATM   12  S   UNL     1     -47.705  59.058 -58.017  1.00  0.00    -0.074 SA
HETATM   13  C   UNL     1     -45.770  60.751 -61.099  1.00  0.00     0.068 C 
HETATM   14  C   UNL     1     -46.978  61.336 -61.853  1.00  0.00     0.240 C 
HETATM   15  H   UNL     1     -45.953  58.166 -55.872  1.00  0.00     0.162 HD
ENDROOT
BRANCH   9  16
HETATM   16  C   UNL     1     -43.348  57.453 -55.969  1.00  0.00    -0.012 A 
HETATM   17  C   UNL     1     -43.040  57.292 -54.600  1.00  0.00     0.050 A 
HETATM   18  C   UNL     1     -42.507  56.094 -54.116  1.00  0.00     0.103 A 
HETATM   19  C   UNL     1     -42.302  55.044 -55.019  1.00  0.00     0.112 A 
HETATM   20  C   UNL     1     -42.612  55.175 -56.374  1.00  0.00     0.041 A 
HETATM   21  C   UNL     1     -43.125  56.380 -56.847  1.00  0.00     0.014 A 
BRANCH  18  22
HETATM   22  O   UNL     1     -42.194  55.842 -52.808  1.00  0.00    -0.349 OA
BRANCH  22  23
HETATM   23  C   UNL     1     -43.283  55.719 -51.894  1.00  0.00     0.171 C 
HETATM   24  C   UNL     1     -43.269  54.310 -51.330  1.00  0.00     0.034 C 
ENDBRANCH  22  23
ENDBRANCH  18  22
BRANCH  19  25
HETATM   25  O   UNL     1     -41.904  53.796 -54.515  1.00  0.00    -0.272 OA
BRANCH  25  26
HETATM   26  C   UNL     1     -40.563  53.488 -54.629  1.00  0.00     0.298 C 
HETATM   27  O   UNL     1     -39.739  54.030 -55.351  1.00  0.00    -0.259 OA
BRANCH  26  28
HETATM   28  C   UNL     1     -40.257  52.310 -53.770  1.00  0.00     0.039 A 
HETATM   29  C   UNL     1     -40.131  52.514 -52.389  1.00  0.00     0.017 A 
HETATM   30  C   UNL     1     -39.808  51.448 -51.546  1.00  0.00     0.001 A 
HETATM   31  C   UNL     1     -39.616  50.173 -52.076  1.00  0.00     0.000 A 
HETATM   32  C   UNL     1     -39.750  49.958 -53.447  1.00  0.00     0.001 A 
HETATM   33  C   UNL     1     -40.071  51.022 -54.295  1.00  0.00     0.017 A 
ENDBRANCH  26  28
ENDBRANCH  25  26
ENDBRANCH  19  25
ENDBRANCH   9  16
BRANCH  11  34
HETATM   34  O   UNL     1     -43.190  60.133 -59.675  1.00  0.00    -0.344 OA
HETATM   35  H   UNL     1     -43.454  61.066 -59.769  1.00  0.00     0.219 HD
ENDBRANCH  11  34
BRANCH   1  36
HETATM   36  C   UNL     1     -48.004  59.086 -62.570  1.00  0.00     0.231 C 
HETATM   37  C   UNL     1     -49.219  58.193 -62.401  1.00  0.00     0.034 C 
ENDBRANCH   1  36
TORSDOF 8
ENDMDL
MODEL 9
REMARK VINA RESULT:      -7.1      1.762      2.600
REMARK  8 active torsions:
REMARK  status: ('A' for Active; 'I' for Inactive)
REMARK    1  A    between atoms: C_2  and  N_3 
REMARK    2  A    between atoms: C_11  and  C_12 
REMARK    3  A    between atoms: C_14  and  O_15 
REMARK    4  A    between atoms: O_15  and  C_16 
REMARK    5  A    between atoms: C_18  and  O_19 
REMARK    6  A    between atoms: O_19  and  C_20 
REMARK    7  A    between atoms: C_20  and  C_21 
REMARK    8  A    between atoms: C_31  and  O_32 
ROOT
HETATM    1  N   UNL     1     -49.496  64.162 -51.982  1.00  0.00    -0.067 N 
HETATM    2  H   UNL     1     -50.214  64.866 -51.774  1.00  0.00     0.280 HD
HETATM    3  C   UNL     1     -48.684  64.007 -50.693  1.00  0.00     0.281 C 
HETATM    4  C   UNL     1     -47.388  63.327 -50.968  1.00  0.00     0.018 A 
HETATM    5  C   UNL     1     -46.785  63.239 -52.212  1.00  0.00    -0.024 A 
HETATM    6  C   UNL     1     -45.560  62.504 -52.136  1.00  0.00     0.057 A 
HETATM    7  C   UNL     1     -45.303  62.073 -50.856  1.00  0.00     0.087 A 
HETATM    8  N   UNL     1     -44.234  61.320 -50.553  1.00  0.00    -0.357 N 
HETATM    9  C   UNL     1     -43.185  61.179 -51.551  1.00  0.00     0.243 C 
HETATM   10  N   UNL     1     -43.507  61.524 -52.946  1.00  0.00    -0.235 NA
HETATM   11  C   UNL     1     -44.609  62.136 -53.152  1.00  0.00     0.173 C 
HETATM   12  S   UNL     1     -46.488  62.562 -49.743  1.00  0.00    -0.074 SA
HETATM   13  C   UNL     1     -47.429  63.819 -53.438  1.00  0.00     0.068 C 
HETATM   14  C   UNL     1     -48.610  64.742 -53.087  1.00  0.00     0.240 C 
HETATM   15  H   UNL     1     -43.958  61.133 -49.594  1.00  0.00     0.162 HD
ENDROOT
BRANCH   9  16
HETATM   16  C   UNL     1     -42.650  59.754 -51.515  1.00  0.00    -0.012 A 
HETATM   17  C   UNL     1     -43.521  58.647 -51.613  1.00  0.00     0.050 A 
HETATM   18  C   UNL     1     -43.026  57.341 -51.667  1.00  0.00     0.103 A 
HETATM   19  C   UNL     1     -41.639  57.154 -51.642  1.00  0.00     0.112 A 
HETATM   20  C   UNL     1     -40.757  58.233 -51.558  1.00  0.00     0.041 A 
HETATM   21  C   UNL     1     -41.263  59.528 -51.487  1.00  0.00     0.014 A 
BRANCH  18  22
HETATM   22  O   UNL     1     -43.792  56.212 -51.780  1.00  0.00    -0.349 OA
BRANCH  22  23
HETATM   23  C   UNL     1     -43.943  55.413 -50.608  1.00  0.00     0.171 C 
HETATM   24  C   UNL     1     -43.856  53.954 -51.017  1.00  0.00     0.034 C 
ENDBRANCH  22  23
ENDBRANCH  18  22
BRANCH  19  25
HETATM   25  O   UNL     1     -41.135  55.858 -51.840  1.00  0.00    -0.272 OA
BRANCH  25  26
HETATM   26  C   UNL     1     -40.987  55.452 -53.151  1.00  0.00     0.298 C 
HETATM   27  O   UNL     1     -41.216  56.106 -54.158  1.00  0.00    -0.259 OA
BRANCH  26  28
HETATM   28  C   UNL     1     -40.562  54.024 -53.176  1.00  0.00     0.039 A 
HETATM   29  C   UNL     1     -40.582  53.350 -54.404  1.00  0.00     0.017 A 
HETATM   30  C   UNL     1     -40.227  52.000 -54.472  1.00  0.00     0.001 A 
HETATM   31  C   UNL     1     -39.846  51.320 -53.316  1.00  0.00     0.000 A 
HETATM   32  C   UNL     1     -39.813  51.986 -52.092  1.00  0.00     0.001 A 
HETATM   33  C   UNL     1     -40.168  53.336 -52.019  1.00  0.00     0.017 A 
ENDBRANCH  26  28
ENDBRANCH  25  26
ENDBRANCH  19  25
ENDBRANCH   9  16
BRANCH  11  34
HETATM   34  O   UNL     1     -44.923  62.466 -54.416  1.00  0.00    -0.344 OA
HETATM   35  H   UNL     1     -44.135  62.270 -54.954  1.00  0.00     0.219 HD
ENDBRANCH  11  34
BRANCH   1  36
HETATM   36  C   UNL     1     -50.228  62.885 -52.336  1.00  0.00     0.231 C 
HETATM   37  C   UNL     1     -51.268  63.132 -53.413  1.00  0.00     0.034 C 
ENDBRANCH   1  36
TORSDOF 8
ENDMDL
MODEL 10
REMARK VINA RESULT:      -7.1      4.639      5.365
REMARK  8 active torsions:
REMARK  status: ('A' for Active; 'I' for Inactive)
REMARK    1  A    between atoms: C_2  and  N_3 
REMARK    2  A    between atoms: C_11  and  C_12 
REMARK    3  A    between atoms: C_14  and  O_15 
REMARK    4  A    between atoms: O_15  and  C_16 
REMARK    5  A    between atoms: C_18  and  O_19 
REMARK    6  A    between atoms: O_19  and  C_20 
REMARK    7  A    between atoms: C_20  and  C_21 
REMARK    8  A    between atoms: C_31  and  O_32 
ROOT
HETATM    1  N   UNL     1     -45.759  62.925 -60.273  1.00  0.00    -0.067 N 
HETATM    2  H   UNL     1     -46.286  63.574 -60.869  1.00  0.00     0.280 HD
HETATM    3  C   UNL     1     -46.683  61.722 -60.056  1.00  0.00     0.281 C 
HETATM    4  C   UNL     1     -46.213  60.899 -58.907  1.00  0.00     0.018 A 
HETATM    5  C   UNL     1     -45.366  61.344 -57.907  1.00  0.00    -0.024 A 
HETATM    6  C   UNL     1     -45.094  60.301 -56.965  1.00  0.00     0.057 A 
HETATM    7  C   UNL     1     -45.735  59.133 -57.300  1.00  0.00     0.087 A 
HETATM    8  N   UNL     1     -45.588  58.004 -56.590  1.00  0.00    -0.357 N 
HETATM    9  C   UNL     1     -44.944  58.087 -55.288  1.00  0.00     0.243 C 
HETATM   10  N   UNL     1     -44.152  59.290 -54.985  1.00  0.00    -0.235 NA
HETATM   11  C   UNL     1     -44.265  60.277 -55.789  1.00  0.00     0.173 C 
HETATM   12  S   UNL     1     -46.681  59.277 -58.703  1.00  0.00    -0.074 SA
HETATM   13  C   UNL     1     -44.807  62.738 -57.913  1.00  0.00     0.068 C 
HETATM   14  C   UNL     1     -45.516  63.638 -58.941  1.00  0.00     0.240 C 
HETATM   15  H   UNL     1     -46.176  57.189 -56.740  1.00  0.00     0.162 HD
ENDROOT
BRANCH   9  16
HETATM   16  C   UNL     1     -44.063  56.862 -55.088  1.00  0.00    -0.012 A 
HETATM   17  C   UNL     1     -43.943  56.250 -53.820  1.00  0.00     0.050 A 
HETATM   18  C   UNL     1     -43.205  55.076 -53.652  1.00  0.00     0.103 A 
HETATM   19  C   UNL     1     -42.598  54.505 -54.776  1.00  0.00     0.112 A 
HETATM   20  C   UNL     1     -42.713  55.083 -56.042  1.00  0.00     0.041 A 
HETATM   21  C   UNL     1     -43.437  56.263 -56.194  1.00  0.00     0.014 A 
BRANCH  18  22
HETATM   22  O   UNL     1     -43.049  54.406 -52.468  1.00  0.00    -0.349 OA
BRANCH  22  23
HETATM   23  C   UNL     1     -42.565  55.159 -51.357  1.00  0.00     0.171 C 
HETATM   24  C   UNL     1     -41.964  54.189 -50.356  1.00  0.00     0.034 C 
ENDBRANCH  22  23
ENDBRANCH  18  22
BRANCH  19  25
HETATM   25  O   UNL     1     -41.978  53.252 -54.639  1.00  0.00    -0.272 OA
BRANCH  25  26
HETATM   26  C   UNL     1     -40.603  53.260 -54.517  1.00  0.00     0.298 C 
HETATM   27  O   UNL     1     -39.821  54.058 -55.012  1.00  0.00    -0.259 OA
BRANCH  26  28
HETATM   28  C   UNL     1     -40.176  52.072 -53.725  1.00  0.00     0.039 A 
HETATM   29  C   UNL     1     -40.093  50.836 -54.380  1.00  0.00     0.017 A 
HETATM   30  C   UNL     1     -39.733  49.686 -53.673  1.00  0.00     0.001 A 
HETATM   31  C   UNL     1     -39.450  49.766 -52.310  1.00  0.00     0.000 A 
HETATM   32  C   UNL     1     -39.520  50.994 -51.652  1.00  0.00     0.001 A 
HETATM   33  C   UNL     1     -39.880  52.146 -52.356  1.00  0.00     0.017 A 
ENDBRANCH  26  28
ENDBRANCH  25  26
ENDBRANCH  19  25
ENDBRANCH   9  16
BRANCH  11  34
HETATM   34  O   UNL     1     -43.555  61.389 -55.530  1.00  0.00    -0.344 OA
HETATM   35  H   UNL     1     -43.484  61.447 -54.560  1.00  0.00     0.219 HD
ENDBRANCH  11  34
BRANCH   1  36
HETATM   36  C   UNL     1     -44.515  62.539 -61.044  1.00  0.00     0.231 C 
HETATM   37  C   UNL     1     -43.576  63.722 -61.192  1.00  0.00     0.034 C 
ENDBRANCH   1  36
TORSDOF 8
ENDMDL
