MODEL 1
REMARK VINA RESULT:      -9.0      0.000      0.000
REMARK  6 active torsions:
REMARK  status: ('A' for Active; 'I' for Inactive)
REMARK    1  A    between atoms: C_2  and  O_3 
REMARK    2  A    between atoms: O_3  and  C_4 
REMARK    3  A    between atoms: C_4  and  C_5 
REMARK    4  A    between atoms: C_10  and  N_11 
REMARK       I    between atoms: N_11  and  C_12 
REMARK    5  A    between atoms: C_12  and  C_13 
REMARK    6  A    between atoms: C_13  and  N_14 
ROOT
HETATM    1  N   UNL     1     -41.670  55.598 -54.778  1.00  0.00    -0.322 N 
HETATM    2  C   UNL     1     -42.968  55.710 -55.225  1.00  0.00     0.253 C 
HETATM    3  O   UNL     1     -43.943  55.343 -54.573  1.00  0.00    -0.271 OA
HETATM    4  H   UNL     1     -40.955  56.229 -55.135  1.00  0.00     0.169 HD
ENDROOT
BRANCH   2   5
HETATM    5  C   UNL     1     -43.167  56.327 -56.649  1.00  0.00     0.275 C 
HETATM    6  C   UNL     1     -42.968  55.298 -57.776  1.00  0.00     0.050 C 
BRANCH   5   7
HETATM    7  N   UNL     1     -42.245  57.570 -57.014  1.00  0.00    -0.058 N 
HETATM    8  H   UNL     1     -41.351  57.308 -56.580  1.00  0.00     0.281 HD
HETATM    9  C   UNL     1     -41.953  57.709 -58.508  1.00  0.00     0.246 C 
HETATM   10  C   UNL     1     -42.921  58.651 -59.255  1.00  0.00     0.062 C 
HETATM   11  C   UNL     1     -42.919  60.022 -58.591  1.00  0.00     0.020 C 
HETATM   12  C   UNL     1     -44.323  58.081 -59.313  1.00  0.00     0.020 A 
HETATM   13  C   UNL     1     -43.458  59.838 -57.178  1.00  0.00     0.031 C 
HETATM   14  C   UNL     1     -44.915  59.387 -57.265  1.00  0.00     0.138 C 
HETATM   15  C   UNL     1     -42.526  58.921 -56.378  1.00  0.00     0.242 C 
HETATM   16  N   UNL     1     -45.214  58.371 -58.276  1.00  0.00    -0.317 N 
HETATM   17  C   UNL     1     -46.521  57.859 -58.250  1.00  0.00     0.247 A 
HETATM   18  O   UNL     1     -47.335  58.089 -57.361  1.00  0.00    -0.268 OA
HETATM   19  C   UNL     1     -46.903  56.972 -59.376  1.00  0.00     0.074 A 
HETATM   20  C   UNL     1     -46.031  56.720 -60.358  1.00  0.00     0.007 A 
HETATM   21  C   UNL     1     -44.711  57.289 -60.329  1.00  0.00     0.026 A 
ENDBRANCH   5   7
ENDBRANCH   2   5
BRANCH   1  22
HETATM   22  C   UNL     1     -41.243  54.885 -53.657  1.00  0.00     0.080 A 
HETATM   23  C   UNL     1     -41.266  55.477 -52.400  1.00  0.00     0.137 A 
HETATM   24  N   UNL     1     -40.801  54.548 -51.503  1.00  0.00    -0.349 N 
HETATM   25  H   UNL     1     -40.719  54.707 -50.506  1.00  0.00     0.166 HD
HETATM   26  C   UNL     1     -40.438  53.389 -52.143  1.00  0.00     0.045 A 
HETATM   27  C   UNL     1     -40.691  53.569 -53.509  1.00  0.00     0.023 A 
HETATM   28  C   UNL     1     -39.894  52.214 -51.607  1.00  0.00     0.033 A 
HETATM   29  C   UNL     1     -40.334  52.515 -54.378  1.00  0.00     0.058 A 
HETATM   30  C   UNL     1     -39.795  51.340 -53.851  1.00  0.00     0.117 A 
HETATM   31  C   UNL     1     -39.580  51.183 -52.492  1.00  0.00     0.044 A 
HETATM   32  F   UNL     1     -39.470  50.342 -54.684  1.00  0.00    -0.206 F 
BRANCH  23  33
HETATM   33  C   UNL     1     -41.716  56.801 -52.047  1.00  0.00     0.312 C 
HETATM   34  O   UNL     1     -41.437  57.808 -52.689  1.00  0.00    -0.258 OA
BRANCH  33  35
HETATM   35  O   UNL     1     -42.485  56.752 -50.928  1.00  0.00    -0.317 OA
BRANCH  35  36
HETATM   36  C   UNL     1     -43.859  56.387 -51.125  1.00  0.00     0.175 C 
HETATM   37  C   UNL     1     -44.716  57.628 -51.287  1.00  0.00     0.034 C 
ENDBRANCH  35  36
ENDBRANCH  33  35
ENDBRANCH  23  33
ENDBRANCH   1  22
TORSDOF 6
ENDMDL
MODEL 2
REMARK VINA RESULT:      -8.6      1.929      3.263
REMARK  6 active torsions:
REMARK  status: ('A' for Active; 'I' for Inactive)
REMARK    1  A    between atoms: C_2  and  O_3 
REMARK    2  A    between atoms: O_3  and  C_4 
REMARK    3  A    between atoms: C_4  and  C_5 
REMARK    4  A    between atoms: C_10  and  N_11 
REMARK       I    between atoms: N_11  and  C_12 
REMARK    5  A    between atoms: C_12  and  C_13 
REMARK    6  A    between atoms: C_13  and  N_14 
ROOT
HETATM    1  N   UNL     1     -43.606  56.064 -54.198  1.00  0.00    -0.322 N 
HETATM    2  C   UNL     1     -43.011  56.787 -55.209  1.00  0.00     0.253 C 
HETATM    3  O   UNL     1     -41.795  56.841 -55.377  1.00  0.00    -0.271 OA
HETATM    4  H   UNL     1     -44.561  55.730 -54.309  1.00  0.00     0.169 HD
ENDROOT
BRANCH   2   5
HETATM    5  C   UNL     1     -43.969  57.579 -56.160  1.00  0.00     0.275 C 
HETATM    6  C   UNL     1     -45.302  57.950 -55.487  1.00  0.00     0.050 C 
BRANCH   5   7
HETATM    7  N   UNL     1     -44.345  56.869 -57.532  1.00  0.00    -0.058 N 
HETATM    8  H   UNL     1     -44.792  56.001 -57.208  1.00  0.00     0.281 HD
HETATM    9  C   UNL     1     -45.414  57.606 -58.339  1.00  0.00     0.246 C 
HETATM   10  C   UNL     1     -44.847  58.576 -59.398  1.00  0.00     0.062 C 
HETATM   11  C   UNL     1     -43.909  57.825 -60.333  1.00  0.00     0.020 C 
HETATM   12  C   UNL     1     -44.143  59.753 -58.758  1.00  0.00     0.020 A 
HETATM   13  C   UNL     1     -42.739  57.328 -59.494  1.00  0.00     0.031 C 
HETATM   14  C   UNL     1     -41.968  58.537 -58.966  1.00  0.00     0.138 C 
HETATM   15  C   UNL     1     -43.238  56.344 -58.431  1.00  0.00     0.242 C 
HETATM   16  N   UNL     1     -42.780  59.649 -58.466  1.00  0.00    -0.317 N 
HETATM   17  C   UNL     1     -42.066  60.690 -57.851  1.00  0.00     0.247 A 
HETATM   18  O   UNL     1     -40.871  60.640 -57.579  1.00  0.00    -0.268 OA
HETATM   19  C   UNL     1     -42.841  61.906 -57.506  1.00  0.00     0.074 A 
HETATM   20  C   UNL     1     -44.142  61.980 -57.806  1.00  0.00     0.007 A 
HETATM   21  C   UNL     1     -44.810  60.880 -58.449  1.00  0.00     0.026 A 
ENDBRANCH   5   7
ENDBRANCH   2   5
BRANCH   1  22
HETATM   22  C   UNL     1     -42.956  55.475 -53.113  1.00  0.00     0.080 A 
HETATM   23  C   UNL     1     -43.171  55.949 -51.825  1.00  0.00     0.137 A 
HETATM   24  N   UNL     1     -42.413  55.182 -50.976  1.00  0.00    -0.349 N 
HETATM   25  H   UNL     1     -42.384  55.300 -49.970  1.00  0.00     0.166 HD
HETATM   26  C   UNL     1     -41.682  54.254 -51.676  1.00  0.00     0.045 A 
HETATM   27  C   UNL     1     -41.990  54.418 -53.033  1.00  0.00     0.023 A 
HETATM   28  C   UNL     1     -40.769  53.303 -51.200  1.00  0.00     0.033 A 
HETATM   29  C   UNL     1     -41.301  53.600 -53.955  1.00  0.00     0.058 A 
HETATM   30  C   UNL     1     -40.392  52.648 -53.489  1.00  0.00     0.117 A 
HETATM   31  C   UNL     1     -40.129  52.494 -52.138  1.00  0.00     0.044 A 
HETATM   32  F   UNL     1     -39.753  51.870 -54.373  1.00  0.00    -0.206 F 
BRANCH  23  33
HETATM   33  C   UNL     1     -44.042  57.019 -51.404  1.00  0.00     0.312 C 
HETATM   34  O   UNL     1     -44.952  56.877 -50.593  1.00  0.00    -0.258 OA
BRANCH  33  35
HETATM   35  O   UNL     1     -43.695  58.177 -52.025  1.00  0.00    -0.317 OA
BRANCH  35  36
HETATM   36  C   UNL     1     -42.497  58.810 -51.550  1.00  0.00     0.175 C 
HETATM   37  C   UNL     1     -41.616  59.211 -52.718  1.00  0.00     0.034 C 
ENDBRANCH  35  36
ENDBRANCH  33  35
ENDBRANCH  23  33
ENDBRANCH   1  22
TORSDOF 6
ENDMDL
MODEL 3
REMARK VINA RESULT:      -8.4      2.020      3.264
REMARK  6 active torsions:
REMARK  status: ('A' for Active; 'I' for Inactive)
REMARK    1  A    between atoms: C_2  and  O_3 
REMARK    2  A    between atoms: O_3  and  C_4 
REMARK    3  A    between atoms: C_4  and  C_5 
REMARK    4  A    between atoms: C_10  and  N_11 
REMARK       I    between atoms: N_11  and  C_12 
REMARK    5  A    between atoms: C_12  and  C_13 
REMARK    6  A    between atoms: C_13  and  N_14 
ROOT
HETATM    1  N   UNL     1     -41.033  54.900 -52.587  1.00  0.00    -0.322 N 
HETATM    2  C   UNL     1     -42.161  55.139 -53.340  1.00  0.00     0.253 C 
HETATM    3  O   UNL     1     -43.092  54.344 -53.438  1.00  0.00    -0.271 OA
HETATM    4  H   UNL     1     -40.493  55.681 -52.221  1.00  0.00     0.169 HD
ENDROOT
BRANCH   2   5
HETATM    5  C   UNL     1     -42.212  56.502 -54.110  1.00  0.00     0.275 C 
HETATM    6  C   UNL     1     -40.813  57.058 -54.426  1.00  0.00     0.050 C 
BRANCH   5   7
HETATM    7  N   UNL     1     -43.011  57.681 -53.404  1.00  0.00    -0.058 N 
HETATM    8  H   UNL     1     -42.767  57.543 -52.415  1.00  0.00     0.281 HD
HETATM    9  C   UNL     1     -42.502  59.077 -53.762  1.00  0.00     0.246 C 
HETATM   10  C   UNL     1     -43.253  59.739 -54.938  1.00  0.00     0.062 C 
HETATM   11  C   UNL     1     -44.745  59.787 -54.634  1.00  0.00     0.020 C 
HETATM   12  C   UNL     1     -42.991  59.020 -56.245  1.00  0.00     0.020 A 
HETATM   13  C   UNL     1     -45.230  58.347 -54.534  1.00  0.00     0.031 C 
HETATM   14  C   UNL     1     -45.075  57.682 -55.901  1.00  0.00     0.138 C 
HETATM   15  C   UNL     1     -44.530  57.638 -53.369  1.00  0.00     0.242 C 
HETATM   16  N   UNL     1     -43.828  57.963 -56.614  1.00  0.00    -0.317 N 
HETATM   17  C   UNL     1     -43.631  57.234 -57.799  1.00  0.00     0.247 A 
HETATM   18  O   UNL     1     -44.341  56.302 -58.160  1.00  0.00    -0.268 OA
HETATM   19  C   UNL     1     -42.472  57.635 -58.633  1.00  0.00     0.074 A 
HETATM   20  C   UNL     1     -41.696  58.656 -58.258  1.00  0.00     0.007 A 
HETATM   21  C   UNL     1     -41.961  59.368 -57.037  1.00  0.00     0.026 A 
ENDBRANCH   5   7
ENDBRANCH   2   5
BRANCH   1  22
HETATM   22  C   UNL     1     -40.672  53.683 -52.008  1.00  0.00     0.080 A 
HETATM   23  C   UNL     1     -40.578  53.564 -50.626  1.00  0.00     0.137 A 
HETATM   24  N   UNL     1     -40.216  52.270 -50.352  1.00  0.00    -0.349 N 
HETATM   25  H   UNL     1     -40.084  51.899 -49.418  1.00  0.00     0.166 HD
HETATM   26  C   UNL     1     -40.031  51.557 -51.510  1.00  0.00     0.045 A 
HETATM   27  C   UNL     1     -40.298  52.421 -52.579  1.00  0.00     0.023 A 
HETATM   28  C   UNL     1     -39.634  50.222 -51.676  1.00  0.00     0.033 A 
HETATM   29  C   UNL     1     -40.112  51.914 -53.884  1.00  0.00     0.058 A 
HETATM   30  C   UNL     1     -39.720  50.586 -54.058  1.00  0.00     0.117 A 
HETATM   31  C   UNL     1     -39.488  49.748 -52.979  1.00  0.00     0.044 A 
HETATM   32  F   UNL     1     -39.557  50.111 -55.300  1.00  0.00    -0.206 F 
BRANCH  23  33
HETATM   33  C   UNL     1     -40.836  54.572 -49.627  1.00  0.00     0.312 C 
HETATM   34  O   UNL     1     -41.391  54.343 -48.557  1.00  0.00    -0.258 OA
BRANCH  33  35
HETATM   35  O   UNL     1     -40.372  55.778 -50.047  1.00  0.00    -0.317 OA
BRANCH  35  36
HETATM   36  C   UNL     1     -41.329  56.848 -50.064  1.00  0.00     0.175 C 
HETATM   37  C   UNL     1     -40.695  58.112 -50.612  1.00  0.00     0.034 C 
ENDBRANCH  35  36
ENDBRANCH  33  35
ENDBRANCH  23  33
ENDBRANCH   1  22
TORSDOF 6
ENDMDL
MODEL 4
REMARK VINA RESULT:      -8.2      2.492      4.036
REMARK  6 active torsions:
REMARK  status: ('A' for Active; 'I' for Inactive)
REMARK    1  A    between atoms: C_2  and  O_3 
REMARK    2  A    between atoms: O_3  and  C_4 
REMARK    3  A    between atoms: C_4  and  C_5 
REMARK    4  A    between atoms: C_10  and  N_11 
REMARK       I    between atoms: N_11  and  C_12 
REMARK    5  A    between atoms: C_12  and  C_13 
REMARK    6  A    between atoms: C_13  and  N_14 
ROOT
HETATM    1  N   UNL     1     -41.820  56.318 -55.057  1.00  0.00    -0.322 N 
HETATM    2  C   UNL     1     -42.983  56.809 -55.608  1.00  0.00     0.253 C 
HETATM    3  O   UNL     1     -43.884  57.317 -54.947  1.00  0.00    -0.271 OA
HETATM    4  H   UNL     1     -40.973  56.270 -55.620  1.00  0.00     0.169 HD
ENDROOT
BRANCH   2   5
HETATM    5  C   UNL     1     -43.130  56.676 -57.161  1.00  0.00     0.275 C 
HETATM    6  C   UNL     1     -43.001  55.223 -57.649  1.00  0.00     0.050 C 
BRANCH   5   7
HETATM    7  N   UNL     1     -42.121  57.533 -58.041  1.00  0.00    -0.058 N 
HETATM    8  H   UNL     1     -41.225  57.362 -57.567  1.00  0.00     0.281 HD
HETATM    9  C   UNL     1     -41.939  57.008 -59.466  1.00  0.00     0.246 C 
HETATM   10  C   UNL     1     -42.866  57.674 -60.505  1.00  0.00     0.062 C 
HETATM   11  C   UNL     1     -42.671  59.184 -60.475  1.00  0.00     0.020 C 
HETATM   12  C   UNL     1     -44.318  57.312 -60.275  1.00  0.00     0.020 A 
HETATM   13  C   UNL     1     -43.108  59.667 -59.098  1.00  0.00     0.031 C 
HETATM   14  C   UNL     1     -44.605  59.407 -58.941  1.00  0.00     0.138 C 
HETATM   15  C   UNL     1     -42.211  59.050 -58.018  1.00  0.00     0.242 C 
HETATM   16  N   UNL     1     -45.088  58.112 -59.426  1.00  0.00    -0.317 N 
HETATM   17  C   UNL     1     -46.433  57.824 -59.145  1.00  0.00     0.247 A 
HETATM   18  O   UNL     1     -47.143  58.500 -58.408  1.00  0.00    -0.268 OA
HETATM   19  C   UNL     1     -46.994  56.609 -59.785  1.00  0.00     0.074 A 
HETATM   20  C   UNL     1     -46.235  55.869 -60.600  1.00  0.00     0.007 A 
HETATM   21  C   UNL     1     -44.866  56.228 -60.854  1.00  0.00     0.026 A 
ENDBRANCH   5   7
ENDBRANCH   2   5
BRANCH   1  22
HETATM   22  C   UNL     1     -41.569  56.126 -53.698  1.00  0.00     0.080 A 
HETATM   23  C   UNL     1     -41.496  54.841 -53.173  1.00  0.00     0.137 A 
HETATM   24  N   UNL     1     -41.237  54.963 -51.831  1.00  0.00    -0.349 N 
HETATM   25  H   UNL     1     -41.122  54.180 -51.198  1.00  0.00     0.166 HD
HETATM   26  C   UNL     1     -41.181  56.284 -51.461  1.00  0.00     0.045 A 
HETATM   27  C   UNL     1     -41.400  57.050 -52.613  1.00  0.00     0.023 A 
HETATM   28  C   UNL     1     -40.969  56.840 -50.192  1.00  0.00     0.033 A 
HETATM   29  C   UNL     1     -41.447  58.452 -52.458  1.00  0.00     0.058 A 
HETATM   30  C   UNL     1     -41.234  59.015 -51.199  1.00  0.00     0.117 A 
HETATM   31  C   UNL     1     -40.994  58.230 -50.082  1.00  0.00     0.044 A 
HETATM   32  F   UNL     1     -41.269  60.348 -51.065  1.00  0.00    -0.206 F 
BRANCH  23  33
HETATM   33  C   UNL     1     -41.626  53.586 -53.872  1.00  0.00     0.312 C 
HETATM   34  O   UNL     1     -42.381  53.411 -54.822  1.00  0.00    -0.258 OA
BRANCH  33  35
HETATM   35  O   UNL     1     -40.794  52.659 -53.328  1.00  0.00    -0.317 OA
BRANCH  35  36
HETATM   36  C   UNL     1     -39.938  51.966 -54.249  1.00  0.00     0.175 C 
HETATM   37  C   UNL     1     -40.233  50.478 -54.224  1.00  0.00     0.034 C 
ENDBRANCH  35  36
ENDBRANCH  33  35
ENDBRANCH  23  33
ENDBRANCH   1  22
TORSDOF 6
ENDMDL
MODEL 5
REMARK VINA RESULT:      -8.2      1.854      2.357
REMARK  6 active torsions:
REMARK  status: ('A' for Active; 'I' for Inactive)
REMARK    1  A    between atoms: C_2  and  O_3 
REMARK    2  A    between atoms: O_3  and  C_4 
REMARK    3  A    between atoms: C_4  and  C_5 
REMARK    4  A    between atoms: C_10  and  N_11 
REMARK       I    between atoms: N_11  and  C_12 
REMARK    5  A    between atoms: C_12  and  C_13 
REMARK    6  A    between atoms: C_13  and  N_14 
ROOT
HETATM    1  N   UNL     1     -41.897  56.929 -54.833  1.00  0.00    -0.322 N 
HETATM    2  C   UNL     1     -43.141  56.905 -55.423  1.00  0.00     0.253 C 
HETATM    3  O   UNL     1     -44.191  57.016 -54.795  1.00  0.00    -0.271 OA
HETATM    4  H   UNL     1     -41.085  57.218 -55.374  1.00  0.00     0.169 HD
ENDROOT
BRANCH   2   5
HETATM    5  C   UNL     1     -43.175  56.706 -56.975  1.00  0.00     0.275 C 
HETATM    6  C   UNL     1     -42.962  55.240 -57.391  1.00  0.00     0.050 C 
BRANCH   5   7
HETATM    7  N   UNL     1     -42.136  57.564 -57.819  1.00  0.00    -0.058 N 
HETATM    8  H   UNL     1     -41.262  57.411 -57.300  1.00  0.00     0.281 HD
HETATM    9  C   UNL     1     -41.880  57.022 -59.225  1.00  0.00     0.246 C 
HETATM   10  C   UNL     1     -42.764  57.661 -60.317  1.00  0.00     0.062 C 
HETATM   11  C   UNL     1     -42.591  59.174 -60.299  1.00  0.00     0.020 C 
HETATM   12  C   UNL     1     -44.221  57.282 -60.150  1.00  0.00     0.020 A 
HETATM   13  C   UNL     1     -43.099  59.669 -58.952  1.00  0.00     0.031 C 
HETATM   14  C   UNL     1     -44.599  59.391 -58.862  1.00  0.00     0.138 C 
HETATM   15  C   UNL     1     -42.247  59.080 -57.822  1.00  0.00     0.242 C 
HETATM   16  N   UNL     1     -45.041  58.083 -59.350  1.00  0.00    -0.317 N 
HETATM   17  C   UNL     1     -46.394  57.781 -59.129  1.00  0.00     0.247 A 
HETATM   18  O   UNL     1     -47.147  58.457 -58.437  1.00  0.00    -0.268 OA
HETATM   19  C   UNL     1     -46.908  56.550 -59.778  1.00  0.00     0.074 A 
HETATM   20  C   UNL     1     -46.102  55.809 -60.545  1.00  0.00     0.007 A 
HETATM   21  C   UNL     1     -44.727  56.183 -60.739  1.00  0.00     0.026 A 
ENDBRANCH   5   7
ENDBRANCH   2   5
BRANCH   1  22
HETATM   22  C   UNL     1     -41.633  56.870 -53.463  1.00  0.00     0.080 A 
HETATM   23  C   UNL     1     -41.626  58.031 -52.700  1.00  0.00     0.137 A 
HETATM   24  N   UNL     1     -41.347  57.667 -51.407  1.00  0.00    -0.349 N 
HETATM   25  H   UNL     1     -41.289  58.315 -50.631  1.00  0.00     0.166 HD
HETATM   26  C   UNL     1     -41.131  56.314 -51.315  1.00  0.00     0.045 A 
HETATM   27  C   UNL     1     -41.290  55.778 -52.599  1.00  0.00     0.023 A 
HETATM   28  C   UNL     1     -40.793  55.545 -50.193  1.00  0.00     0.033 A 
HETATM   29  C   UNL     1     -41.054  54.395 -52.756  1.00  0.00     0.058 A 
HETATM   30  C   UNL     1     -40.720  53.621 -51.643  1.00  0.00     0.117 A 
HETATM   31  C   UNL     1     -40.595  54.178 -50.381  1.00  0.00     0.044 A 
HETATM   32  F   UNL     1     -40.509  52.307 -51.802  1.00  0.00    -0.206 F 
BRANCH  23  33
HETATM   33  C   UNL     1     -41.891  59.382 -53.131  1.00  0.00     0.312 C 
HETATM   34  O   UNL     1     -41.230  59.966 -53.983  1.00  0.00    -0.258 OA
BRANCH  33  35
HETATM   35  O   UNL     1     -42.965  59.884 -52.467  1.00  0.00    -0.317 OA
BRANCH  35  36
HETATM   36  C   UNL     1     -42.716  61.040 -51.654  1.00  0.00     0.175 C 
HETATM   37  C   UNL     1     -43.237  60.816 -50.247  1.00  0.00     0.034 C 
ENDBRANCH  35  36
ENDBRANCH  33  35
ENDBRANCH  23  33
ENDBRANCH   1  22
TORSDOF 6
ENDMDL
MODEL 6
REMARK VINA RESULT:      -8.1      2.638      4.283
REMARK  6 active torsions:
REMARK  status: ('A' for Active; 'I' for Inactive)
REMARK    1  A    between atoms: C_2  and  O_3 
REMARK    2  A    between atoms: O_3  and  C_4 
REMARK    3  A    between atoms: C_4  and  C_5 
REMARK    4  A    between atoms: C_10  and  N_11 
REMARK       I    between atoms: N_11  and  C_12 
REMARK    5  A    between atoms: C_12  and  C_13 
REMARK    6  A    between atoms: C_13  and  N_14 
ROOT
HETATM    1  N   UNL     1     -41.622  54.752 -52.253  1.00  0.00    -0.322 N 
HETATM    2  C   UNL     1     -42.974  54.998 -52.160  1.00  0.00     0.253 C 
HETATM    3  O   UNL     1     -43.745  54.305 -51.501  1.00  0.00    -0.271 OA
HETATM    4  H   UNL     1     -40.982  55.515 -52.462  1.00  0.00     0.169 HD
ENDROOT
BRANCH   2   5
HETATM    5  C   UNL     1     -43.519  56.224 -52.965  1.00  0.00     0.275 C 
HETATM    6  C   UNL     1     -44.604  57.003 -52.202  1.00  0.00     0.050 C 
BRANCH   5   7
HETATM    7  N   UNL     1     -44.123  55.912 -54.402  1.00  0.00    -0.058 N 
HETATM    8  H   UNL     1     -44.537  54.982 -54.263  1.00  0.00     0.281 HD
HETATM    9  C   UNL     1     -45.284  56.824 -54.800  1.00  0.00     0.246 C 
HETATM   10  C   UNL     1     -44.862  58.056 -55.628  1.00  0.00     0.062 C 
HETATM   11  C   UNL     1     -44.101  57.607 -56.868  1.00  0.00     0.020 C 
HETATM   12  C   UNL     1     -44.034  59.025 -54.809  1.00  0.00     0.020 A 
HETATM   13  C   UNL     1     -42.829  56.919 -56.391  1.00  0.00     0.031 C 
HETATM   14  C   UNL     1     -41.953  57.949 -55.680  1.00  0.00     0.138 C 
HETATM   15  C   UNL     1     -43.183  55.672 -55.573  1.00  0.00     0.242 C 
HETATM   16  N   UNL     1     -42.646  58.867 -54.774  1.00  0.00    -0.317 N 
HETATM   17  C   UNL     1     -41.818  59.711 -54.018  1.00  0.00     0.247 A 
HETATM   18  O   UNL     1     -40.597  59.609 -53.960  1.00  0.00    -0.268 OA
HETATM   19  C   UNL     1     -42.497  60.774 -53.236  1.00  0.00     0.074 A 
HETATM   20  C   UNL     1     -43.826  60.905 -53.297  1.00  0.00     0.007 A 
HETATM   21  C   UNL     1     -44.615  60.013 -54.103  1.00  0.00     0.026 A 
ENDBRANCH   5   7
ENDBRANCH   2   5
BRANCH   1  22
HETATM   22  C   UNL     1     -40.961  53.605 -51.813  1.00  0.00     0.080 A 
HETATM   23  C   UNL     1     -40.547  53.498 -50.491  1.00  0.00     0.137 A 
HETATM   24  N   UNL     1     -39.939  52.275 -50.351  1.00  0.00    -0.349 N 
HETATM   25  H   UNL     1     -39.550  51.927 -49.484  1.00  0.00     0.166 HD
HETATM   26  C   UNL     1     -39.909  51.605 -51.548  1.00  0.00     0.045 A 
HETATM   27  C   UNL     1     -40.534  52.420 -52.500  1.00  0.00     0.023 A 
HETATM   28  C   UNL     1     -39.359  50.350 -51.848  1.00  0.00     0.033 A 
HETATM   29  C   UNL     1     -40.565  51.953 -53.832  1.00  0.00     0.058 A 
HETATM   30  C   UNL     1     -40.024  50.703 -54.138  1.00  0.00     0.117 A 
HETATM   31  C   UNL     1     -39.434  49.909 -53.168  1.00  0.00     0.044 A 
HETATM   32  F   UNL     1     -40.069  50.265 -55.403  1.00  0.00    -0.206 F 
BRANCH  23  33
HETATM   33  C   UNL     1     -40.728  54.449 -49.421  1.00  0.00     0.312 C 
HETATM   34  O   UNL     1     -41.217  54.164 -48.333  1.00  0.00    -0.258 OA
BRANCH  33  35
HETATM   35  O   UNL     1     -40.274  55.673 -49.801  1.00  0.00    -0.317 OA
BRANCH  35  36
HETATM   36  C   UNL     1     -41.229  56.743 -49.739  1.00  0.00     0.175 C 
HETATM   37  C   UNL     1     -40.835  57.856 -50.692  1.00  0.00     0.034 C 
ENDBRANCH  35  36
ENDBRANCH  33  35
ENDBRANCH  23  33
ENDBRANCH   1  22
TORSDOF 6
ENDMDL
MODEL 7
REMARK VINA RESULT:      -8.1      1.799      2.986
REMARK  6 active torsions:
REMARK  status: ('A' for Active; 'I' for Inactive)
REMARK    1  A    between atoms: C_2  and  O_3 
REMARK    2  A    between atoms: O_3  and  C_4 
REMARK    3  A    between atoms: C_4  and  C_5 
REMARK    4  A    between atoms: C_10  and  N_11 
REMARK       I    between atoms: N_11  and  C_12 
REMARK    5  A    between atoms: C_12  and  C_13 
REMARK    6  A    between atoms: C_13  and  N_14 
ROOT
HETATM    1  N   UNL     1     -42.125  57.076 -54.154  1.00  0.00    -0.322 N 
HETATM    2  C   UNL     1     -43.364  57.134 -54.754  1.00  0.00     0.253 C 
HETATM    3  O   UNL     1     -44.345  56.522 -54.341  1.00  0.00    -0.271 OA
HETATM    4  H   UNL     1     -41.472  57.848 -54.266  1.00  0.00     0.169 HD
ENDROOT
BRANCH   2   5
HETATM    5  C   UNL     1     -43.479  58.025 -56.035  1.00  0.00     0.275 C 
HETATM    6  C   UNL     1     -42.372  59.090 -56.121  1.00  0.00     0.050 C 
BRANCH   5   7
HETATM    7  N   UNL     1     -44.855  58.796 -56.236  1.00  0.00    -0.058 N 
HETATM    8  H   UNL     1     -45.097  59.058 -55.272  1.00  0.00     0.281 HD
HETATM    9  C   UNL     1     -44.722  60.115 -56.999  1.00  0.00     0.246 C 
HETATM   10  C   UNL     1     -44.970  59.991 -58.518  1.00  0.00     0.062 C 
HETATM   11  C   UNL     1     -46.341  59.378 -58.768  1.00  0.00     0.020 C 
HETATM   12  C   UNL     1     -43.885  59.183 -59.198  1.00  0.00     0.020 A 
HETATM   13  C   UNL     1     -46.314  57.968 -58.193  1.00  0.00     0.031 C 
HETATM   14  C   UNL     1     -45.304  57.137 -58.982  1.00  0.00     0.138 C 
HETATM   15  C   UNL     1     -46.088  58.024 -56.678  1.00  0.00     0.242 C 
HETATM   16  N   UNL     1     -44.037  57.798 -59.300  1.00  0.00    -0.317 N 
HETATM   17  C   UNL     1     -43.061  56.981 -59.895  1.00  0.00     0.247 A 
HETATM   18  O   UNL     1     -43.156  55.763 -60.005  1.00  0.00    -0.268 OA
HETATM   19  C   UNL     1     -41.845  57.667 -60.396  1.00  0.00     0.074 A 
HETATM   20  C   UNL     1     -41.733  58.995 -60.292  1.00  0.00     0.007 A 
HETATM   21  C   UNL     1     -42.777  59.773 -59.682  1.00  0.00     0.026 A 
ENDBRANCH   5   7
ENDBRANCH   2   5
BRANCH   1  22
HETATM   22  C   UNL     1     -41.735  56.186 -53.152  1.00  0.00     0.080 A 
HETATM   23  C   UNL     1     -41.794  56.565 -51.817  1.00  0.00     0.137 A 
HETATM   24  N   UNL     1     -41.360  55.498 -51.071  1.00  0.00    -0.349 N 
HETATM   25  H   UNL     1     -41.308  55.491 -50.059  1.00  0.00     0.166 HD
HETATM   26  C   UNL     1     -40.983  54.455 -51.881  1.00  0.00     0.045 A 
HETATM   27  C   UNL     1     -41.194  54.859 -53.206  1.00  0.00     0.023 A 
HETATM   28  C   UNL     1     -40.461  53.203 -51.528  1.00  0.00     0.033 A 
HETATM   29  C   UNL     1     -40.815  53.957 -54.224  1.00  0.00     0.058 A 
HETATM   30  C   UNL     1     -40.297  52.707 -53.881  1.00  0.00     0.117 A 
HETATM   31  C   UNL     1     -40.125  52.328 -52.560  1.00  0.00     0.044 A 
HETATM   32  F   UNL     1     -39.952  51.855 -54.856  1.00  0.00    -0.206 F 
BRANCH  23  33
HETATM   33  C   UNL     1     -42.249  57.818 -51.266  1.00  0.00     0.312 C 
HETATM   34  O   UNL     1     -43.398  58.233 -51.378  1.00  0.00    -0.258 OA
BRANCH  33  35
HETATM   35  O   UNL     1     -41.232  58.441 -50.615  1.00  0.00    -0.317 OA
BRANCH  35  36
HETATM   36  C   UNL     1     -40.121  58.846 -51.429  1.00  0.00     0.175 C 
HETATM   37  C   UNL     1     -39.069  59.534 -50.579  1.00  0.00     0.034 C 
ENDBRANCH  35  36
ENDBRANCH  33  35
ENDBRANCH  23  33
ENDBRANCH   1  22
TORSDOF 6
ENDMDL
MODEL 8
REMARK VINA RESULT:      -8.0      3.277      8.210
REMARK  6 active torsions:
REMARK  status: ('A' for Active; 'I' for Inactive)
REMARK    1  A    between atoms: C_2  and  O_3 
REMARK    2  A    between atoms: O_3  and  C_4 
REMARK    3  A    between atoms: C_4  and  C_5 
REMARK    4  A    between atoms: C_10  and  N_11 
REMARK       I    between atoms: N_11  and  C_12 
REMARK    5  A    between atoms: C_12  and  C_13 
REMARK    6  A    between atoms: C_13  and  N_14 
ROOT
HETATM    1  N   UNL     1     -42.746  58.198 -57.145  1.00  0.00    -0.322 N 
HETATM    2  C   UNL     1     -43.803  58.448 -56.297  1.00  0.00     0.253 C 
HETATM    3  O   UNL     1     -44.796  59.092 -56.624  1.00  0.00    -0.271 OA
HETATM    4  H   UNL     1     -42.158  57.381 -56.994  1.00  0.00     0.169 HD
ENDROOT
BRANCH   2   5
HETATM    5  C   UNL     1     -43.684  57.876 -54.845  1.00  0.00     0.275 C 
HETATM    6  C   UNL     1     -44.974  57.183 -54.371  1.00  0.00     0.050 C 
BRANCH   5   7
HETATM    7  N   UNL     1     -43.294  58.915 -53.707  1.00  0.00    -0.058 N 
HETATM    8  H   UNL     1     -43.926  59.701 -53.909  1.00  0.00     0.281 HD
HETATM    9  C   UNL     1     -43.650  58.453 -52.294  1.00  0.00     0.246 C 
HETATM   10  C   UNL     1     -42.497  57.741 -51.555  1.00  0.00     0.062 C 
HETATM   11  C   UNL     1     -41.273  58.646 -51.517  1.00  0.00     0.020 C 
HETATM   12  C   UNL     1     -42.163  56.408 -52.192  1.00  0.00     0.020 A 
HETATM   13  C   UNL     1     -40.828  58.863 -52.957  1.00  0.00     0.031 C 
HETATM   14  C   UNL     1     -40.374  57.524 -53.535  1.00  0.00     0.138 C 
HETATM   15  C   UNL     1     -41.930  59.585 -53.742  1.00  0.00     0.242 C 
HETATM   16  N   UNL     1     -41.215  56.368 -53.218  1.00  0.00    -0.317 N 
HETATM   17  C   UNL     1     -40.872  55.173 -53.871  1.00  0.00     0.247 A 
HETATM   18  O   UNL     1     -40.046  55.094 -54.774  1.00  0.00    -0.268 OA
HETATM   19  C   UNL     1     -41.586  53.951 -53.427  1.00  0.00     0.074 A 
HETATM   20  C   UNL     1     -42.481  54.020 -52.436  1.00  0.00     0.007 A 
HETATM   21  C   UNL     1     -42.776  55.276 -51.801  1.00  0.00     0.026 A 
ENDBRANCH   5   7
ENDBRANCH   2   5
BRANCH   1  22
HETATM   22  C   UNL     1     -42.532  58.788 -58.391  1.00  0.00     0.080 A 
HETATM   23  C   UNL     1     -42.883  58.115 -59.555  1.00  0.00     0.137 A 
HETATM   24  N   UNL     1     -42.565  58.933 -60.610  1.00  0.00    -0.349 N 
HETATM   25  H   UNL     1     -42.724  58.698 -61.583  1.00  0.00     0.166 HD
HETATM   26  C   UNL     1     -41.981  60.095 -60.170  1.00  0.00     0.045 A 
HETATM   27  C   UNL     1     -41.931  60.034 -58.772  1.00  0.00     0.023 A 
HETATM   28  C   UNL     1     -41.487  61.175 -60.915  1.00  0.00     0.033 A 
HETATM   29  C   UNL     1     -41.309  61.108 -58.099  1.00  0.00     0.058 A 
HETATM   30  C   UNL     1     -40.817  62.189 -58.833  1.00  0.00     0.117 A 
HETATM   31  C   UNL     1     -40.904  62.231 -60.215  1.00  0.00     0.044 A 
HETATM   32  F   UNL     1     -40.238  63.208 -58.183  1.00  0.00    -0.206 F 
BRANCH  23  33
HETATM   33  C   UNL     1     -43.499  56.817 -59.681  1.00  0.00     0.312 C 
HETATM   34  O   UNL     1     -42.970  55.865 -60.244  1.00  0.00    -0.258 OA
BRANCH  33  35
HETATM   35  O   UNL     1     -44.721  56.819 -59.086  1.00  0.00    -0.317 OA
BRANCH  35  36
HETATM   36  C   UNL     1     -45.793  57.387 -59.854  1.00  0.00     0.175 C 
HETATM   37  C   UNL     1     -46.766  56.304 -60.280  1.00  0.00     0.034 C 
ENDBRANCH  35  36
ENDBRANCH  33  35
ENDBRANCH  23  33
ENDBRANCH   1  22
TORSDOF 6
ENDMDL
MODEL 9
REMARK VINA RESULT:      -7.8      3.409      5.708
REMARK  6 active torsions:
REMARK  status: ('A' for Active; 'I' for Inactive)
REMARK    1  A    between atoms: C_2  and  O_3 
REMARK    2  A    between atoms: O_3  and  C_4 
REMARK    3  A    between atoms: C_4  and  C_5 
REMARK    4  A    between atoms: C_10  and  N_11 
REMARK       I    between atoms: N_11  and  C_12 
REMARK    5  A    between atoms: C_12  and  C_13 
REMARK    6  A    between atoms: C_13  and  N_14 
ROOT
HETATM    1  N   UNL     1     -41.572  55.084 -52.162  1.00  0.00    -0.322 N 
HETATM    2  C   UNL     1     -42.941  55.226 -52.202  1.00  0.00     0.253 C 
HETATM    3  O   UNL     1     -43.713  54.292 -52.399  1.00  0.00    -0.271 OA
HETATM    4  H   UNL     1     -41.009  55.750 -51.637  1.00  0.00     0.169 HD
ENDROOT
BRANCH   2   5
HETATM    5  C   UNL     1     -43.500  56.674 -52.000  1.00  0.00     0.275 C 
HETATM    6  C   UNL     1     -44.486  56.771 -50.823  1.00  0.00     0.050 C 
BRANCH   5   7
HETATM    7  N   UNL     1     -44.232  57.329 -53.250  1.00  0.00    -0.058 N 
HETATM    8  H   UNL     1     -44.943  56.621 -53.476  1.00  0.00     0.281 HD
HETATM    9  C   UNL     1     -45.010  58.602 -52.917  1.00  0.00     0.246 C 
HETATM   10  C   UNL     1     -44.213  59.904 -53.142  1.00  0.00     0.062 C 
HETATM   11  C   UNL     1     -43.711  59.958 -54.579  1.00  0.00     0.020 C 
HETATM   12  C   UNL     1     -43.065  60.034 -52.164  1.00  0.00     0.020 A 
HETATM   13  C   UNL     1     -42.746  58.794 -54.762  1.00  0.00     0.031 C 
HETATM   14  C   UNL     1     -41.535  59.016 -53.858  1.00  0.00     0.138 C 
HETATM   15  C   UNL     1     -43.486  57.466 -54.566  1.00  0.00     0.242 C 
HETATM   16  N   UNL     1     -41.822  59.493 -52.504  1.00  0.00    -0.317 N 
HETATM   17  C   UNL     1     -40.718  59.554 -51.637  1.00  0.00     0.247 A 
HETATM   18  O   UNL     1     -39.612  59.094 -51.897  1.00  0.00    -0.268 OA
HETATM   19  C   UNL     1     -40.946  60.208 -50.326  1.00  0.00     0.074 A 
HETATM   20  C   UNL     1     -42.144  60.725 -50.033  1.00  0.00     0.007 A 
HETATM   21  C   UNL     1     -43.229  60.639 -50.973  1.00  0.00     0.026 A 
ENDBRANCH   5   7
ENDBRANCH   2   5
BRANCH   1  22
HETATM   22  C   UNL     1     -40.849  53.949 -52.534  1.00  0.00     0.080 A 
HETATM   23  C   UNL     1     -40.347  53.831 -53.824  1.00  0.00     0.137 A 
HETATM   24  N   UNL     1     -39.685  52.630 -53.895  1.00  0.00    -0.349 N 
HETATM   25  H   UNL     1     -39.210  52.288 -54.721  1.00  0.00     0.166 HD
HETATM   26  C   UNL     1     -39.779  51.949 -52.707  1.00  0.00     0.045 A 
HETATM   27  C   UNL     1     -40.520  52.747 -51.825  1.00  0.00     0.023 A 
HETATM   28  C   UNL     1     -39.274  50.686 -52.367  1.00  0.00     0.033 A 
HETATM   29  C   UNL     1     -40.796  52.214 -50.547  1.00  0.00     0.058 A 
HETATM   30  C   UNL     1     -40.294  50.958 -50.200  1.00  0.00     0.117 A 
HETATM   31  C   UNL     1     -39.543  50.204 -51.087  1.00  0.00     0.044 A 
HETATM   32  F   UNL     1     -40.553  50.467 -48.980  1.00  0.00    -0.206 F 
BRANCH  23  33
HETATM   33  C   UNL     1     -40.444  54.777 -54.909  1.00  0.00     0.312 C 
HETATM   34  O   UNL     1     -39.945  55.897 -54.881  1.00  0.00    -0.258 OA
BRANCH  33  35
HETATM   35  O   UNL     1     -41.149  54.239 -55.938  1.00  0.00    -0.317 OA
BRANCH  35  36
HETATM   36  C   UNL     1     -42.429  54.834 -56.202  1.00  0.00     0.175 C 
HETATM   37  C   UNL     1     -43.543  53.901 -55.766  1.00  0.00     0.034 C 
ENDBRANCH  35  36
ENDBRANCH  33  35
ENDBRANCH  23  33
ENDBRANCH   1  22
TORSDOF 6
ENDMDL
MODEL 10
REMARK VINA RESULT:      -7.7      2.878      5.013
REMARK  6 active torsions:
REMARK  status: ('A' for Active; 'I' for Inactive)
REMARK    1  A    between atoms: C_2  and  O_3 
REMARK    2  A    between atoms: O_3  and  C_4 
REMARK    3  A    between atoms: C_4  and  C_5 
REMARK    4  A    between atoms: C_10  and  N_11 
REMARK       I    between atoms: N_11  and  C_12 
REMARK    5  A    between atoms: C_12  and  C_13 
REMARK    6  A    between atoms: C_13  and  N_14 
ROOT
HETATM    1  N   UNL     1     -43.415  57.026 -54.512  1.00  0.00    -0.322 N 
HETATM    2  C   UNL     1     -43.223  57.931 -55.533  1.00  0.00     0.253 C 
HETATM    3  O   UNL     1     -42.187  58.573 -55.682  1.00  0.00    -0.271 OA
HETATM    4  H   UNL     1     -44.079  56.263 -54.629  1.00  0.00     0.169 HD
ENDROOT
BRANCH   2   5
HETATM    5  C   UNL     1     -44.420  58.133 -56.522  1.00  0.00     0.275 C 
HETATM    6  C   UNL     1     -45.782  58.171 -55.807  1.00  0.00     0.050 C 
BRANCH   5   7
HETATM    7  N   UNL     1     -44.559  57.063 -57.689  1.00  0.00    -0.058 N 
HETATM    8  H   UNL     1     -45.113  56.324 -57.236  1.00  0.00     0.281 HD
HETATM    9  C   UNL     1     -45.399  57.541 -58.873  1.00  0.00     0.246 C 
HETATM   10  C   UNL     1     -44.575  58.167 -60.018  1.00  0.00     0.062 C 
HETATM   11  C   UNL     1     -43.518  57.179 -60.491  1.00  0.00     0.020 C 
HETATM   12  C   UNL     1     -43.941  59.477 -59.599  1.00  0.00     0.020 A 
HETATM   13  C   UNL     1     -42.570  56.940 -59.324  1.00  0.00     0.031 C 
HETATM   14  C   UNL     1     -41.847  58.248 -59.005  1.00  0.00     0.138 C 
HETATM   15  C   UNL     1     -43.329  56.301 -58.155  1.00  0.00     0.242 C 
HETATM   16  N   UNL     1     -42.672  59.457 -59.014  1.00  0.00    -0.317 N 
HETATM   17  C   UNL     1     -42.032  60.629 -58.579  1.00  0.00     0.247 A 
HETATM   18  O   UNL     1     -40.920  60.656 -58.062  1.00  0.00    -0.268 OA
HETATM   19  C   UNL     1     -42.785  61.895 -58.755  1.00  0.00     0.074 A 
HETATM   20  C   UNL     1     -43.994  61.883 -59.327  1.00  0.00     0.007 A 
HETATM   21  C   UNL     1     -44.586  60.646 -59.762  1.00  0.00     0.026 A 
ENDBRANCH   5   7
ENDBRANCH   2   5
BRANCH   1  22
HETATM   22  C   UNL     1     -42.590  56.850 -53.401  1.00  0.00     0.080 A 
HETATM   23  C   UNL     1     -42.077  55.594 -53.100  1.00  0.00     0.137 A 
HETATM   24  N   UNL     1     -41.307  55.727 -51.972  1.00  0.00    -0.349 N 
HETATM   25  H   UNL     1     -40.801  54.967 -51.532  1.00  0.00     0.166 HD
HETATM   26  C   UNL     1     -41.337  57.019 -51.508  1.00  0.00     0.045 A 
HETATM   27  C   UNL     1     -42.150  57.756 -52.379  1.00  0.00     0.023 A 
HETATM   28  C   UNL     1     -40.717  57.570 -50.378  1.00  0.00     0.033 A 
HETATM   29  C   UNL     1     -42.376  59.113 -52.061  1.00  0.00     0.058 A 
HETATM   30  C   UNL     1     -41.759  59.670 -50.939  1.00  0.00     0.117 A 
HETATM   31  C   UNL     1     -40.940  58.920 -50.111  1.00  0.00     0.044 A 
HETATM   32  F   UNL     1     -41.972  60.962 -50.652  1.00  0.00    -0.206 F 
BRANCH  23  33
HETATM   33  C   UNL     1     -42.262  54.360 -53.824  1.00  0.00     0.312 C 
HETATM   34  O   UNL     1     -43.105  54.206 -54.702  1.00  0.00    -0.258 OA
BRANCH  33  35
HETATM   35  O   UNL     1     -41.373  53.427 -53.394  1.00  0.00    -0.317 OA
BRANCH  35  36
HETATM   36  C   UNL     1     -40.457  52.930 -54.383  1.00  0.00     0.175 C 
HETATM   37  C   UNL     1     -40.230  51.443 -54.189  1.00  0.00     0.034 C 
ENDBRANCH  35  36
ENDBRANCH  33  35
ENDBRANCH  23  33
ENDBRANCH   1  22
TORSDOF 6
ENDMDL
