MODEL 1
REMARK VINA RESULT:      -7.8      0.000      0.000
REMARK  6 active torsions:
REMARK  status: ('A' for Active; 'I' for Inactive)
REMARK    1  A    between atoms: C_2  and  C_3 
REMARK    2  A    between atoms: C_3  and  N_4 
REMARK       I    between atoms: N_4  and  C_5 
REMARK    3  A    between atoms: C_5  and  C_6 
REMARK    4  A    between atoms: C_11  and  C_12 
REMARK    5  A    between atoms: C_15  and  O_16 
REMARK    6  A    between atoms: C_21  and  C_22 
ROOT
HETATM    1  C   UNL     1     -43.448  58.958 -51.604  1.00  0.00     0.170 A 
HETATM    2  N   UNL     1     -44.194  58.313 -52.537  1.00  0.00    -0.163 NA
HETATM    3  N   UNL     1     -43.427  57.268 -52.887  1.00  0.00    -0.238 N 
HETATM    4  C   UNL     1     -42.254  57.171 -52.192  1.00  0.00     0.145 A 
HETATM    5  N   UNL     1     -41.411  56.126 -52.386  1.00  0.00    -0.365 N 
HETATM    6  C   UNL     1     -41.619  55.182 -53.481  1.00  0.00     0.118 C 
HETATM    7  C   UNL     1     -43.129  54.977 -53.701  1.00  0.00     0.066 C 
HETATM    8  C   UNL     1     -43.853  56.320 -53.900  1.00  0.00     0.221 C 
HETATM    9  C   UNL     1     -42.225  58.269 -51.361  1.00  0.00     0.115 A 
HETATM   10 CL   UNL     1     -40.992  58.682 -50.272  1.00  0.00    -0.077 Cl
HETATM   11  H   UNL     1     -40.463  56.158 -52.007  1.00  0.00     0.162 HD
ENDROOT
BRANCH   6  12
HETATM   12  C   UNL     1     -40.944  53.856 -53.184  1.00  0.00    -0.035 A 
HETATM   13  C   UNL     1     -40.503  53.520 -51.896  1.00  0.00     0.012 A 
HETATM   14  C   UNL     1     -39.925  52.273 -51.645  1.00  0.00     0.037 A 
HETATM   15  C   UNL     1     -39.785  51.333 -52.667  1.00  0.00     0.068 A 
HETATM   16  C   UNL     1     -40.220  51.656 -53.951  1.00  0.00     0.037 A 
HETATM   17  C   UNL     1     -40.796  52.905 -54.206  1.00  0.00     0.012 A 
BRANCH  15  18
HETATM   18  O   UNL     1     -39.215  50.150 -52.283  1.00  0.00    -0.356 OA
HETATM   19  C   UNL     1     -39.427  49.741 -50.938  1.00  0.00     0.210 C 
ENDBRANCH  15  18
ENDBRANCH   6  12
BRANCH   8  20
HETATM   20  C   UNL     1     -43.615  56.900 -55.278  1.00  0.00     0.409 C 
HETATM   21  F   UNL     1     -42.574  57.759 -55.316  1.00  0.00    -0.169 F 
HETATM   22  F   UNL     1     -43.328  55.903 -56.156  1.00  0.00    -0.169 F 
HETATM   23  F   UNL     1     -44.698  57.541 -55.767  1.00  0.00    -0.169 F 
ENDBRANCH   8  20
BRANCH   1  24
HETATM   24  C   UNL     1     -43.934  60.201 -50.984  1.00  0.00     0.273 C 
HETATM   25  N   UNL     1     -44.747  59.975 -49.892  1.00  0.00    -0.356 N 
HETATM   26  H   UNL     1     -44.952  58.998 -49.694  1.00  0.00     0.162 HD
HETATM   27  O   UNL     1     -43.660  61.324 -51.394  1.00  0.00    -0.266 OA
BRANCH  25  28
HETATM   28  C   UNL     1     -45.421  61.030 -49.175  1.00  0.00     0.122 C 
BRANCH  28  29
HETATM   29  C   UNL     1     -44.727  61.342 -47.853  1.00  0.00     0.015 C 
HETATM   30  C   UNL     1     -45.484  60.754 -46.674  1.00  0.00     0.006 C 
ENDBRANCH  28  29
ENDBRANCH  25  28
ENDBRANCH   1  24
TORSDOF 6
ENDMDL
MODEL 2
REMARK VINA RESULT:      -7.6      3.988      7.606
REMARK  6 active torsions:
REMARK  status: ('A' for Active; 'I' for Inactive)
REMARK    1  A    between atoms: C_2  and  C_3 
REMARK    2  A    between atoms: C_3  and  N_4 
REMARK       I    between atoms: N_4  and  C_5 
REMARK    3  A    between atoms: C_5  and  C_6 
REMARK    4  A    between atoms: C_11  and  C_12 
REMARK    5  A    between atoms: C_15  and  O_16 
REMARK    6  A    between atoms: C_21  and  C_22 
ROOT
HETATM    1  C   UNL     1     -40.669  54.266 -52.223  1.00  0.00     0.170 A 
HETATM    2  N   UNL     1     -41.303  55.434 -51.945  1.00  0.00    -0.163 NA
HETATM    3  N   UNL     1     -41.614  55.921 -53.156  1.00  0.00    -0.238 N 
HETATM    4  C   UNL     1     -41.266  55.107 -54.198  1.00  0.00     0.145 A 
HETATM    5  N   UNL     1     -41.583  55.435 -55.477  1.00  0.00    -0.365 N 
HETATM    6  C   UNL     1     -42.117  56.753 -55.808  1.00  0.00     0.118 C 
HETATM    7  C   UNL     1     -43.024  57.241 -54.664  1.00  0.00     0.066 C 
HETATM    8  C   UNL     1     -42.292  57.195 -53.311  1.00  0.00     0.221 C 
HETATM    9  C   UNL     1     -40.629  54.029 -53.627  1.00  0.00     0.115 A 
HETATM   10 CL   UNL     1     -39.963  52.699 -54.443  1.00  0.00    -0.077 Cl
HETATM   11  H   UNL     1     -41.160  54.923 -56.253  1.00  0.00     0.162 HD
ENDROOT
BRANCH   6  12
HETATM   12  C   UNL     1     -42.889  56.708 -57.113  1.00  0.00    -0.035 A 
HETATM   13  C   UNL     1     -43.011  55.529 -57.863  1.00  0.00     0.012 A 
HETATM   14  C   UNL     1     -43.767  55.510 -59.038  1.00  0.00     0.037 A 
HETATM   15  C   UNL     1     -44.425  56.657 -59.482  1.00  0.00     0.068 A 
HETATM   16  C   UNL     1     -44.312  57.834 -58.744  1.00  0.00     0.037 A 
HETATM   17  C   UNL     1     -43.552  57.858 -57.569  1.00  0.00     0.012 A 
BRANCH  15  18
HETATM   18  O   UNL     1     -45.139  56.496 -60.638  1.00  0.00    -0.356 OA
HETATM   19  C   UNL     1     -45.176  55.188 -61.195  1.00  0.00     0.210 C 
ENDBRANCH  15  18
ENDBRANCH   6  12
BRANCH   8  20
HETATM   20  C   UNL     1     -41.299  58.327 -53.159  1.00  0.00     0.409 C 
HETATM   21  F   UNL     1     -40.046  57.982 -53.523  1.00  0.00    -0.169 F 
HETATM   22  F   UNL     1     -41.661  59.369 -53.952  1.00  0.00    -0.169 F 
HETATM   23  F   UNL     1     -41.244  58.806 -51.898  1.00  0.00    -0.169 F 
ENDBRANCH   8  20
BRANCH   1  24
HETATM   24  C   UNL     1     -40.131  53.429 -51.139  1.00  0.00     0.273 C 
HETATM   25  N   UNL     1     -40.486  52.101 -51.260  1.00  0.00    -0.356 N 
HETATM   26  H   UNL     1     -41.111  51.883 -52.032  1.00  0.00     0.162 HD
HETATM   27  O   UNL     1     -39.446  53.858 -50.216  1.00  0.00    -0.266 OA
BRANCH  25  28
HETATM   28  C   UNL     1     -40.160  51.101 -50.272  1.00  0.00     0.122 C 
BRANCH  28  29
HETATM   29  C   UNL     1     -39.730  49.790 -50.922  1.00  0.00     0.015 C 
HETATM   30  C   UNL     1     -39.659  49.915 -52.435  1.00  0.00     0.006 C 
ENDBRANCH  28  29
ENDBRANCH  25  28
ENDBRANCH   1  24
TORSDOF 6
ENDMDL
MODEL 3
REMARK VINA RESULT:      -7.5      3.840      5.924
REMARK  6 active torsions:
REMARK  status: ('A' for Active; 'I' for Inactive)
REMARK    1  A    between atoms: C_2  and  C_3 
REMARK    2  A    between atoms: C_3  and  N_4 
REMARK       I    between atoms: N_4  and  C_5 
REMARK    3  A    between atoms: C_5  and  C_6 
REMARK    4  A    between atoms: C_11  and  C_12 
REMARK    5  A    between atoms: C_15  and  O_16 
REMARK    6  A    between atoms: C_21  and  C_22 
ROOT
HETATM    1  C   UNL     1     -43.081  57.651 -57.487  1.00  0.00     0.170 A 
HETATM    2  N   UNL     1     -42.617  58.311 -56.395  1.00  0.00    -0.163 NA
HETATM    3  N   UNL     1     -42.357  57.328 -55.519  1.00  0.00    -0.238 N 
HETATM    4  C   UNL     1     -42.573  56.068 -56.003  1.00  0.00     0.145 A 
HETATM    5  N   UNL     1     -42.285  54.973 -55.256  1.00  0.00    -0.365 N 
HETATM    6  C   UNL     1     -41.931  55.093 -53.845  1.00  0.00     0.118 C 
HETATM    7  C   UNL     1     -41.118  56.383 -53.628  1.00  0.00     0.066 C 
HETATM    8  C   UNL     1     -41.858  57.611 -54.185  1.00  0.00     0.221 C 
HETATM    9  C   UNL     1     -43.066  56.242 -57.277  1.00  0.00     0.115 A 
HETATM   10 CL   UNL     1     -43.531  55.021 -58.358  1.00  0.00    -0.077 Cl
HETATM   11  H   UNL     1     -42.621  54.053 -55.549  1.00  0.00     0.162 HD
ENDROOT
BRANCH   6  12
HETATM   12  C   UNL     1     -41.139  53.885 -53.383  1.00  0.00    -0.035 A 
HETATM   13  C   UNL     1     -40.747  53.722 -52.047  1.00  0.00     0.012 A 
HETATM   14  C   UNL     1     -40.056  52.576 -51.644  1.00  0.00     0.037 A 
HETATM   15  C   UNL     1     -39.753  51.566 -52.559  1.00  0.00     0.068 A 
HETATM   16  C   UNL     1     -40.139  51.718 -53.889  1.00  0.00     0.037 A 
HETATM   17  C   UNL     1     -40.828  52.866 -54.297  1.00  0.00     0.012 A 
BRANCH  15  18
HETATM   18  O   UNL     1     -39.086  50.495 -52.030  1.00  0.00    -0.356 OA
HETATM   19  C   UNL     1     -39.629  49.918 -50.850  1.00  0.00     0.210 C 
ENDBRANCH  15  18
ENDBRANCH   6  12
BRANCH   8  20
HETATM   20  C   UNL     1     -42.999  58.046 -53.292  1.00  0.00     0.409 C 
HETATM   21  F   UNL     1     -44.175  57.469 -53.618  1.00  0.00    -0.169 F 
HETATM   22  F   UNL     1     -42.738  57.696 -52.005  1.00  0.00    -0.169 F 
HETATM   23  F   UNL     1     -43.182  59.384 -53.295  1.00  0.00    -0.169 F 
ENDBRANCH   8  20
BRANCH   1  24
HETATM   24  C   UNL     1     -43.516  58.392 -58.682  1.00  0.00     0.273 C 
HETATM   25  N   UNL     1     -44.843  58.177 -58.993  1.00  0.00    -0.356 N 
HETATM   26  H   UNL     1     -45.327  57.502 -58.405  1.00  0.00     0.162 HD
HETATM   27  O   UNL     1     -42.782  59.118 -59.344  1.00  0.00    -0.266 OA
BRANCH  25  28
HETATM   28  C   UNL     1     -45.478  58.717 -60.171  1.00  0.00     0.122 C 
BRANCH  28  29
HETATM   29  C   UNL     1     -46.857  58.103 -60.395  1.00  0.00     0.015 C 
HETATM   30  C   UNL     1     -46.879  56.631 -60.019  1.00  0.00     0.006 C 
ENDBRANCH  28  29
ENDBRANCH  25  28
ENDBRANCH   1  24
TORSDOF 6
ENDMDL
MODEL 4
REMARK VINA RESULT:      -7.5      3.828      5.734
REMARK  6 active torsions:
REMARK  status: ('A' for Active; 'I' for Inactive)
REMARK    1  A    between atoms: C_2  and  C_3 
REMARK    2  A    between atoms: C_3  and  N_4 
REMARK       I    between atoms: N_4  and  C_5 
REMARK    3  A    between atoms: C_5  and  C_6 
REMARK    4  A    between atoms: C_11  and  C_12 
REMARK    5  A    between atoms: C_15  and  O_16 
REMARK    6  A    between atoms: C_21  and  C_22 
ROOT
HETATM    1  C   UNL     1     -42.804  57.969 -57.347  1.00  0.00     0.170 A 
HETATM    2  N   UNL     1     -42.375  58.533 -56.188  1.00  0.00    -0.163 NA
HETATM    3  N   UNL     1     -42.174  57.479 -55.381  1.00  0.00    -0.238 N 
HETATM    4  C   UNL     1     -42.395  56.266 -55.971  1.00  0.00     0.145 A 
HETATM    5  N   UNL     1     -42.162  55.110 -55.299  1.00  0.00    -0.365 N 
HETATM    6  C   UNL     1     -41.868  55.114 -53.869  1.00  0.00     0.118 C 
HETATM    7  C   UNL     1     -41.038  56.363 -53.520  1.00  0.00     0.066 C 
HETATM    8  C   UNL     1     -41.727  57.648 -54.010  1.00  0.00     0.221 C 
HETATM    9  C   UNL     1     -42.828  56.549 -57.247  1.00  0.00     0.115 A 
HETATM   10 CL   UNL     1     -43.270  55.425 -58.438  1.00  0.00    -0.077 Cl
HETATM   11  H   UNL     1     -42.505  54.224 -55.676  1.00  0.00     0.162 HD
ENDROOT
BRANCH   6  12
HETATM   12  C   UNL     1     -41.122  53.855 -53.469  1.00  0.00    -0.035 A 
HETATM   13  C   UNL     1     -40.770  53.593 -52.137  1.00  0.00     0.012 A 
HETATM   14  C   UNL     1     -40.122  52.403 -51.795  1.00  0.00     0.037 A 
HETATM   15  C   UNL     1     -39.823  51.447 -52.767  1.00  0.00     0.068 A 
HETATM   16  C   UNL     1     -40.169  51.698 -54.094  1.00  0.00     0.037 A 
HETATM   17  C   UNL     1     -40.815  52.890 -54.441  1.00  0.00     0.012 A 
BRANCH  15  18
HETATM   18  O   UNL     1     -39.200  50.325 -52.295  1.00  0.00    -0.356 OA
HETATM   19  C   UNL     1     -39.484  49.948 -50.954  1.00  0.00     0.210 C 
ENDBRANCH  15  18
ENDBRANCH   6  12
BRANCH   8  20
HETATM   20  C   UNL     1     -42.897  58.041 -53.134  1.00  0.00     0.409 C 
HETATM   21  F   UNL     1     -42.760  57.631 -51.855  1.00  0.00    -0.169 F 
HETATM   22  F   UNL     1     -43.014  59.394 -53.098  1.00  0.00    -0.169 F 
HETATM   23  F   UNL     1     -44.075  57.567 -53.595  1.00  0.00    -0.169 F 
ENDBRANCH   8  20
BRANCH   1  24
HETATM   24  C   UNL     1     -43.172  58.810 -58.498  1.00  0.00     0.273 C 
HETATM   25  N   UNL     1     -42.109  59.536 -58.994  1.00  0.00    -0.356 N 
HETATM   26  H   UNL     1     -41.238  59.447 -58.475  1.00  0.00     0.162 HD
HETATM   27  O   UNL     1     -44.304  58.872 -58.968  1.00  0.00    -0.266 OA
BRANCH  25  28
HETATM   28  C   UNL     1     -42.238  60.503 -60.057  1.00  0.00     0.122 C 
BRANCH  28  29
HETATM   29  C   UNL     1     -41.358  61.725 -59.813  1.00  0.00     0.015 C 
HETATM   30  C   UNL     1     -40.748  61.703 -58.421  1.00  0.00     0.006 C 
ENDBRANCH  28  29
ENDBRANCH  25  28
ENDBRANCH   1  24
TORSDOF 6
ENDMDL
MODEL 5
REMARK VINA RESULT:      -7.4      1.672      2.194
REMARK  6 active torsions:
REMARK  status: ('A' for Active; 'I' for Inactive)
REMARK    1  A    between atoms: C_2  and  C_3 
REMARK    2  A    between atoms: C_3  and  N_4 
REMARK       I    between atoms: N_4  and  C_5 
REMARK    3  A    between atoms: C_5  and  C_6 
REMARK    4  A    between atoms: C_11  and  C_12 
REMARK    5  A    between atoms: C_15  and  O_16 
REMARK    6  A    between atoms: C_21  and  C_22 
ROOT
HETATM    1  C   UNL     1     -42.459  59.344 -53.653  1.00  0.00     0.170 A 
HETATM    2  N   UNL     1     -43.343  58.574 -54.338  1.00  0.00    -0.163 NA
HETATM    3  N   UNL     1     -42.744  57.374 -54.388  1.00  0.00    -0.238 N 
HETATM    4  C   UNL     1     -41.549  57.312 -53.726  1.00  0.00     0.145 A 
HETATM    5  N   UNL     1     -40.864  56.144 -53.629  1.00  0.00    -0.365 N 
HETATM    6  C   UNL     1     -41.266  54.967 -54.395  1.00  0.00     0.118 C 
HETATM    7  C   UNL     1     -42.801  54.928 -54.506  1.00  0.00     0.066 C 
HETATM    8  C   UNL     1     -43.356  56.248 -55.069  1.00  0.00     0.221 C 
HETATM    9  C   UNL     1     -41.323  58.584 -53.253  1.00  0.00     0.115 A 
HETATM   10 CL   UNL     1     -39.976  59.109 -52.364  1.00  0.00    -0.077 Cl
HETATM   11  H   UNL     1     -39.897  56.147 -53.301  1.00  0.00     0.162 HD
ENDROOT
BRANCH   6  12
HETATM   12  C   UNL     1     -40.751  53.699 -53.742  1.00  0.00    -0.035 A 
HETATM   13  C   UNL     1     -40.460  52.547 -54.487  1.00  0.00     0.012 A 
HETATM   14  C   UNL     1     -39.944  51.409 -53.862  1.00  0.00     0.037 A 
HETATM   15  C   UNL     1     -39.697  51.397 -52.489  1.00  0.00     0.068 A 
HETATM   16  C   UNL     1     -39.983  52.537 -51.738  1.00  0.00     0.037 A 
HETATM   17  C   UNL     1     -40.503  53.678 -52.361  1.00  0.00     0.012 A 
BRANCH  15  18
HETATM   18  O   UNL     1     -39.182  50.225 -52.008  1.00  0.00    -0.356 OA
HETATM   19  C   UNL     1     -39.691  49.760 -50.765  1.00  0.00     0.210 C 
ENDBRANCH  15  18
ENDBRANCH   6  12
BRANCH   8  20
HETATM   20  C   UNL     1     -43.137  56.371 -56.561  1.00  0.00     0.409 C 
HETATM   21  F   UNL     1     -44.141  57.018 -57.191  1.00  0.00    -0.169 F 
HETATM   22  F   UNL     1     -42.005  57.080 -56.806  1.00  0.00    -0.169 F 
HETATM   23  F   UNL     1     -42.977  55.173 -57.165  1.00  0.00    -0.169 F 
ENDBRANCH   8  20
BRANCH   1  24
HETATM   24  C   UNL     1     -42.736  60.769 -53.410  1.00  0.00     0.273 C 
HETATM   25  N   UNL     1     -42.883  61.067 -52.071  1.00  0.00    -0.356 N 
HETATM   26  H   UNL     1     -42.841  60.271 -51.438  1.00  0.00     0.162 HD
HETATM   27  O   UNL     1     -42.839  61.609 -54.299  1.00  0.00    -0.266 OA
BRANCH  25  28
HETATM   28  C   UNL     1     -43.253  62.375 -51.587  1.00  0.00     0.122 C 
BRANCH  28  29
HETATM   29  C   UNL     1     -44.116  62.284 -50.333  1.00  0.00     0.015 C 
HETATM   30  C   UNL     1     -44.433  60.841 -49.978  1.00  0.00     0.006 C 
ENDBRANCH  28  29
ENDBRANCH  25  28
ENDBRANCH   1  24
TORSDOF 6
ENDMDL
MODEL 6
REMARK VINA RESULT:      -7.3      5.375      9.239
REMARK  6 active torsions:
REMARK  status: ('A' for Active; 'I' for Inactive)
REMARK    1  A    between atoms: C_2  and  C_3 
REMARK    2  A    between atoms: C_3  and  N_4 
REMARK       I    between atoms: N_4  and  C_5 
REMARK    3  A    between atoms: C_5  and  C_6 
REMARK    4  A    between atoms: C_11  and  C_12 
REMARK    5  A    between atoms: C_15  and  O_16 
REMARK    6  A    between atoms: C_21  and  C_22 
ROOT
HETATM    1  C   UNL     1     -42.643  55.635 -55.878  1.00  0.00     0.170 A 
HETATM    2  N   UNL     1     -42.874  55.234 -57.154  1.00  0.00    -0.163 NA
HETATM    3  N   UNL     1     -42.837  56.378 -57.856  1.00  0.00    -0.238 N 
HETATM    4  C   UNL     1     -42.540  57.486 -57.113  1.00  0.00     0.145 A 
HETATM    5  N   UNL     1     -42.397  58.702 -57.699  1.00  0.00    -0.365 N 
HETATM    6  C   UNL     1     -42.754  58.912 -59.099  1.00  0.00     0.118 C 
HETATM    7  C   UNL     1     -42.418  57.646 -59.909  1.00  0.00     0.066 C 
HETATM    8  C   UNL     1     -43.067  56.397 -59.289  1.00  0.00     0.221 C 
HETATM    9  C   UNL     1     -42.427  57.041 -55.815  1.00  0.00     0.115 A 
HETATM   10 CL   UNL     1     -42.084  57.986 -54.448  1.00  0.00    -0.077 Cl
HETATM   11  H   UNL     1     -42.362  59.544 -57.122  1.00  0.00     0.162 HD
ENDROOT
BRANCH   6  12
HETATM   12  C   UNL     1     -42.021  60.113 -59.667  1.00  0.00    -0.035 A 
HETATM   13  C   UNL     1     -41.998  60.385 -61.042  1.00  0.00     0.012 A 
HETATM   14  C   UNL     1     -41.352  61.524 -61.530  1.00  0.00     0.037 A 
HETATM   15  C   UNL     1     -40.727  62.418 -60.660  1.00  0.00     0.068 A 
HETATM   16  C   UNL     1     -40.744  62.157 -59.291  1.00  0.00     0.037 A 
HETATM   17  C   UNL     1     -41.387  61.016 -58.800  1.00  0.00     0.012 A 
BRANCH  15  18
HETATM   18  O   UNL     1     -40.144  63.496 -61.268  1.00  0.00    -0.356 OA
HETATM   19  C   UNL     1     -39.195  63.222 -62.292  1.00  0.00     0.210 C 
ENDBRANCH  15  18
ENDBRANCH   6  12
BRANCH   8  20
HETATM   20  C   UNL     1     -44.552  56.322 -59.572  1.00  0.00     0.409 C 
HETATM   21  F   UNL     1     -44.887  56.835 -60.775  1.00  0.00    -0.169 F 
HETATM   22  F   UNL     1     -44.957  55.025 -59.577  1.00  0.00    -0.169 F 
HETATM   23  F   UNL     1     -45.293  56.951 -58.635  1.00  0.00    -0.169 F 
ENDBRANCH   8  20
BRANCH   1  24
HETATM   24  C   UNL     1     -42.637  54.660 -54.775  1.00  0.00     0.273 C 
HETATM   25  N   UNL     1     -41.490  53.893 -54.743  1.00  0.00    -0.356 N 
HETATM   26  H   UNL     1     -40.834  54.054 -55.504  1.00  0.00     0.162 HD
HETATM   27  O   UNL     1     -43.554  54.528 -53.971  1.00  0.00    -0.266 OA
BRANCH  25  28
HETATM   28  C   UNL     1     -41.290  52.807 -53.815  1.00  0.00     0.122 C 
BRANCH  28  29
HETATM   29  C   UNL     1     -39.962  52.097 -54.061  1.00  0.00     0.015 C 
HETATM   30  C   UNL     1     -40.165  50.616 -54.335  1.00  0.00     0.006 C 
ENDBRANCH  28  29
ENDBRANCH  25  28
ENDBRANCH   1  24
TORSDOF 6
ENDMDL
MODEL 7
REMARK VINA RESULT:      -7.2      3.580      8.150
REMARK  6 active torsions:
REMARK  status: ('A' for Active; 'I' for Inactive)
REMARK    1  A    between atoms: C_2  and  C_3 
REMARK    2  A    between atoms: C_3  and  N_4 
REMARK       I    between atoms: N_4  and  C_5 
REMARK    3  A    between atoms: C_5  and  C_6 
REMARK    4  A    between atoms: C_11  and  C_12 
REMARK    5  A    between atoms: C_15  and  O_16 
REMARK    6  A    between atoms: C_21  and  C_22 
ROOT
HETATM    1  C   UNL     1     -41.016  54.263 -52.668  1.00  0.00     0.170 A 
HETATM    2  N   UNL     1     -41.894  55.031 -51.973  1.00  0.00    -0.163 NA
HETATM    3  N   UNL     1     -42.437  55.820 -52.913  1.00  0.00    -0.238 N 
HETATM    4  C   UNL     1     -42.000  55.567 -54.183  1.00  0.00     0.145 A 
HETATM    5  N   UNL     1     -42.514  56.237 -55.246  1.00  0.00    -0.365 N 
HETATM    6  C   UNL     1     -43.394  57.387 -55.059  1.00  0.00     0.118 C 
HETATM    7  C   UNL     1     -44.277  57.160 -53.818  1.00  0.00     0.066 C 
HETATM    8  C   UNL     1     -43.427  56.828 -52.580  1.00  0.00     0.221 C 
HETATM    9  C   UNL     1     -41.057  54.572 -54.058  1.00  0.00     0.115 A 
HETATM   10 CL   UNL     1     -40.160  53.864 -55.312  1.00  0.00    -0.077 Cl
HETATM   11  H   UNL     1     -42.055  56.177 -56.157  1.00  0.00     0.162 HD
ENDROOT
BRANCH   6  12
HETATM   12  C   UNL     1     -44.256  57.610 -56.287  1.00  0.00    -0.035 A 
HETATM   13  C   UNL     1     -43.833  57.230 -57.569  1.00  0.00     0.012 A 
HETATM   14  C   UNL     1     -44.669  57.409 -58.675  1.00  0.00     0.037 A 
HETATM   15  C   UNL     1     -45.944  57.956 -58.525  1.00  0.00     0.068 A 
HETATM   16  C   UNL     1     -46.375  58.337 -57.255  1.00  0.00     0.037 A 
HETATM   17  C   UNL     1     -45.539  58.163 -56.146  1.00  0.00     0.012 A 
BRANCH  15  18
HETATM   18  O   UNL     1     -46.662  58.064 -59.685  1.00  0.00    -0.356 OA
HETATM   19  C   UNL     1     -46.273  59.091 -60.588  1.00  0.00     0.210 C 
ENDBRANCH  15  18
ENDBRANCH   6  12
BRANCH   8  20
HETATM   20  C   UNL     1     -42.743  58.051 -52.010  1.00  0.00     0.409 C 
HETATM   21  F   UNL     1     -43.440  59.189 -52.213  1.00  0.00    -0.169 F 
HETATM   22  F   UNL     1     -42.601  57.917 -50.665  1.00  0.00    -0.169 F 
HETATM   23  F   UNL     1     -41.501  58.234 -52.509  1.00  0.00    -0.169 F 
ENDBRANCH   8  20
BRANCH   1  24
HETATM   24  C   UNL     1     -40.178  53.270 -51.977  1.00  0.00     0.273 C 
HETATM   25  N   UNL     1     -40.170  52.043 -52.608  1.00  0.00    -0.356 N 
HETATM   26  H   UNL     1     -40.778  51.964 -53.420  1.00  0.00     0.162 HD
HETATM   27  O   UNL     1     -39.557  53.497 -50.944  1.00  0.00    -0.266 OA
BRANCH  25  28
HETATM   28  C   UNL     1     -39.500  50.882 -52.073  1.00  0.00     0.122 C 
BRANCH  28  29
HETATM   29  C   UNL     1     -39.588  49.695 -53.027  1.00  0.00     0.015 C 
HETATM   30  C   UNL     1     -40.089  50.118 -54.398  1.00  0.00     0.006 C 
ENDBRANCH  28  29
ENDBRANCH  25  28
ENDBRANCH   1  24
TORSDOF 6
ENDMDL
MODEL 8
REMARK VINA RESULT:      -7.1      2.226      8.115
REMARK  6 active torsions:
REMARK  status: ('A' for Active; 'I' for Inactive)
REMARK    1  A    between atoms: C_2  and  C_3 
REMARK    2  A    between atoms: C_3  and  N_4 
REMARK       I    between atoms: N_4  and  C_5 
REMARK    3  A    between atoms: C_5  and  C_6 
REMARK    4  A    between atoms: C_11  and  C_12 
REMARK    5  A    between atoms: C_15  and  O_16 
REMARK    6  A    between atoms: C_21  and  C_22 
ROOT
HETATM    1  C   UNL     1     -40.888  53.811 -51.590  1.00  0.00     0.170 A 
HETATM    2  N   UNL     1     -40.992  54.143 -52.903  1.00  0.00    -0.163 NA
HETATM    3  N   UNL     1     -41.593  55.343 -52.878  1.00  0.00    -0.238 N 
HETATM    4  C   UNL     1     -41.831  55.829 -51.623  1.00  0.00     0.145 A 
HETATM    5  N   UNL     1     -42.367  57.063 -51.441  1.00  0.00    -0.365 N 
HETATM    6  C   UNL     1     -42.897  57.829 -52.565  1.00  0.00     0.118 C 
HETATM    7  C   UNL     1     -42.040  57.561 -53.817  1.00  0.00     0.066 C 
HETATM    8  C   UNL     1     -41.920  56.054 -54.100  1.00  0.00     0.221 C 
HETATM    9  C   UNL     1     -41.403  54.846 -50.759  1.00  0.00     0.115 A 
HETATM   10 CL   UNL     1     -41.468  54.890 -49.064  1.00  0.00    -0.077 Cl
HETATM   11  H   UNL     1     -42.712  57.338 -50.519  1.00  0.00     0.162 HD
ENDROOT
BRANCH   6  12
HETATM   12  C   UNL     1     -42.916  59.312 -52.245  1.00  0.00    -0.035 A 
HETATM   13  C   UNL     1     -43.361  60.265 -53.172  1.00  0.00     0.012 A 
HETATM   14  C   UNL     1     -43.408  61.619 -52.831  1.00  0.00     0.037 A 
HETATM   15  C   UNL     1     -43.025  62.049 -51.560  1.00  0.00     0.068 A 
HETATM   16  C   UNL     1     -42.581  61.110 -50.631  1.00  0.00     0.037 A 
HETATM   17  C   UNL     1     -42.530  59.753 -50.970  1.00  0.00     0.012 A 
BRANCH  15  18
HETATM   18  O   UNL     1     -43.132  63.398 -51.355  1.00  0.00    -0.356 OA
HETATM   19  C   UNL     1     -42.856  63.872 -50.043  1.00  0.00     0.210 C 
ENDBRANCH  15  18
ENDBRANCH   6  12
BRANCH   8  20
HETATM   20  C   UNL     1     -43.184  55.482 -54.704  1.00  0.00     0.409 C 
HETATM   21  F   UNL     1     -43.903  56.397 -55.389  1.00  0.00    -0.169 F 
HETATM   22  F   UNL     1     -42.871  54.496 -55.585  1.00  0.00    -0.169 F 
HETATM   23  F   UNL     1     -43.997  54.926 -53.781  1.00  0.00    -0.169 F 
ENDBRANCH   8  20
BRANCH   1  24
HETATM   24  C   UNL     1     -40.302  52.523 -51.187  1.00  0.00     0.273 C 
HETATM   25  N   UNL     1     -39.865  51.773 -52.259  1.00  0.00    -0.356 N 
HETATM   26  H   UNL     1     -40.053  52.170 -53.177  1.00  0.00     0.162 HD
HETATM   27  O   UNL     1     -40.216  52.142 -50.024  1.00  0.00    -0.266 OA
BRANCH  25  28
HETATM   28  C   UNL     1     -39.340  50.435 -52.129  1.00  0.00     0.122 C 
BRANCH  28  29
HETATM   29  C   UNL     1     -39.571  49.617 -53.396  1.00  0.00     0.015 C 
HETATM   30  C   UNL     1     -40.328  50.416 -54.445  1.00  0.00     0.006 C 
ENDBRANCH  28  29
ENDBRANCH  25  28
ENDBRANCH   1  24
TORSDOF 6
ENDMDL
MODEL 9
REMARK VINA RESULT:      -7.1      2.369      8.187
REMARK  6 active torsions:
REMARK  status: ('A' for Active; 'I' for Inactive)
REMARK    1  A    between atoms: C_2  and  C_3 
REMARK    2  A    between atoms: C_3  and  N_4 
REMARK       I    between atoms: N_4  and  C_5 
REMARK    3  A    between atoms: C_5  and  C_6 
REMARK    4  A    between atoms: C_11  and  C_12 
REMARK    5  A    between atoms: C_15  and  O_16 
REMARK    6  A    between atoms: C_21  and  C_22 
ROOT
HETATM    1  C   UNL     1     -41.047  54.269 -52.148  1.00  0.00     0.170 A 
HETATM    2  N   UNL     1     -40.917  54.811 -53.387  1.00  0.00    -0.163 NA
HETATM    3  N   UNL     1     -41.937  55.681 -53.459  1.00  0.00    -0.238 N 
HETATM    4  C   UNL     1     -42.683  55.771 -52.318  1.00  0.00     0.145 A 
HETATM    5  N   UNL     1     -43.703  56.662 -52.218  1.00  0.00    -0.365 N 
HETATM    6  C   UNL     1     -44.172  57.406 -53.383  1.00  0.00     0.118 C 
HETATM    7  C   UNL     1     -42.977  57.735 -54.297  1.00  0.00     0.066 C 
HETATM    8  C   UNL     1     -42.180  56.468 -54.654  1.00  0.00     0.221 C 
HETATM    9  C   UNL     1     -42.144  54.849 -51.449  1.00  0.00     0.115 A 
HETATM   10 CL   UNL     1     -42.677  54.508 -49.876  1.00  0.00    -0.077 Cl
HETATM   11  H   UNL     1     -44.366  56.593 -51.443  1.00  0.00     0.162 HD
ENDROOT
BRANCH   6  12
HETATM   12  C   UNL     1     -44.880  58.679 -52.960  1.00  0.00    -0.035 A 
HETATM   13  C   UNL     1     -45.222  59.679 -53.882  1.00  0.00     0.012 A 
HETATM   14  C   UNL     1     -45.913  60.820 -53.468  1.00  0.00     0.037 A 
HETATM   15  C   UNL     1     -46.288  60.983 -52.134  1.00  0.00     0.068 A 
HETATM   16  C   UNL     1     -45.954  59.995 -51.209  1.00  0.00     0.037 A 
HETATM   17  C   UNL     1     -45.258  58.852 -51.620  1.00  0.00     0.012 A 
BRANCH  15  18
HETATM   18  O   UNL     1     -46.970  62.139 -51.867  1.00  0.00    -0.356 OA
HETATM   19  C   UNL     1     -46.774  62.719 -50.584  1.00  0.00     0.210 C 
ENDBRANCH  15  18
ENDBRANCH   6  12
BRANCH   8  20
HETATM   20  C   UNL     1     -42.886  55.621 -55.691  1.00  0.00     0.409 C 
HETATM   21  F   UNL     1     -43.695  54.687 -55.149  1.00  0.00    -0.169 F 
HETATM   22  F   UNL     1     -43.670  56.408 -56.474  1.00  0.00    -0.169 F 
HETATM   23  F   UNL     1     -42.027  54.991 -56.521  1.00  0.00    -0.169 F 
ENDBRANCH   8  20
BRANCH   1  24
HETATM   24  C   UNL     1     -40.119  53.224 -51.687  1.00  0.00     0.273 C 
HETATM   25  N   UNL     1     -40.049  52.150 -52.550  1.00  0.00    -0.356 N 
HETATM   26  H   UNL     1     -40.678  52.188 -53.349  1.00  0.00     0.162 HD
HETATM   27  O   UNL     1     -39.480  53.287 -50.642  1.00  0.00    -0.266 OA
BRANCH  25  28
HETATM   28  C   UNL     1     -39.283  50.959 -52.271  1.00  0.00     0.122 C 
BRANCH  28  29
HETATM   29  C   UNL     1     -39.806  49.760 -53.056  1.00  0.00     0.015 C 
HETATM   30  C   UNL     1     -39.800  50.028 -54.553  1.00  0.00     0.006 C 
ENDBRANCH  28  29
ENDBRANCH  25  28
ENDBRANCH   1  24
TORSDOF 6
ENDMDL
MODEL 10
REMARK VINA RESULT:      -7.0      4.794      6.843
REMARK  6 active torsions:
REMARK  status: ('A' for Active; 'I' for Inactive)
REMARK    1  A    between atoms: C_2  and  C_3 
REMARK    2  A    between atoms: C_3  and  N_4 
REMARK       I    between atoms: N_4  and  C_5 
REMARK    3  A    between atoms: C_5  and  C_6 
REMARK    4  A    between atoms: C_11  and  C_12 
REMARK    5  A    between atoms: C_15  and  O_16 
REMARK    6  A    between atoms: C_21  and  C_22 
ROOT
HETATM    1  C   UNL     1     -42.932  58.730 -58.865  1.00  0.00     0.170 A 
HETATM    2  N   UNL     1     -43.164  59.264 -57.638  1.00  0.00    -0.163 NA
HETATM    3  N   UNL     1     -43.045  58.214 -56.810  1.00  0.00    -0.238 N 
HETATM    4  C   UNL     1     -42.695  57.045 -57.427  1.00  0.00     0.145 A 
HETATM    5  N   UNL     1     -42.467  55.917 -56.708  1.00  0.00    -0.365 N 
HETATM    6  C   UNL     1     -42.784  55.851 -55.285  1.00  0.00     0.118 C 
HETATM    7  C   UNL     1     -42.511  57.220 -54.635  1.00  0.00     0.066 C 
HETATM    8  C   UNL     1     -43.246  58.349 -55.379  1.00  0.00     0.221 C 
HETATM    9  C   UNL     1     -42.633  57.341 -58.770  1.00  0.00     0.115 A 
HETATM   10 CL   UNL     1     -42.259  56.265 -60.027  1.00  0.00    -0.077 Cl
HETATM   11  H   UNL     1     -42.392  55.016 -57.185  1.00  0.00     0.162 HD
ENDROOT
BRANCH   6  12
HETATM   12  C   UNL     1     -41.970  54.770 -54.600  1.00  0.00    -0.035 A 
HETATM   13  C   UNL     1     -40.890  54.141 -55.236  1.00  0.00     0.012 A 
HETATM   14  C   UNL     1     -40.131  53.180 -54.562  1.00  0.00     0.037 A 
HETATM   15  C   UNL     1     -40.424  52.835 -53.242  1.00  0.00     0.068 A 
HETATM   16  C   UNL     1     -41.495  53.454 -52.601  1.00  0.00     0.037 A 
HETATM   17  C   UNL     1     -42.260  54.415 -53.274  1.00  0.00     0.012 A 
BRANCH  15  18
HETATM   18  O   UNL     1     -39.596  51.891 -52.699  1.00  0.00    -0.356 OA
HETATM   19  C   UNL     1     -39.781  51.591 -51.322  1.00  0.00     0.210 C 
ENDBRANCH  15  18
ENDBRANCH   6  12
BRANCH   8  20
HETATM   20  C   UNL     1     -44.727  58.370 -55.069  1.00  0.00     0.409 C 
HETATM   21  F   UNL     1     -45.237  59.619 -55.013  1.00  0.00    -0.169 F 
HETATM   22  F   UNL     1     -45.412  57.714 -56.041  1.00  0.00    -0.169 F 
HETATM   23  F   UNL     1     -45.025  57.751 -53.907  1.00  0.00    -0.169 F 
ENDBRANCH   8  20
BRANCH   1  24
HETATM   24  C   UNL     1     -43.006  59.568 -60.073  1.00  0.00     0.273 C 
HETATM   25  N   UNL     1     -41.851  60.288 -60.298  1.00  0.00    -0.356 N 
HETATM   26  H   UNL     1     -41.132  60.196 -59.584  1.00  0.00     0.162 HD
HETATM   27  O   UNL     1     -43.990  59.634 -60.803  1.00  0.00    -0.266 OA
BRANCH  25  28
HETATM   28  C   UNL     1     -41.713  61.251 -61.364  1.00  0.00     0.122 C 
BRANCH  28  29
HETATM   29  C   UNL     1     -40.787  62.396 -60.967  1.00  0.00     0.015 C 
HETATM   30  C   UNL     1     -39.940  62.860 -62.141  1.00  0.00     0.006 C 
ENDBRANCH  28  29
ENDBRANCH  25  28
ENDBRANCH   1  24
TORSDOF 6
ENDMDL
