MODEL 1
REMARK VINA RESULT:      -8.9      0.000      0.000
REMARK  6 active torsions:
REMARK  status: ('A' for Active; 'I' for Inactive)
REMARK    1  A    between atoms: N_6  and  C_7 
REMARK    2  A    between atoms: C_8  and  N_9 
REMARK    3  A    between atoms: N_9  and  C_10 
REMARK    4  A    between atoms: C_10  and  N_11 
REMARK       I    between atoms: N_11  and  C_12 
REMARK    5  A    between atoms: C_12  and  C_13 
REMARK    6  A    between atoms: C_14  and  O_15 
ROOT
HETATM    1  C   UNL     1     -43.163  59.626 -55.033  1.00  0.00     0.179 C 
HETATM    2  S   UNL     1     -44.666  60.307 -55.362  1.00  0.00    -0.040 SA
ENDROOT
BRANCH   1   3
HETATM    3  N   UNL     1     -42.219  59.290 -56.004  1.00  0.00    -0.331 N 
HETATM    4  H   UNL     1     -41.631  58.493 -55.775  1.00  0.00     0.168 HD
BRANCH   3   5
HETATM    5  C   UNL     1     -42.327  59.556 -57.392  1.00  0.00     0.061 A 
HETATM    6  C   UNL     1     -42.946  58.613 -58.256  1.00  0.00     0.057 A 
HETATM    7  C   UNL     1     -42.752  58.826 -59.636  1.00  0.00     0.031 A 
HETATM    8  C   UNL     1     -42.093  59.958 -60.135  1.00  0.00     0.002 A 
HETATM    9  C   UNL     1     -41.576  60.904 -59.267  1.00  0.00     0.002 A 
HETATM   10  C   UNL     1     -41.673  60.694 -57.897  1.00  0.00     0.032 A 
BRANCH   6  11
HETATM   11  N   UNL     1     -43.728  57.537 -57.759  1.00  0.00    -0.376 N 
HETATM   12  C   UNL     1     -43.194  56.155 -57.875  1.00  0.00     0.150 C 
HETATM   13  C   UNL     1     -43.445  55.539 -59.278  1.00  0.00     0.254 C 
HETATM   14  N   UNL     1     -44.916  55.640 -59.680  1.00  0.00    -0.072 N 
HETATM   15  C   UNL     1     -45.162  55.113 -61.062  1.00  0.00     0.269 C 
HETATM   16  H   UNL     1     -45.451  55.055 -59.024  1.00  0.00     0.279 HD
HETATM   17  C   UNL     1     -45.437  57.070 -59.531  1.00  0.00     0.254 C 
HETATM   18  C   UNL     1     -45.180  57.579 -58.101  1.00  0.00     0.150 C 
ENDBRANCH   6  11
ENDBRANCH   3   5
ENDBRANCH   1   3
BRANCH   1  19
HETATM   19  N   UNL     1     -42.705  59.254 -53.771  1.00  0.00    -0.299 N 
HETATM   20  C   UNL     1     -41.431  58.765 -53.549  1.00  0.00     0.260 C 
HETATM   21  O   UNL     1     -40.431  59.467 -53.664  1.00  0.00    -0.267 OA
HETATM   22  H   UNL     1     -43.424  58.770 -53.246  1.00  0.00     0.171 HD
BRANCH  20  23
HETATM   23  C   UNL     1     -41.298  57.344 -53.105  1.00  0.00     0.068 C 
HETATM   24  C   UNL     1     -41.599  56.866 -51.821  1.00  0.00     0.102 C 
HETATM   25  C   UNL     1     -41.339  55.509 -51.515  1.00  0.00     0.056 C 
HETATM   26 BR   UNL     1     -41.423  54.919 -49.689  1.00  0.00    -0.047 Br
HETATM   27  C   UNL     1     -40.935  54.584 -52.525  1.00  0.00    -0.006 A 
HETATM   28  C   UNL     1     -40.717  55.080 -53.831  1.00  0.00    -0.024 A 
HETATM   29  C   UNL     1     -40.739  53.192 -52.328  1.00  0.00     0.014 A 
HETATM   30  C   UNL     1     -40.868  56.445 -54.093  1.00  0.00     0.032 C 
HETATM   31  C   UNL     1     -40.339  54.215 -54.871  1.00  0.00     0.012 A 
HETATM   32  C   UNL     1     -40.171  52.851 -54.646  1.00  0.00     0.001 A 
HETATM   33  C   UNL     1     -40.368  52.339 -53.372  1.00  0.00     0.001 A 
BRANCH  24  34
HETATM   34  O   UNL     1     -42.068  57.767 -50.891  1.00  0.00    -0.353 OA
HETATM   35  C   UNL     1     -41.025  58.533 -50.268  1.00  0.00     0.210 C 
ENDBRANCH  24  34
ENDBRANCH  20  23
ENDBRANCH   1  19
TORSDOF 6
ENDMDL
MODEL 2
REMARK VINA RESULT:      -8.8      1.744      2.263
REMARK  6 active torsions:
REMARK  status: ('A' for Active; 'I' for Inactive)
REMARK    1  A    between atoms: N_6  and  C_7 
REMARK    2  A    between atoms: C_8  and  N_9 
REMARK    3  A    between atoms: N_9  and  C_10 
REMARK    4  A    between atoms: C_10  and  N_11 
REMARK       I    between atoms: N_11  and  C_12 
REMARK    5  A    between atoms: C_12  and  C_13 
REMARK    6  A    between atoms: C_14  and  O_15 
ROOT
HETATM    1  C   UNL     1     -41.794  58.208 -54.596  1.00  0.00     0.179 C 
HETATM    2  S   UNL     1     -40.972  58.962 -53.336  1.00  0.00    -0.040 SA
ENDROOT
BRANCH   1   3
HETATM    3  N   UNL     1     -42.792  58.814 -55.360  1.00  0.00    -0.331 N 
HETATM    4  H   UNL     1     -43.497  59.316 -54.828  1.00  0.00     0.168 HD
BRANCH   3   5
HETATM    5  C   UNL     1     -42.662  59.241 -56.706  1.00  0.00     0.061 A 
HETATM    6  C   UNL     1     -43.133  58.420 -57.765  1.00  0.00     0.057 A 
HETATM    7  C   UNL     1     -42.707  58.784 -59.059  1.00  0.00     0.031 A 
HETATM    8  C   UNL     1     -41.964  59.948 -59.304  1.00  0.00     0.002 A 
HETATM    9  C   UNL     1     -41.595  60.774 -58.257  1.00  0.00     0.002 A 
HETATM   10  C   UNL     1     -41.923  60.410 -56.957  1.00  0.00     0.032 A 
BRANCH   6  11
HETATM   11  N   UNL     1     -43.996  57.315 -57.536  1.00  0.00    -0.376 N 
HETATM   12  C   UNL     1     -43.925  56.152 -58.459  1.00  0.00     0.150 C 
HETATM   13  C   UNL     1     -44.746  56.377 -59.758  1.00  0.00     0.254 C 
HETATM   14  N   UNL     1     -46.182  56.799 -59.448  1.00  0.00    -0.072 N 
HETATM   15  C   UNL     1     -46.966  57.088 -60.692  1.00  0.00     0.269 C 
HETATM   16  H   UNL     1     -46.635  56.009 -58.971  1.00  0.00     0.279 HD
HETATM   17  C   UNL     1     -46.217  57.985 -58.483  1.00  0.00     0.254 C 
HETATM   18  C   UNL     1     -45.412  57.655 -57.212  1.00  0.00     0.150 C 
ENDBRANCH   6  11
ENDBRANCH   3   5
ENDBRANCH   1   3
BRANCH   1  19
HETATM   19  N   UNL     1     -41.632  56.880 -54.984  1.00  0.00    -0.299 N 
HETATM   20  C   UNL     1     -42.386  55.848 -54.459  1.00  0.00     0.260 C 
HETATM   21  O   UNL     1     -43.586  55.730 -54.691  1.00  0.00    -0.267 OA
HETATM   22  H   UNL     1     -40.653  56.649 -55.105  1.00  0.00     0.171 HD
BRANCH  20  23
HETATM   23  C   UNL     1     -41.682  54.825 -53.628  1.00  0.00     0.068 C 
HETATM   24  C   UNL     1     -41.370  54.963 -52.267  1.00  0.00     0.102 C 
HETATM   25  C   UNL     1     -40.618  53.948 -51.628  1.00  0.00     0.056 C 
HETATM   26 BR   UNL     1     -39.896  54.267 -49.878  1.00  0.00    -0.047 Br
HETATM   27  C   UNL     1     -40.316  52.720 -52.291  1.00  0.00    -0.006 A 
HETATM   28  C   UNL     1     -40.714  52.577 -53.640  1.00  0.00    -0.024 A 
HETATM   29  C   UNL     1     -39.647  51.615 -51.700  1.00  0.00     0.014 A 
HETATM   30  C   UNL     1     -41.357  53.633 -54.293  1.00  0.00     0.032 C 
HETATM   31  C   UNL     1     -40.463  51.383 -54.337  1.00  0.00     0.012 A 
HETATM   32  C   UNL     1     -39.818  50.314 -53.722  1.00  0.00     0.001 A 
HETATM   33  C   UNL     1     -39.407  50.430 -52.403  1.00  0.00     0.001 A 
BRANCH  24  34
HETATM   34  O   UNL     1     -41.750  56.125 -51.632  1.00  0.00    -0.353 OA
HETATM   35  C   UNL     1     -43.034  56.029 -50.996  1.00  0.00     0.210 C 
ENDBRANCH  24  34
ENDBRANCH  20  23
ENDBRANCH   1  19
TORSDOF 6
ENDMDL
MODEL 3
REMARK VINA RESULT:      -8.8      3.494      6.026
REMARK  6 active torsions:
REMARK  status: ('A' for Active; 'I' for Inactive)
REMARK    1  A    between atoms: N_6  and  C_7 
REMARK    2  A    between atoms: C_8  and  N_9 
REMARK    3  A    between atoms: N_9  and  C_10 
REMARK    4  A    between atoms: C_10  and  N_11 
REMARK       I    between atoms: N_11  and  C_12 
REMARK    5  A    between atoms: C_12  and  C_13 
REMARK    6  A    between atoms: C_14  and  O_15 
ROOT
HETATM    1  C   UNL     1     -42.347  57.610 -54.616  1.00  0.00     0.179 C 
HETATM    2  S   UNL     1     -43.980  57.410 -54.964  1.00  0.00    -0.040 SA
ENDROOT
BRANCH   1   3
HETATM    3  N   UNL     1     -41.787  58.782 -54.105  1.00  0.00    -0.331 N 
HETATM    4  H   UNL     1     -41.931  59.612 -54.673  1.00  0.00     0.168 HD
BRANCH   3   5
HETATM    5  C   UNL     1     -41.529  59.049 -52.737  1.00  0.00     0.061 A 
HETATM    6  C   UNL     1     -42.523  59.663 -51.928  1.00  0.00     0.057 A 
HETATM    7  C   UNL     1     -42.083  60.147 -50.679  1.00  0.00     0.031 A 
HETATM    8  C   UNL     1     -40.780  59.934 -50.208  1.00  0.00     0.002 A 
HETATM    9  C   UNL     1     -39.859  59.255 -50.986  1.00  0.00     0.002 A 
HETATM   10  C   UNL     1     -40.225  58.832 -52.258  1.00  0.00     0.032 A 
BRANCH   6  11
HETATM   11  N   UNL     1     -43.877  59.764 -52.344  1.00  0.00    -0.376 N 
HETATM   12  C   UNL     1     -44.396  61.090 -52.767  1.00  0.00     0.150 C 
HETATM   13  C   UNL     1     -44.821  61.971 -51.561  1.00  0.00     0.254 C 
HETATM   14  N   UNL     1     -45.784  61.227 -50.635  1.00  0.00    -0.072 N 
HETATM   15  C   UNL     1     -46.148  62.039 -49.429  1.00  0.00     0.269 C 
HETATM   16  H   UNL     1     -46.646  61.056 -51.167  1.00  0.00     0.279 HD
HETATM   17  C   UNL     1     -45.226  59.860 -50.235  1.00  0.00     0.254 C 
HETATM   18  C   UNL     1     -44.871  59.047 -51.493  1.00  0.00     0.150 C 
ENDBRANCH   6  11
ENDBRANCH   3   5
ENDBRANCH   1   3
BRANCH   1  19
HETATM   19  N   UNL     1     -41.349  56.668 -54.856  1.00  0.00    -0.299 N 
HETATM   20  C   UNL     1     -41.620  55.330 -55.079  1.00  0.00     0.260 C 
HETATM   21  O   UNL     1     -42.184  54.936 -56.095  1.00  0.00    -0.267 OA
HETATM   22  H   UNL     1     -40.542  56.828 -54.266  1.00  0.00     0.171 HD
BRANCH  20  23
HETATM   23  C   UNL     1     -41.151  54.346 -54.056  1.00  0.00     0.068 C 
HETATM   24  C   UNL     1     -41.106  54.576 -52.672  1.00  0.00     0.102 C 
HETATM   25  C   UNL     1     -40.552  53.584 -51.829  1.00  0.00     0.056 C 
HETATM   26 BR   UNL     1     -40.174  54.006 -49.995  1.00  0.00    -0.047 Br
HETATM   27  C   UNL     1     -40.192  52.297 -52.334  1.00  0.00    -0.006 A 
HETATM   28  C   UNL     1     -40.323  52.067 -53.723  1.00  0.00    -0.024 A 
HETATM   29  C   UNL     1     -39.714  51.215 -51.547  1.00  0.00     0.014 A 
HETATM   30  C   UNL     1     -40.765  53.096 -54.561  1.00  0.00     0.032 C 
HETATM   31  C   UNL     1     -40.004  50.815 -54.274  1.00  0.00     0.012 A 
HETATM   32  C   UNL     1     -39.553  49.770 -53.471  1.00  0.00     0.001 A 
HETATM   33  C   UNL     1     -39.405  49.971 -52.107  1.00  0.00     0.001 A 
BRANCH  24  34
HETATM   34  O   UNL     1     -41.540  55.797 -52.207  1.00  0.00    -0.353 OA
HETATM   35  C   UNL     1     -42.859  55.752 -51.642  1.00  0.00     0.210 C 
ENDBRANCH  24  34
ENDBRANCH  20  23
ENDBRANCH   1  19
TORSDOF 6
ENDMDL
MODEL 4
REMARK VINA RESULT:      -8.7      3.245      5.527
REMARK  6 active torsions:
REMARK  status: ('A' for Active; 'I' for Inactive)
REMARK    1  A    between atoms: N_6  and  C_7 
REMARK    2  A    between atoms: C_8  and  N_9 
REMARK    3  A    between atoms: N_9  and  C_10 
REMARK    4  A    between atoms: C_10  and  N_11 
REMARK       I    between atoms: N_11  and  C_12 
REMARK    5  A    between atoms: C_12  and  C_13 
REMARK    6  A    between atoms: C_14  and  O_15 
ROOT
HETATM    1  C   UNL     1     -43.265  55.906 -55.008  1.00  0.00     0.179 C 
HETATM    2  S   UNL     1     -42.913  55.192 -56.489  1.00  0.00    -0.040 SA
ENDROOT
BRANCH   1   3
HETATM    3  N   UNL     1     -44.466  56.550 -54.708  1.00  0.00    -0.331 N 
HETATM    4  H   UNL     1     -45.058  56.067 -54.038  1.00  0.00     0.168 HD
BRANCH   3   5
HETATM    5  C   UNL     1     -44.705  57.945 -54.799  1.00  0.00     0.061 A 
HETATM    6  C   UNL     1     -44.743  58.742 -53.623  1.00  0.00     0.057 A 
HETATM    7  C   UNL     1     -45.266  60.041 -53.781  1.00  0.00     0.031 A 
HETATM    8  C   UNL     1     -45.616  60.562 -55.035  1.00  0.00     0.002 A 
HETATM    9  C   UNL     1     -45.485  59.787 -56.175  1.00  0.00     0.002 A 
HETATM   10  C   UNL     1     -45.051  58.473 -56.055  1.00  0.00     0.032 A 
BRANCH   6  11
HETATM   11  N   UNL     1     -44.266  58.266 -52.374  1.00  0.00    -0.376 N 
HETATM   12  C   UNL     1     -45.242  58.041 -51.276  1.00  0.00     0.150 C 
HETATM   13  C   UNL     1     -45.589  59.349 -50.515  1.00  0.00     0.254 C 
HETATM   14  N   UNL     1     -44.328  60.075 -50.046  1.00  0.00    -0.072 N 
HETATM   15  C   UNL     1     -44.644  61.376 -49.371  1.00  0.00     0.269 C 
HETATM   16  H   UNL     1     -43.869  59.469 -49.354  1.00  0.00     0.279 HD
HETATM   17  C   UNL     1     -43.339  60.273 -51.195  1.00  0.00     0.254 C 
HETATM   18  C   UNL     1     -43.027  58.920 -51.861  1.00  0.00     0.150 C 
ENDBRANCH   6  11
ENDBRANCH   3   5
ENDBRANCH   1   3
BRANCH   1  19
HETATM   19  N   UNL     1     -42.387  56.003 -53.930  1.00  0.00    -0.299 N 
HETATM   20  C   UNL     1     -41.112  55.468 -53.951  1.00  0.00     0.260 C 
HETATM   21  O   UNL     1     -40.224  55.921 -54.667  1.00  0.00    -0.267 OA
HETATM   22  H   UNL     1     -42.870  55.872 -53.049  1.00  0.00     0.171 HD
BRANCH  20  23
HETATM   23  C   UNL     1     -40.818  54.336 -53.021  1.00  0.00     0.068 C 
HETATM   24  C   UNL     1     -40.930  54.385 -51.623  1.00  0.00     0.102 C 
HETATM   25  C   UNL     1     -40.530  53.262 -50.862  1.00  0.00     0.056 C 
HETATM   26 BR   UNL     1     -40.356  53.424 -48.957  1.00  0.00    -0.047 Br
HETATM   27  C   UNL     1     -40.175  52.029 -51.489  1.00  0.00    -0.006 A 
HETATM   28  C   UNL     1     -40.148  51.985 -52.902  1.00  0.00    -0.024 A 
HETATM   29  C   UNL     1     -39.848  50.828 -50.804  1.00  0.00     0.014 A 
HETATM   30  C   UNL     1     -40.436  53.137 -53.641  1.00  0.00     0.032 C 
HETATM   31  C   UNL     1     -39.827  50.794 -53.575  1.00  0.00     0.012 A 
HETATM   32  C   UNL     1     -39.527  49.630 -52.872  1.00  0.00     0.001 A 
HETATM   33  C   UNL     1     -39.534  49.647 -51.485  1.00  0.00     0.001 A 
BRANCH  24  34
HETATM   34  O   UNL     1     -41.357  55.563 -51.052  1.00  0.00    -0.353 OA
HETATM   35  C   UNL     1     -42.686  55.482 -50.512  1.00  0.00     0.210 C 
ENDBRANCH  24  34
ENDBRANCH  20  23
ENDBRANCH   1  19
TORSDOF 6
ENDMDL
MODEL 5
REMARK VINA RESULT:      -8.4      2.376      3.639
REMARK  6 active torsions:
REMARK  status: ('A' for Active; 'I' for Inactive)
REMARK    1  A    between atoms: N_6  and  C_7 
REMARK    2  A    between atoms: C_8  and  N_9 
REMARK    3  A    between atoms: N_9  and  C_10 
REMARK    4  A    between atoms: C_10  and  N_11 
REMARK       I    between atoms: N_11  and  C_12 
REMARK    5  A    between atoms: C_12  and  C_13 
REMARK    6  A    between atoms: C_14  and  O_15 
ROOT
HETATM    1  C   UNL     1     -42.618  57.166 -56.580  1.00  0.00     0.179 C 
HETATM    2  S   UNL     1     -42.415  58.579 -55.691  1.00  0.00    -0.040 SA
ENDROOT
BRANCH   1   3
HETATM    3  N   UNL     1     -42.543  57.091 -57.972  1.00  0.00    -0.331 N 
HETATM    4  H   UNL     1     -41.605  56.985 -58.347  1.00  0.00     0.168 HD
BRANCH   3   5
HETATM    5  C   UNL     1     -43.573  56.637 -58.834  1.00  0.00     0.061 A 
HETATM    6  C   UNL     1     -44.805  57.341 -58.908  1.00  0.00     0.057 A 
HETATM    7  C   UNL     1     -45.858  56.665 -59.559  1.00  0.00     0.031 A 
HETATM    8  C   UNL     1     -45.676  55.431 -60.198  1.00  0.00     0.002 A 
HETATM    9  C   UNL     1     -44.437  54.812 -60.182  1.00  0.00     0.002 A 
HETATM   10  C   UNL     1     -43.393  55.403 -59.482  1.00  0.00     0.032 A 
BRANCH   6  11
HETATM   11  N   UNL     1     -44.959  58.649 -58.378  1.00  0.00    -0.376 N 
HETATM   12  C   UNL     1     -46.065  58.904 -57.418  1.00  0.00     0.150 C 
HETATM   13  C   UNL     1     -47.421  59.156 -58.130  1.00  0.00     0.254 C 
HETATM   14  N   UNL     1     -47.300  60.246 -59.195  1.00  0.00    -0.072 N 
HETATM   15  C   UNL     1     -48.585  60.452 -59.940  1.00  0.00     0.269 C 
HETATM   16  H   UNL     1     -47.079  61.124 -58.708  1.00  0.00     0.279 HD
HETATM   17  C   UNL     1     -46.143  59.962 -60.154  1.00  0.00     0.254 C 
HETATM   18  C   UNL     1     -44.838  59.765 -59.361  1.00  0.00     0.150 C 
ENDBRANCH   6  11
ENDBRANCH   3   5
ENDBRANCH   1   3
BRANCH   1  19
HETATM   19  N   UNL     1     -42.950  55.920 -56.050  1.00  0.00    -0.299 N 
HETATM   20  C   UNL     1     -43.359  55.747 -54.741  1.00  0.00     0.260 C 
HETATM   21  O   UNL     1     -44.437  56.167 -54.330  1.00  0.00    -0.267 OA
HETATM   22  H   UNL     1     -42.317  55.201 -56.378  1.00  0.00     0.171 HD
BRANCH  20  23
HETATM   23  C   UNL     1     -42.463  54.973 -53.829  1.00  0.00     0.068 C 
HETATM   24  C   UNL     1     -42.190  55.299 -52.492  1.00  0.00     0.102 C 
HETATM   25  C   UNL     1     -41.249  54.524 -51.774  1.00  0.00     0.056 C 
HETATM   26 BR   UNL     1     -40.615  55.146 -50.072  1.00  0.00    -0.047 Br
HETATM   27  C   UNL     1     -40.698  53.327 -52.325  1.00  0.00    -0.006 A 
HETATM   28  C   UNL     1     -41.053  52.980 -53.649  1.00  0.00    -0.024 A 
HETATM   29  C   UNL     1     -39.819  52.443 -51.645  1.00  0.00     0.014 A 
HETATM   30  C   UNL     1     -41.896  53.816 -54.387  1.00  0.00     0.032 C 
HETATM   31  C   UNL     1     -40.559  51.804 -54.237  1.00  0.00     0.012 A 
HETATM   32  C   UNL     1     -39.711  50.951 -53.535  1.00  0.00     0.001 A 
HETATM   33  C   UNL     1     -39.337  51.273 -52.239  1.00  0.00     0.001 A 
BRANCH  24  34
HETATM   34  O   UNL     1     -42.804  56.412 -51.962  1.00  0.00    -0.353 OA
HETATM   35  C   UNL     1     -43.814  56.094 -50.992  1.00  0.00     0.210 C 
ENDBRANCH  24  34
ENDBRANCH  20  23
ENDBRANCH   1  19
TORSDOF 6
ENDMDL
MODEL 6
REMARK VINA RESULT:      -8.4      1.529      2.838
REMARK  6 active torsions:
REMARK  status: ('A' for Active; 'I' for Inactive)
REMARK    1  A    between atoms: N_6  and  C_7 
REMARK    2  A    between atoms: C_8  and  N_9 
REMARK    3  A    between atoms: N_9  and  C_10 
REMARK    4  A    between atoms: C_10  and  N_11 
REMARK       I    between atoms: N_11  and  C_12 
REMARK    5  A    between atoms: C_12  and  C_13 
REMARK    6  A    between atoms: C_14  and  O_15 
ROOT
HETATM    1  C   UNL     1     -43.582  58.599 -55.250  1.00  0.00     0.179 C 
HETATM    2  S   UNL     1     -45.189  58.972 -55.578  1.00  0.00    -0.040 SA
ENDROOT
BRANCH   1   3
HETATM    3  N   UNL     1     -42.612  58.364 -56.225  1.00  0.00    -0.331 N 
HETATM    4  H   UNL     1     -41.652  58.379 -55.891  1.00  0.00     0.168 HD
BRANCH   3   5
HETATM    5  C   UNL     1     -42.801  57.629 -57.423  1.00  0.00     0.061 A 
HETATM    6  C   UNL     1     -43.068  58.307 -58.643  1.00  0.00     0.057 A 
HETATM    7  C   UNL     1     -43.524  57.499 -59.705  1.00  0.00     0.031 A 
HETATM    8  C   UNL     1     -43.597  56.103 -59.608  1.00  0.00     0.002 A 
HETATM    9  C   UNL     1     -43.246  55.465 -58.430  1.00  0.00     0.002 A 
HETATM   10  C   UNL     1     -42.870  56.228 -57.332  1.00  0.00     0.032 A 
BRANCH   6  11
HETATM   11  N   UNL     1     -42.869  59.705 -58.787  1.00  0.00    -0.376 N 
HETATM   12  C   UNL     1     -44.058  60.598 -58.795  1.00  0.00     0.150 C 
HETATM   13  C   UNL     1     -44.736  60.666 -60.190  1.00  0.00     0.254 C 
HETATM   14  N   UNL     1     -43.730  61.012 -61.287  1.00  0.00    -0.072 N 
HETATM   15  C   UNL     1     -44.357  61.012 -62.649  1.00  0.00     0.269 C 
HETATM   16  H   UNL     1     -43.391  61.964 -61.100  1.00  0.00     0.279 HD
HETATM   17  C   UNL     1     -42.513  60.087 -61.238  1.00  0.00     0.254 C 
HETATM   18  C   UNL     1     -41.886  60.115 -59.832  1.00  0.00     0.150 C 
ENDBRANCH   6  11
ENDBRANCH   3   5
ENDBRANCH   1   3
BRANCH   1  19
HETATM   19  N   UNL     1     -43.039  58.413 -53.980  1.00  0.00    -0.299 N 
HETATM   20  C   UNL     1     -41.708  58.104 -53.771  1.00  0.00     0.260 C 
HETATM   21  O   UNL     1     -40.807  58.906 -53.997  1.00  0.00    -0.267 OA
HETATM   22  H   UNL     1     -43.675  57.901 -53.380  1.00  0.00     0.171 HD
BRANCH  20  23
HETATM   23  C   UNL     1     -41.386  56.761 -53.200  1.00  0.00     0.068 C 
HETATM   24  C   UNL     1     -41.509  56.406 -51.848  1.00  0.00     0.102 C 
HETATM   25  C   UNL     1     -41.081  55.123 -51.434  1.00  0.00     0.056 C 
HETATM   26 BR   UNL     1     -40.925  54.737 -49.559  1.00  0.00    -0.047 Br
HETATM   27  C   UNL     1     -40.684  54.130 -52.381  1.00  0.00    -0.006 A 
HETATM   28  C   UNL     1     -40.647  54.493 -53.747  1.00  0.00    -0.024 A 
HETATM   29  C   UNL     1     -40.327  52.793 -52.064  1.00  0.00     0.014 A 
HETATM   30  C   UNL     1     -40.963  55.800 -54.130  1.00  0.00     0.032 C 
HETATM   31  C   UNL     1     -40.284  53.554 -54.727  1.00  0.00     0.012 A 
HETATM   32  C   UNL     1     -39.954  52.246 -54.382  1.00  0.00     0.001 A 
HETATM   33  C   UNL     1     -39.972  51.866 -53.049  1.00  0.00     0.001 A 
BRANCH  24  34
HETATM   34  O   UNL     1     -41.976  57.359 -50.970  1.00  0.00    -0.353 OA
HETATM   35  C   UNL     1     -40.950  58.246 -50.498  1.00  0.00     0.210 C 
ENDBRANCH  24  34
ENDBRANCH  20  23
ENDBRANCH   1  19
TORSDOF 6
ENDMDL
MODEL 7
REMARK VINA RESULT:      -7.8      2.161      3.032
REMARK  6 active torsions:
REMARK  status: ('A' for Active; 'I' for Inactive)
REMARK    1  A    between atoms: N_6  and  C_7 
REMARK    2  A    between atoms: C_8  and  N_9 
REMARK    3  A    between atoms: N_9  and  C_10 
REMARK    4  A    between atoms: C_10  and  N_11 
REMARK       I    between atoms: N_11  and  C_12 
REMARK    5  A    between atoms: C_12  and  C_13 
REMARK    6  A    between atoms: C_14  and  O_15 
ROOT
HETATM    1  C   UNL     1     -42.904  56.654 -55.993  1.00  0.00     0.179 C 
HETATM    2  S   UNL     1     -42.937  55.370 -57.079  1.00  0.00    -0.040 SA
ENDROOT
BRANCH   1   3
HETATM    3  N   UNL     1     -42.877  58.000 -56.363  1.00  0.00    -0.331 N 
HETATM    4  H   UNL     1     -42.159  58.246 -57.038  1.00  0.00     0.168 HD
BRANCH   3   5
HETATM    5  C   UNL     1     -43.979  58.891 -56.330  1.00  0.00     0.061 A 
HETATM    6  C   UNL     1     -44.740  59.129 -57.506  1.00  0.00     0.057 A 
HETATM    7  C   UNL     1     -45.619  60.231 -57.454  1.00  0.00     0.031 A 
HETATM    8  C   UNL     1     -45.822  60.974 -56.283  1.00  0.00     0.002 A 
HETATM    9  C   UNL     1     -45.127  60.661 -55.128  1.00  0.00     0.002 A 
HETATM   10  C   UNL     1     -44.190  59.635 -55.156  1.00  0.00     0.032 A 
BRANCH   6  11
HETATM   11  N   UNL     1     -44.637  58.298 -58.653  1.00  0.00    -0.376 N 
HETATM   12  C   UNL     1     -44.011  58.852 -59.881  1.00  0.00     0.150 C 
HETATM   13  C   UNL     1     -45.007  59.695 -60.724  1.00  0.00     0.254 C 
HETATM   14  N   UNL     1     -46.292  58.920 -61.013  1.00  0.00    -0.072 N 
HETATM   15  C   UNL     1     -47.292  59.746 -61.765  1.00  0.00     0.269 C 
HETATM   16  H   UNL     1     -46.039  58.121 -61.607  1.00  0.00     0.279 HD
HETATM   17  C   UNL     1     -46.899  58.349 -59.730  1.00  0.00     0.254 C 
HETATM   18  C   UNL     1     -45.853  57.499 -58.985  1.00  0.00     0.150 C 
ENDBRANCH   6  11
ENDBRANCH   3   5
ENDBRANCH   1   3
BRANCH   1  19
HETATM   19  N   UNL     1     -42.832  56.537 -54.607  1.00  0.00    -0.299 N 
HETATM   20  C   UNL     1     -41.639  56.595 -53.910  1.00  0.00     0.260 C 
HETATM   21  O   UNL     1     -40.984  57.629 -53.819  1.00  0.00    -0.267 OA
HETATM   22  H   UNL     1     -43.470  55.828 -54.264  1.00  0.00     0.171 HD
BRANCH  20  23
HETATM   23  C   UNL     1     -41.181  55.356 -53.210  1.00  0.00     0.068 C 
HETATM   24  C   UNL     1     -41.101  55.196 -51.819  1.00  0.00     0.102 C 
HETATM   25  C   UNL     1     -40.563  53.997 -51.295  1.00  0.00     0.056 C 
HETATM   26 BR   UNL     1     -40.135  53.889 -49.426  1.00  0.00    -0.047 Br
HETATM   27  C   UNL     1     -40.254  52.890 -52.143  1.00  0.00    -0.006 A 
HETATM   28  C   UNL     1     -40.420  53.054 -53.538  1.00  0.00    -0.024 A 
HETATM   29  C   UNL     1     -39.795  51.622 -51.697  1.00  0.00     0.014 A 
HETATM   30  C   UNL     1     -40.845  54.283 -54.049  1.00  0.00     0.032 C 
HETATM   31  C   UNL     1     -40.152  51.993 -54.419  1.00  0.00     0.012 A 
HETATM   32  C   UNL     1     -39.718  50.758 -53.946  1.00  0.00     0.001 A 
HETATM   33  C   UNL     1     -39.536  50.572 -52.585  1.00  0.00     0.001 A 
BRANCH  24  34
HETATM   34  O   UNL     1     -41.487  56.253 -51.024  1.00  0.00    -0.353 OA
HETATM   35  C   UNL     1     -42.875  56.207 -50.655  1.00  0.00     0.210 C 
ENDBRANCH  24  34
ENDBRANCH  20  23
ENDBRANCH   1  19
TORSDOF 6
ENDMDL
MODEL 8
REMARK VINA RESULT:      -7.8      1.687      2.161
REMARK  6 active torsions:
REMARK  status: ('A' for Active; 'I' for Inactive)
REMARK    1  A    between atoms: N_6  and  C_7 
REMARK    2  A    between atoms: C_8  and  N_9 
REMARK    3  A    between atoms: N_9  and  C_10 
REMARK    4  A    between atoms: C_10  and  N_11 
REMARK       I    between atoms: N_11  and  C_12 
REMARK    5  A    between atoms: C_12  and  C_13 
REMARK    6  A    between atoms: C_14  and  O_15 
ROOT
HETATM    1  C   UNL     1     -44.041  59.536 -55.230  1.00  0.00     0.179 C 
HETATM    2  S   UNL     1     -44.762  61.010 -55.601  1.00  0.00    -0.040 SA
ENDROOT
BRANCH   1   3
HETATM    3  N   UNL     1     -44.038  58.425 -56.074  1.00  0.00    -0.331 N 
HETATM    4  H   UNL     1     -44.735  57.717 -55.856  1.00  0.00     0.168 HD
BRANCH   3   5
HETATM    5  C   UNL     1     -43.585  58.405 -57.417  1.00  0.00     0.061 A 
HETATM    6  C   UNL     1     -44.498  58.150 -58.476  1.00  0.00     0.057 A 
HETATM    7  C   UNL     1     -43.919  57.865 -59.729  1.00  0.00     0.031 A 
HETATM    8  C   UNL     1     -42.537  57.942 -59.952  1.00  0.00     0.002 A 
HETATM    9  C   UNL     1     -41.681  58.278 -58.917  1.00  0.00     0.002 A 
HETATM   10  C   UNL     1     -42.201  58.487 -57.647  1.00  0.00     0.032 A 
BRANCH   6  11
HETATM   11  N   UNL     1     -45.905  58.201 -58.287  1.00  0.00    -0.376 N 
HETATM   12  C   UNL     1     -46.753  57.188 -58.967  1.00  0.00     0.150 C 
HETATM   13  C   UNL     1     -47.053  57.564 -60.443  1.00  0.00     0.254 C 
HETATM   14  N   UNL     1     -47.617  58.980 -60.558  1.00  0.00    -0.072 N 
HETATM   15  C   UNL     1     -47.845  59.384 -61.984  1.00  0.00     0.269 C 
HETATM   16  H   UNL     1     -48.528  58.984 -60.083  1.00  0.00     0.279 HD
HETATM   17  C   UNL     1     -46.729  59.993 -59.832  1.00  0.00     0.254 C 
HETATM   18  C   UNL     1     -46.521  59.557 -58.369  1.00  0.00     0.150 C 
ENDBRANCH   6  11
ENDBRANCH   3   5
ENDBRANCH   1   3
BRANCH   1  19
HETATM   19  N   UNL     1     -43.423  59.222 -54.021  1.00  0.00    -0.299 N 
HETATM   20  C   UNL     1     -42.113  58.787 -53.940  1.00  0.00     0.260 C 
HETATM   21  O   UNL     1     -41.162  59.522 -54.191  1.00  0.00    -0.267 OA
HETATM   22  H   UNL     1     -44.055  58.729 -53.402  1.00  0.00     0.171 HD
BRANCH  20  23
HETATM   23  C   UNL     1     -41.872  57.387 -53.476  1.00  0.00     0.068 C 
HETATM   24  C   UNL     1     -42.253  56.870 -52.228  1.00  0.00     0.102 C 
HETATM   25  C   UNL     1     -41.879  55.549 -51.888  1.00  0.00     0.056 C 
HETATM   26 BR   UNL     1     -42.092  54.942 -50.079  1.00  0.00    -0.047 Br
HETATM   27  C   UNL     1     -41.270  54.681 -52.844  1.00  0.00    -0.006 A 
HETATM   28  C   UNL     1     -40.969  55.206 -54.122  1.00  0.00    -0.024 A 
HETATM   29  C   UNL     1     -40.943  53.317 -52.619  1.00  0.00     0.014 A 
HETATM   30  C   UNL     1     -41.242  56.548 -54.406  1.00  0.00     0.032 C 
HETATM   31  C   UNL     1     -40.388  54.394 -55.111  1.00  0.00     0.012 A 
HETATM   32  C   UNL     1     -40.095  53.056 -54.860  1.00  0.00     0.001 A 
HETATM   33  C   UNL     1     -40.370  52.517 -53.612  1.00  0.00     0.001 A 
BRANCH  24  34
HETATM   34  O   UNL     1     -42.916  57.708 -51.358  1.00  0.00    -0.353 OA
HETATM   35  C   UNL     1     -44.315  57.407 -51.237  1.00  0.00     0.210 C 
ENDBRANCH  24  34
ENDBRANCH  20  23
ENDBRANCH   1  19
TORSDOF 6
ENDMDL
MODEL 9
REMARK VINA RESULT:      -7.8      2.789      4.224
REMARK  6 active torsions:
REMARK  status: ('A' for Active; 'I' for Inactive)
REMARK    1  A    between atoms: N_6  and  C_7 
REMARK    2  A    between atoms: C_8  and  N_9 
REMARK    3  A    between atoms: N_9  and  C_10 
REMARK    4  A    between atoms: C_10  and  N_11 
REMARK       I    between atoms: N_11  and  C_12 
REMARK    5  A    between atoms: C_12  and  C_13 
REMARK    6  A    between atoms: C_14  and  O_15 
ROOT
HETATM    1  C   UNL     1     -41.070  58.850 -52.850  1.00  0.00     0.179 C 
HETATM    2  S   UNL     1     -40.446  59.248 -51.340  1.00  0.00    -0.040 SA
ENDROOT
BRANCH   1   3
HETATM    3  N   UNL     1     -42.032  59.600 -53.529  1.00  0.00    -0.331 N 
HETATM    4  H   UNL     1     -41.833  59.767 -54.511  1.00  0.00     0.168 HD
BRANCH   3   5
HETATM    5  C   UNL     1     -43.404  59.692 -53.186  1.00  0.00     0.061 A 
HETATM    6  C   UNL     1     -44.343  60.200 -54.124  1.00  0.00     0.057 A 
HETATM    7  C   UNL     1     -45.613  60.523 -53.606  1.00  0.00     0.031 A 
HETATM    8  C   UNL     1     -45.973  60.252 -52.278  1.00  0.00     0.002 A 
HETATM    9  C   UNL     1     -45.061  59.675 -51.411  1.00  0.00     0.002 A 
HETATM   10  C   UNL     1     -43.772  59.415 -51.857  1.00  0.00     0.032 A 
BRANCH   6  11
HETATM   11  N   UNL     1     -44.026  60.354 -55.500  1.00  0.00    -0.376 N 
HETATM   12  C   UNL     1     -44.763  61.372 -56.292  1.00  0.00     0.150 C 
HETATM   13  C   UNL     1     -46.141  60.854 -56.785  1.00  0.00     0.254 C 
HETATM   14  N   UNL     1     -46.009  59.518 -57.516  1.00  0.00    -0.072 N 
HETATM   15  C   UNL     1     -47.340  58.971 -57.937  1.00  0.00     0.269 C 
HETATM   16  H   UNL     1     -45.460  59.691 -58.368  1.00  0.00     0.279 HD
HETATM   17  C   UNL     1     -45.231  58.501 -56.681  1.00  0.00     0.254 C 
HETATM   18  C   UNL     1     -43.866  59.087 -56.273  1.00  0.00     0.150 C 
ENDBRANCH   6  11
ENDBRANCH   3   5
ENDBRANCH   1   3
BRANCH   1  19
HETATM   19  N   UNL     1     -40.759  57.701 -53.575  1.00  0.00    -0.299 N 
HETATM   20  C   UNL     1     -41.613  56.617 -53.663  1.00  0.00     0.260 C 
HETATM   21  O   UNL     1     -42.677  56.669 -54.273  1.00  0.00    -0.267 OA
HETATM   22  H   UNL     1     -39.786  57.445 -53.460  1.00  0.00     0.171 HD
BRANCH  20  23
HETATM   23  C   UNL     1     -41.177  55.335 -53.030  1.00  0.00     0.068 C 
HETATM   24  C   UNL     1     -41.156  55.079 -51.651  1.00  0.00     0.102 C 
HETATM   25  C   UNL     1     -40.632  53.849 -51.189  1.00  0.00     0.056 C 
HETATM   26 BR   UNL     1     -40.284  53.614 -49.315  1.00  0.00    -0.047 Br
HETATM   27  C   UNL     1     -40.279  52.804 -52.096  1.00  0.00    -0.006 A 
HETATM   28  C   UNL     1     -40.387  53.063 -53.482  1.00  0.00    -0.024 A 
HETATM   29  C   UNL     1     -39.832  51.510 -51.719  1.00  0.00     0.014 A 
HETATM   30  C   UNL     1     -40.799  54.323 -53.926  1.00  0.00     0.032 C 
HETATM   31  C   UNL     1     -40.074  52.067 -54.422  1.00  0.00     0.012 A 
HETATM   32  C   UNL     1     -39.652  50.803 -54.017  1.00  0.00     0.001 A 
HETATM   33  C   UNL     1     -39.528  50.525 -52.665  1.00  0.00     0.001 A 
BRANCH  24  34
HETATM   34  O   UNL     1     -41.583  56.077 -50.803  1.00  0.00    -0.353 OA
HETATM   35  C   UNL     1     -42.998  56.045 -50.558  1.00  0.00     0.210 C 
ENDBRANCH  24  34
ENDBRANCH  20  23
ENDBRANCH   1  19
TORSDOF 6
ENDMDL
MODEL 10
REMARK VINA RESULT:      -7.6      1.711      2.703
REMARK  6 active torsions:
REMARK  status: ('A' for Active; 'I' for Inactive)
REMARK    1  A    between atoms: N_6  and  C_7 
REMARK    2  A    between atoms: C_8  and  N_9 
REMARK    3  A    between atoms: N_9  and  C_10 
REMARK    4  A    between atoms: C_10  and  N_11 
REMARK       I    between atoms: N_11  and  C_12 
REMARK    5  A    between atoms: C_12  and  C_13 
REMARK    6  A    between atoms: C_14  and  O_15 
ROOT
HETATM    1  C   UNL     1     -43.536  59.075 -54.602  1.00  0.00     0.179 C 
HETATM    2  S   UNL     1     -45.025  59.850 -54.698  1.00  0.00    -0.040 SA
ENDROOT
BRANCH   1   3
HETATM    3  N   UNL     1     -42.841  58.562 -55.698  1.00  0.00    -0.331 N 
HETATM    4  H   UNL     1     -42.726  57.553 -55.702  1.00  0.00     0.168 HD
BRANCH   3   5
HETATM    5  C   UNL     1     -42.752  59.165 -56.978  1.00  0.00     0.061 A 
HETATM    6  C   UNL     1     -43.379  58.557 -58.099  1.00  0.00     0.057 A 
HETATM    7  C   UNL     1     -42.999  59.061 -59.360  1.00  0.00     0.031 A 
HETATM    8  C   UNL     1     -42.150  60.167 -59.502  1.00  0.00     0.002 A 
HETATM    9  C   UNL     1     -41.624  60.792 -58.384  1.00  0.00     0.002 A 
HETATM   10  C   UNL     1     -41.906  60.278 -57.125  1.00  0.00     0.032 A 
BRANCH   6  11
HETATM   11  N   UNL     1     -44.341  57.523 -57.956  1.00  0.00    -0.376 N 
HETATM   12  C   UNL     1     -44.395  56.451 -58.984  1.00  0.00     0.150 C 
HETATM   13  C   UNL     1     -45.205  56.875 -60.239  1.00  0.00     0.254 C 
HETATM   14  N   UNL     1     -46.590  57.401 -59.861  1.00  0.00    -0.072 N 
HETATM   15  C   UNL     1     -47.358  57.880 -61.056  1.00  0.00     0.269 C 
HETATM   16  H   UNL     1     -47.111  56.617 -59.449  1.00  0.00     0.279 HD
HETATM   17  C   UNL     1     -46.498  58.489 -58.789  1.00  0.00     0.254 C 
HETATM   18  C   UNL     1     -45.714  57.965 -57.572  1.00  0.00     0.150 C 
ENDBRANCH   6  11
ENDBRANCH   3   5
ENDBRANCH   1   3
BRANCH   1  19
HETATM   19  N   UNL     1     -42.849  58.789 -53.423  1.00  0.00    -0.299 N 
HETATM   20  C   UNL     1     -41.545  58.331 -53.408  1.00  0.00     0.260 C 
HETATM   21  O   UNL     1     -40.599  59.037 -53.743  1.00  0.00    -0.267 OA
HETATM   22  H   UNL     1     -43.450  58.330 -52.749  1.00  0.00     0.171 HD
BRANCH  20  23
HETATM   23  C   UNL     1     -41.301  56.942 -52.910  1.00  0.00     0.068 C 
HETATM   24  C   UNL     1     -41.059  55.823 -53.720  1.00  0.00     0.102 C 
HETATM   25  C   UNL     1     -40.936  54.550 -53.114  1.00  0.00     0.056 C 
HETATM   26 BR   UNL     1     -40.941  52.975 -54.213  1.00  0.00    -0.047 Br
HETATM   27  C   UNL     1     -40.887  54.406 -51.694  1.00  0.00    -0.006 A 
HETATM   28  C   UNL     1     -41.055  55.565 -50.902  1.00  0.00    -0.024 A 
HETATM   29  C   UNL     1     -40.677  53.183 -51.004  1.00  0.00     0.014 A 
HETATM   30  C   UNL     1     -41.290  56.800 -51.514  1.00  0.00     0.032 C 
HETATM   31  C   UNL     1     -40.996  55.488 -49.501  1.00  0.00     0.012 A 
HETATM   32  C   UNL     1     -40.772  54.274 -48.856  1.00  0.00     0.001 A 
HETATM   33  C   UNL     1     -40.616  53.120 -49.608  1.00  0.00     0.001 A 
BRANCH  24  34
HETATM   34  O   UNL     1     -41.027  56.009 -55.085  1.00  0.00    -0.353 OA
HETATM   35  C   UNL     1     -42.184  55.486 -55.756  1.00  0.00     0.210 C 
ENDBRANCH  24  34
ENDBRANCH  20  23
ENDBRANCH   1  19
TORSDOF 6
ENDMDL
