MODEL 1
REMARK VINA RESULT:      -9.2      0.000      0.000
REMARK  3 active torsions:
REMARK  status: ('A' for Active; 'I' for Inactive)
REMARK    1  A    between atoms: N_7  and  N_8 
REMARK       I    between atoms: N_8  and  C_9 
REMARK    2  A    between atoms: C_9  and  C_10 
REMARK    3  A    between atoms: C_14  and  C_15 
ROOT
HETATM    1  N   UNL     1     -41.973  56.932 -56.762  1.00  0.00    -0.241 N 
HETATM    2  C   UNL     1     -42.530  56.744 -55.504  1.00  0.00     0.289 C 
HETATM    3  O   UNL     1     -43.480  57.380 -55.058  1.00  0.00    -0.264 OA
HETATM    4  H   UNL     1     -41.070  56.530 -56.954  1.00  0.00     0.192 HD
ENDROOT
BRANCH   2   5
HETATM    5  C   UNL     1     -41.889  55.720 -54.717  1.00  0.00     0.121 A 
HETATM    6  N   UNL     1     -41.469  55.966 -53.440  1.00  0.00    -0.272 N 
HETATM    7  H   UNL     1     -41.551  56.843 -52.932  1.00  0.00     0.189 HD
HETATM    8  N   UNL     1     -40.888  54.916 -52.841  1.00  0.00    -0.174 NA
HETATM    9  C   UNL     1     -40.973  53.922 -53.738  1.00  0.00     0.089 A 
HETATM   10  C   UNL     1     -41.581  54.392 -54.936  1.00  0.00     0.071 A 
BRANCH   9  11
HETATM   11  C   UNL     1     -40.486  52.572 -53.438  1.00  0.00    -0.005 A 
HETATM   12  C   UNL     1     -39.936  52.264 -52.183  1.00  0.00     0.017 A 
HETATM   13  C   UNL     1     -39.470  50.974 -51.909  1.00  0.00     0.043 A 
HETATM   14  C   UNL     1     -39.551  49.991 -52.889  1.00  0.00     0.116 A 
HETATM   15  F   UNL     1     -39.104  48.758 -52.623  1.00  0.00    -0.206 F 
HETATM   16  C   UNL     1     -40.089  50.273 -54.138  1.00  0.00     0.043 A 
HETATM   17  C   UNL     1     -40.552  51.561 -54.412  1.00  0.00     0.017 A 
ENDBRANCH   9  11
ENDBRANCH   2   5
BRANCH   1  18
HETATM   18  N   UNL     1     -42.435  57.927 -57.566  1.00  0.00    -0.165 NA
HETATM   19  C   UNL     1     -43.162  57.650 -58.601  1.00  0.00     0.157 A 
HETATM   20  C   UNL     1     -43.746  56.411 -59.140  1.00  0.00     0.027 A 
HETATM   21  C   UNL     1     -43.572  58.764 -59.591  1.00  0.00     0.277 A 
HETATM   22  C   UNL     1     -43.812  55.110 -58.672  1.00  0.00     0.016 A 
HETATM   23  C   UNL     1     -44.361  56.764 -60.344  1.00  0.00     0.048 A 
HETATM   24  C   UNL     1     -44.465  54.160 -59.467  1.00  0.00     0.001 A 
HETATM   25  C   UNL     1     -45.054  54.521 -60.692  1.00  0.00     0.002 A 
HETATM   26  C   UNL     1     -45.014  55.843 -61.139  1.00  0.00     0.030 A 
HETATM   27  N   UNL     1     -44.251  58.125 -60.600  1.00  0.00    -0.321 N 
HETATM   28  H   UNL     1     -44.640  58.619 -61.389  1.00  0.00     0.169 HD
HETATM   29  O   UNL     1     -43.330  59.946 -59.493  1.00  0.00    -0.266 OA
ENDBRANCH   1  18
TORSDOF 3
ENDMDL
MODEL 2
REMARK VINA RESULT:      -8.9      3.337      8.450
REMARK  3 active torsions:
REMARK  status: ('A' for Active; 'I' for Inactive)
REMARK    1  A    between atoms: N_7  and  N_8 
REMARK       I    between atoms: N_8  and  C_9 
REMARK    2  A    between atoms: C_9  and  C_10 
REMARK    3  A    between atoms: C_14  and  C_15 
ROOT
HETATM    1  N   UNL     1     -42.263  55.975 -52.994  1.00  0.00    -0.241 N 
HETATM    2  C   UNL     1     -41.627  56.902 -53.809  1.00  0.00     0.289 C 
HETATM    3  O   UNL     1     -40.621  57.532 -53.499  1.00  0.00    -0.264 OA
HETATM    4  H   UNL     1     -43.194  55.679 -53.236  1.00  0.00     0.192 HD
ENDROOT
BRANCH   2   5
HETATM    5  C   UNL     1     -42.257  57.096 -55.092  1.00  0.00     0.121 A 
HETATM    6  N   UNL     1     -42.223  58.308 -55.723  1.00  0.00    -0.272 N 
HETATM    7  H   UNL     1     -41.783  59.158 -55.381  1.00  0.00     0.189 HD
HETATM    8  N   UNL     1     -42.857  58.330 -56.904  1.00  0.00    -0.174 NA
HETATM    9  C   UNL     1     -43.281  57.071 -57.087  1.00  0.00     0.089 A 
HETATM   10  C   UNL     1     -42.939  56.268 -55.961  1.00  0.00     0.071 A 
BRANCH   9  11
HETATM   11  C   UNL     1     -43.989  56.667 -58.306  1.00  0.00    -0.005 A 
HETATM   12  C   UNL     1     -45.068  57.419 -58.799  1.00  0.00     0.017 A 
HETATM   13  C   UNL     1     -45.738  57.021 -59.960  1.00  0.00     0.043 A 
HETATM   14  C   UNL     1     -45.332  55.873 -60.630  1.00  0.00     0.116 A 
HETATM   15  F   UNL     1     -45.976  55.496 -61.742  1.00  0.00    -0.206 F 
HETATM   16  C   UNL     1     -44.269  55.113 -60.161  1.00  0.00     0.043 A 
HETATM   17  C   UNL     1     -43.602  55.507 -58.999  1.00  0.00     0.017 A 
ENDBRANCH   9  11
ENDBRANCH   2   5
BRANCH   1  18
HETATM   18  N   UNL     1     -41.814  55.767 -51.727  1.00  0.00    -0.165 NA
HETATM   19  C   UNL     1     -41.168  54.685 -51.429  1.00  0.00     0.157 A 
HETATM   20  C   UNL     1     -40.671  53.541 -52.211  1.00  0.00     0.027 A 
HETATM   21  C   UNL     1     -40.779  54.384 -49.963  1.00  0.00     0.277 A 
HETATM   22  C   UNL     1     -40.627  53.264 -53.567  1.00  0.00     0.016 A 
HETATM   23  C   UNL     1     -40.122  52.649 -51.285  1.00  0.00     0.048 A 
HETATM   24  C   UNL     1     -40.067  52.045 -53.968  1.00  0.00     0.001 A 
HETATM   25  C   UNL     1     -39.545  51.141 -53.026  1.00  0.00     0.002 A 
HETATM   26  C   UNL     1     -39.560  51.445 -51.663  1.00  0.00     0.030 A 
HETATM   27  N   UNL     1     -40.193  53.141 -49.989  1.00  0.00    -0.321 N 
HETATM   28  H   UNL     1     -39.837  52.693 -49.158  1.00  0.00     0.169 HD
HETATM   29  O   UNL     1     -40.966  55.095 -49.002  1.00  0.00    -0.266 OA
ENDBRANCH   1  18
TORSDOF 3
ENDMDL
MODEL 3
REMARK VINA RESULT:      -8.8      3.849      8.831
REMARK  3 active torsions:
REMARK  status: ('A' for Active; 'I' for Inactive)
REMARK    1  A    between atoms: N_7  and  N_8 
REMARK       I    between atoms: N_8  and  C_9 
REMARK    2  A    between atoms: C_9  and  C_10 
REMARK    3  A    between atoms: C_14  and  C_15 
ROOT
HETATM    1  N   UNL     1     -41.088  55.058 -53.093  1.00  0.00    -0.241 N 
HETATM    2  C   UNL     1     -42.381  55.375 -53.488  1.00  0.00     0.289 C 
HETATM    3  O   UNL     1     -43.366  55.331 -52.757  1.00  0.00    -0.264 OA
HETATM    4  H   UNL     1     -40.391  54.907 -53.803  1.00  0.00     0.192 HD
ENDROOT
BRANCH   2   5
HETATM    5  C   UNL     1     -42.502  55.766 -54.870  1.00  0.00     0.121 A 
HETATM    6  N   UNL     1     -43.176  54.989 -55.770  1.00  0.00    -0.272 N 
HETATM    7  H   UNL     1     -43.636  54.102 -55.582  1.00  0.00     0.189 HD
HETATM    8  N   UNL     1     -43.196  55.484 -57.017  1.00  0.00    -0.174 NA
HETATM    9  C   UNL     1     -42.555  56.659 -56.927  1.00  0.00     0.089 A 
HETATM   10  C   UNL     1     -42.088  56.864 -55.597  1.00  0.00     0.071 A 
BRANCH   9  11
HETATM   11  C   UNL     1     -42.406  57.544 -58.086  1.00  0.00    -0.005 A 
HETATM   12  C   UNL     1     -42.489  57.041 -59.395  1.00  0.00     0.017 A 
HETATM   13  C   UNL     1     -42.341  57.894 -60.494  1.00  0.00     0.043 A 
HETATM   14  C   UNL     1     -42.108  59.249 -60.287  1.00  0.00     0.116 A 
HETATM   15  F   UNL     1     -41.966  60.061 -61.341  1.00  0.00    -0.206 F 
HETATM   16  C   UNL     1     -42.019  59.768 -59.002  1.00  0.00     0.043 A 
HETATM   17  C   UNL     1     -42.164  58.917 -57.904  1.00  0.00     0.017 A 
ENDBRANCH   9  11
ENDBRANCH   2   5
BRANCH   1  18
HETATM   18  N   UNL     1     -40.858  54.594 -51.835  1.00  0.00    -0.165 NA
HETATM   19  C   UNL     1     -40.516  53.359 -51.644  1.00  0.00     0.157 A 
HETATM   20  C   UNL     1     -40.201  52.234 -52.539  1.00  0.00     0.027 A 
HETATM   21  C   UNL     1     -40.389  52.796 -50.210  1.00  0.00     0.277 A 
HETATM   22  C   UNL     1     -40.056  52.122 -53.911  1.00  0.00     0.016 A 
HETATM   23  C   UNL     1     -39.987  51.128 -51.709  1.00  0.00     0.048 A 
HETATM   24  C   UNL     1     -39.742  50.863 -54.436  1.00  0.00     0.001 A 
HETATM   25  C   UNL     1     -39.559  49.751 -53.594  1.00  0.00     0.002 A 
HETATM   26  C   UNL     1     -39.672  49.880 -52.209  1.00  0.00     0.030 A 
HETATM   27  N   UNL     1     -40.103  51.461 -50.366  1.00  0.00    -0.321 N 
HETATM   28  H   UNL     1     -39.963  50.841 -49.582  1.00  0.00     0.169 HD
HETATM   29  O   UNL     1     -40.525  53.408 -49.175  1.00  0.00    -0.266 OA
ENDBRANCH   1  18
TORSDOF 3
ENDMDL
MODEL 4
REMARK VINA RESULT:      -8.4      1.664      1.942
REMARK  3 active torsions:
REMARK  status: ('A' for Active; 'I' for Inactive)
REMARK    1  A    between atoms: N_7  and  N_8 
REMARK       I    between atoms: N_8  and  C_9 
REMARK    2  A    between atoms: C_9  and  C_10 
REMARK    3  A    between atoms: C_14  and  C_15 
ROOT
HETATM    1  N   UNL     1     -43.076  57.904 -54.823  1.00  0.00    -0.241 N 
HETATM    2  C   UNL     1     -41.818  57.854 -54.237  1.00  0.00     0.289 C 
HETATM    3  O   UNL     1     -41.025  58.790 -54.202  1.00  0.00    -0.264 OA
HETATM    4  H   UNL     1     -43.559  57.039 -55.003  1.00  0.00     0.192 HD
ENDROOT
BRANCH   2   5
HETATM    5  C   UNL     1     -41.482  56.576 -53.659  1.00  0.00     0.121 A 
HETATM    6  N   UNL     1     -41.684  56.323 -52.332  1.00  0.00    -0.272 N 
HETATM    7  H   UNL     1     -42.065  56.966 -51.642  1.00  0.00     0.189 HD
HETATM    8  N   UNL     1     -41.318  55.092 -51.945  1.00  0.00    -0.174 NA
HETATM    9  C   UNL     1     -40.906  54.490 -53.071  1.00  0.00     0.089 A 
HETATM   10  C   UNL     1     -40.978  55.395 -54.167  1.00  0.00     0.071 A 
BRANCH   9  11
HETATM   11  C   UNL     1     -40.464  53.092 -53.077  1.00  0.00    -0.005 A 
HETATM   12  C   UNL     1     -39.930  52.497 -51.922  1.00  0.00     0.017 A 
HETATM   13  C   UNL     1     -39.507  51.164 -51.941  1.00  0.00     0.043 A 
HETATM   14  C   UNL     1     -39.617  50.424 -53.113  1.00  0.00     0.116 A 
HETATM   15  F   UNL     1     -39.211  49.149 -53.127  1.00  0.00    -0.206 F 
HETATM   16  C   UNL     1     -40.139  50.992 -54.267  1.00  0.00     0.043 A 
HETATM   17  C   UNL     1     -40.559  52.323 -54.250  1.00  0.00     0.017 A 
ENDBRANCH   9  11
ENDBRANCH   2   5
BRANCH   1  18
HETATM   18  N   UNL     1     -43.474  59.029 -55.477  1.00  0.00    -0.165 NA
HETATM   19  C   UNL     1     -43.562  59.040 -56.769  1.00  0.00     0.157 A 
HETATM   20  C   UNL     1     -43.402  58.017 -57.815  1.00  0.00     0.027 A 
HETATM   21  C   UNL     1     -43.881  60.353 -57.520  1.00  0.00     0.277 A 
HETATM   22  C   UNL     1     -43.203  56.648 -57.783  1.00  0.00     0.016 A 
HETATM   23  C   UNL     1     -43.543  58.686 -59.035  1.00  0.00     0.048 A 
HETATM   24  C   UNL     1     -43.095  55.973 -59.005  1.00  0.00     0.001 A 
HETATM   25  C   UNL     1     -43.207  56.661 -60.226  1.00  0.00     0.002 A 
HETATM   26  C   UNL     1     -43.445  58.036 -60.250  1.00  0.00     0.030 A 
HETATM   27  N   UNL     1     -43.814  60.036 -58.855  1.00  0.00    -0.321 N 
HETATM   28  H   UNL     1     -43.985  60.714 -59.582  1.00  0.00     0.169 HD
HETATM   29  O   UNL     1     -44.126  61.431 -57.026  1.00  0.00    -0.266 OA
ENDBRANCH   1  18
TORSDOF 3
ENDMDL
MODEL 5
REMARK VINA RESULT:      -8.2      3.642      8.665
REMARK  3 active torsions:
REMARK  status: ('A' for Active; 'I' for Inactive)
REMARK    1  A    between atoms: N_7  and  N_8 
REMARK       I    between atoms: N_8  and  C_9 
REMARK    2  A    between atoms: C_9  and  C_10 
REMARK    3  A    between atoms: C_14  and  C_15 
ROOT
HETATM    1  N   UNL     1     -42.374  56.078 -52.843  1.00  0.00    -0.241 N 
HETATM    2  C   UNL     1     -41.872  57.198 -53.491  1.00  0.00     0.289 C 
HETATM    3  O   UNL     1     -40.953  57.895 -53.072  1.00  0.00    -0.264 OA
HETATM    4  H   UNL     1     -43.261  55.705 -53.141  1.00  0.00     0.192 HD
ENDROOT
BRANCH   2   5
HETATM    5  C   UNL     1     -42.531  57.511 -54.735  1.00  0.00     0.121 A 
HETATM    6  N   UNL     1     -42.099  58.536 -55.528  1.00  0.00    -0.272 N 
HETATM    7  H   UNL     1     -41.317  59.159 -55.344  1.00  0.00     0.189 HD
HETATM    8  N   UNL     1     -42.818  58.705 -56.648  1.00  0.00    -0.174 NA
HETATM    9  C   UNL     1     -43.729  57.720 -56.619  1.00  0.00     0.089 A 
HETATM   10  C   UNL     1     -43.592  56.958 -55.424  1.00  0.00     0.071 A 
BRANCH   9  11
HETATM   11  C   UNL     1     -44.689  57.529 -57.711  1.00  0.00    -0.005 A 
HETATM   12  C   UNL     1     -44.351  56.774 -58.847  1.00  0.00     0.017 A 
HETATM   13  C   UNL     1     -45.274  56.602 -59.884  1.00  0.00     0.043 A 
HETATM   14  C   UNL     1     -46.533  57.184 -59.789  1.00  0.00     0.116 A 
HETATM   15  F   UNL     1     -47.412  57.017 -60.784  1.00  0.00    -0.206 F 
HETATM   16  C   UNL     1     -46.888  57.936 -58.677  1.00  0.00     0.043 A 
HETATM   17  C   UNL     1     -45.967  58.111 -57.642  1.00  0.00     0.017 A 
ENDBRANCH   9  11
ENDBRANCH   2   5
BRANCH   1  18
HETATM   18  N   UNL     1     -41.892  55.730 -51.619  1.00  0.00    -0.165 NA
HETATM   19  C   UNL     1     -41.217  54.635 -51.467  1.00  0.00     0.157 A 
HETATM   20  C   UNL     1     -40.715  53.605 -52.391  1.00  0.00     0.027 A 
HETATM   21  C   UNL     1     -40.788  54.170 -50.057  1.00  0.00     0.277 A 
HETATM   22  C   UNL     1     -40.697  53.494 -53.771  1.00  0.00     0.016 A 
HETATM   23  C   UNL     1     -40.126  52.621 -51.591  1.00  0.00     0.048 A 
HETATM   24  C   UNL     1     -40.121  52.345 -54.328  1.00  0.00     0.001 A 
HETATM   25  C   UNL     1     -39.558  51.347 -53.512  1.00  0.00     0.002 A 
HETATM   26  C   UNL     1     -39.548  51.485 -52.122  1.00  0.00     0.030 A 
HETATM   27  N   UNL     1     -40.177  52.953 -50.244  1.00  0.00    -0.321 N 
HETATM   28  H   UNL     1     -39.793  52.417 -49.480  1.00  0.00     0.169 HD
HETATM   29  O   UNL     1     -40.967  54.757 -49.013  1.00  0.00    -0.266 OA
ENDBRANCH   1  18
TORSDOF 3
ENDMDL
MODEL 6
REMARK VINA RESULT:      -8.0      3.724      5.885
REMARK  3 active torsions:
REMARK  status: ('A' for Active; 'I' for Inactive)
REMARK    1  A    between atoms: N_7  and  N_8 
REMARK       I    between atoms: N_8  and  C_9 
REMARK    2  A    between atoms: C_9  and  C_10 
REMARK    3  A    between atoms: C_14  and  C_15 
ROOT
HETATM    1  N   UNL     1     -43.526  56.802 -53.754  1.00  0.00    -0.241 N 
HETATM    2  C   UNL     1     -42.488  56.707 -54.672  1.00  0.00     0.289 C 
HETATM    3  O   UNL     1     -42.188  57.580 -55.481  1.00  0.00    -0.264 OA
HETATM    4  H   UNL     1     -43.839  55.964 -53.291  1.00  0.00     0.192 HD
ENDROOT
BRANCH   2   5
HETATM    5  C   UNL     1     -41.761  55.463 -54.620  1.00  0.00     0.121 A 
HETATM    6  N   UNL     1     -40.826  55.148 -55.565  1.00  0.00    -0.272 N 
HETATM    7  H   UNL     1     -40.554  55.716 -56.364  1.00  0.00     0.189 HD
HETATM    8  N   UNL     1     -40.241  53.955 -55.384  1.00  0.00    -0.174 NA
HETATM    9  C   UNL     1     -40.772  53.485 -54.245  1.00  0.00     0.089 A 
HETATM   10  C   UNL     1     -41.745  54.396 -53.744  1.00  0.00     0.071 A 
BRANCH   9  11
HETATM   11  C   UNL     1     -40.349  52.205 -53.670  1.00  0.00    -0.005 A 
HETATM   12  C   UNL     1     -39.957  52.111 -52.324  1.00  0.00     0.017 A 
HETATM   13  C   UNL     1     -39.551  50.885 -51.788  1.00  0.00     0.043 A 
HETATM   14  C   UNL     1     -39.534  49.752 -52.594  1.00  0.00     0.116 A 
HETATM   15  F   UNL     1     -39.144  48.581 -52.076  1.00  0.00    -0.206 F 
HETATM   16  C   UNL     1     -39.914  49.821 -53.927  1.00  0.00     0.043 A 
HETATM   17  C   UNL     1     -40.317  51.046 -54.465  1.00  0.00     0.017 A 
ENDBRANCH   9  11
ENDBRANCH   2   5
BRANCH   1  18
HETATM   18  N   UNL     1     -44.339  57.893 -53.761  1.00  0.00    -0.165 NA
HETATM   19  C   UNL     1     -44.116  58.883 -52.957  1.00  0.00     0.157 A 
HETATM   20  C   UNL     1     -43.048  59.200 -51.995  1.00  0.00     0.027 A 
HETATM   21  C   UNL     1     -45.115  60.059 -52.868  1.00  0.00     0.277 A 
HETATM   22  C   UNL     1     -41.843  58.596 -51.680  1.00  0.00     0.016 A 
HETATM   23  C   UNL     1     -43.431  60.390 -51.370  1.00  0.00     0.048 A 
HETATM   24  C   UNL     1     -41.054  59.187 -50.686  1.00  0.00     0.001 A 
HETATM   25  C   UNL     1     -41.464  60.369 -50.042  1.00  0.00     0.002 A 
HETATM   26  C   UNL     1     -42.664  60.991 -50.391  1.00  0.00     0.030 A 
HETATM   27  N   UNL     1     -44.629  60.877 -51.876  1.00  0.00    -0.321 N 
HETATM   28  H   UNL     1     -45.089  61.733 -51.606  1.00  0.00     0.169 HD
HETATM   29  O   UNL     1     -46.118  60.211 -53.528  1.00  0.00    -0.266 OA
ENDBRANCH   1  18
TORSDOF 3
ENDMDL
MODEL 7
REMARK VINA RESULT:      -7.9      2.490      3.143
REMARK  3 active torsions:
REMARK  status: ('A' for Active; 'I' for Inactive)
REMARK    1  A    between atoms: N_7  and  N_8 
REMARK       I    between atoms: N_8  and  C_9 
REMARK    2  A    between atoms: C_9  and  C_10 
REMARK    3  A    between atoms: C_14  and  C_15 
ROOT
HETATM    1  N   UNL     1     -43.418  58.391 -55.845  1.00  0.00    -0.241 N 
HETATM    2  C   UNL     1     -42.212  58.231 -55.175  1.00  0.00     0.289 C 
HETATM    3  O   UNL     1     -41.497  59.152 -54.793  1.00  0.00    -0.264 OA
HETATM    4  H   UNL     1     -43.819  57.594 -56.313  1.00  0.00     0.192 HD
ENDROOT
BRANCH   2   5
HETATM    5  C   UNL     1     -41.830  56.858 -54.958  1.00  0.00     0.121 A 
HETATM    6  N   UNL     1     -41.886  55.938 -55.966  1.00  0.00    -0.272 N 
HETATM    7  H   UNL     1     -42.188  56.103 -56.923  1.00  0.00     0.189 HD
HETATM    8  N   UNL     1     -41.504  54.703 -55.607  1.00  0.00    -0.174 NA
HETATM    9  C   UNL     1     -41.131  54.823 -54.323  1.00  0.00     0.089 A 
HETATM   10  C   UNL     1     -41.338  56.158 -53.874  1.00  0.00     0.071 A 
BRANCH   9  11
HETATM   11  C   UNL     1     -40.595  53.686 -53.569  1.00  0.00    -0.005 A 
HETATM   12  C   UNL     1     -40.102  52.548 -54.230  1.00  0.00     0.017 A 
HETATM   13  C   UNL     1     -39.597  51.467 -53.500  1.00  0.00     0.043 A 
HETATM   14  C   UNL     1     -39.585  51.520 -52.111  1.00  0.00     0.116 A 
HETATM   15  F   UNL     1     -39.101  50.483 -51.416  1.00  0.00    -0.206 F 
HETATM   16  C   UNL     1     -40.070  52.633 -51.436  1.00  0.00     0.043 A 
HETATM   17  C   UNL     1     -40.577  53.711 -52.164  1.00  0.00     0.017 A 
ENDBRANCH   9  11
ENDBRANCH   2   5
BRANCH   1  18
HETATM   18  N   UNL     1     -43.845  59.637 -56.185  1.00  0.00    -0.165 NA
HETATM   19  C   UNL     1     -43.586  60.122 -57.358  1.00  0.00     0.157 A 
HETATM   20  C   UNL     1     -42.954  59.582 -58.572  1.00  0.00     0.027 A 
HETATM   21  C   UNL     1     -43.950  61.585 -57.697  1.00  0.00     0.277 A 
HETATM   22  C   UNL     1     -42.500  58.323 -58.928  1.00  0.00     0.016 A 
HETATM   23  C   UNL     1     -42.895  60.642 -59.482  1.00  0.00     0.048 A 
HETATM   24  C   UNL     1     -41.939  58.166 -60.201  1.00  0.00     0.001 A 
HETATM   25  C   UNL     1     -41.858  59.246 -61.098  1.00  0.00     0.002 A 
HETATM   26  C   UNL     1     -42.350  60.504 -60.743  1.00  0.00     0.030 A 
HETATM   27  N   UNL     1     -43.469  61.797 -58.966  1.00  0.00    -0.321 N 
HETATM   28  H   UNL     1     -43.572  62.679 -59.445  1.00  0.00     0.169 HD
HETATM   29  O   UNL     1     -44.528  62.374 -56.982  1.00  0.00    -0.266 OA
ENDBRANCH   1  18
TORSDOF 3
ENDMDL
MODEL 8
REMARK VINA RESULT:      -7.7      2.599      3.357
REMARK  3 active torsions:
REMARK  status: ('A' for Active; 'I' for Inactive)
REMARK    1  A    between atoms: N_7  and  N_8 
REMARK       I    between atoms: N_8  and  C_9 
REMARK    2  A    between atoms: C_9  and  C_10 
REMARK    3  A    between atoms: C_14  and  C_15 
ROOT
HETATM    1  N   UNL     1     -43.455  57.142 -53.485  1.00  0.00    -0.241 N 
HETATM    2  C   UNL     1     -42.093  57.190 -53.756  1.00  0.00     0.289 C 
HETATM    3  O   UNL     1     -41.440  58.222 -53.871  1.00  0.00    -0.264 OA
HETATM    4  H   UNL     1     -43.945  56.275 -53.630  1.00  0.00     0.192 HD
ENDROOT
BRANCH   2   5
HETATM    5  C   UNL     1     -41.472  55.898 -53.911  1.00  0.00     0.121 A 
HETATM    6  N   UNL     1     -40.655  55.627 -54.971  1.00  0.00    -0.272 N 
HETATM    7  H   UNL     1     -40.409  56.262 -55.727  1.00  0.00     0.189 HD
HETATM    8  N   UNL     1     -40.158  54.382 -54.978  1.00  0.00    -0.174 NA
HETATM    9  C   UNL     1     -40.623  53.823 -53.850  1.00  0.00     0.089 A 
HETATM   10  C   UNL     1     -41.467  54.739 -53.160  1.00  0.00     0.071 A 
BRANCH   9  11
HETATM   11  C   UNL     1     -40.259  52.458 -53.461  1.00  0.00    -0.005 A 
HETATM   12  C   UNL     1     -39.874  52.159 -52.143  1.00  0.00     0.017 A 
HETATM   13  C   UNL     1     -39.524  50.854 -51.785  1.00  0.00     0.043 A 
HETATM   14  C   UNL     1     -39.557  49.845 -52.741  1.00  0.00     0.116 A 
HETATM   15  F   UNL     1     -39.221  48.597 -52.393  1.00  0.00    -0.206 F 
HETATM   16  C   UNL     1     -39.932  50.117 -54.050  1.00  0.00     0.043 A 
HETATM   17  C   UNL     1     -40.278  51.421 -54.410  1.00  0.00     0.017 A 
ENDBRANCH   9  11
ENDBRANCH   2   5
BRANCH   1  18
HETATM   18  N   UNL     1     -44.171  58.296 -53.402  1.00  0.00    -0.165 NA
HETATM   19  C   UNL     1     -44.572  58.898 -54.476  1.00  0.00     0.157 A 
HETATM   20  C   UNL     1     -44.517  58.576 -55.912  1.00  0.00     0.027 A 
HETATM   21  C   UNL     1     -45.265  60.277 -54.388  1.00  0.00     0.277 A 
HETATM   22  C   UNL     1     -44.106  57.461 -56.620  1.00  0.00     0.016 A 
HETATM   23  C   UNL     1     -45.054  59.683 -56.577  1.00  0.00     0.048 A 
HETATM   24  C   UNL     1     -44.197  57.502 -58.017  1.00  0.00     0.001 A 
HETATM   25  C   UNL     1     -44.710  58.633 -58.678  1.00  0.00     0.002 A 
HETATM   26  C   UNL     1     -45.156  59.740 -57.953  1.00  0.00     0.030 A 
HETATM   27  N   UNL     1     -45.478  60.663 -55.689  1.00  0.00    -0.321 N 
HETATM   28  H   UNL     1     -45.925  61.535 -55.929  1.00  0.00     0.169 HD
HETATM   29  O   UNL     1     -45.545  60.885 -53.379  1.00  0.00    -0.266 OA
ENDBRANCH   1  18
TORSDOF 3
ENDMDL
MODEL 9
REMARK VINA RESULT:      -7.7      4.124      8.721
REMARK  3 active torsions:
REMARK  status: ('A' for Active; 'I' for Inactive)
REMARK    1  A    between atoms: N_7  and  N_8 
REMARK       I    between atoms: N_8  and  C_9 
REMARK    2  A    between atoms: C_9  and  C_10 
REMARK    3  A    between atoms: C_14  and  C_15 
ROOT
HETATM    1  N   UNL     1     -41.846  57.925 -54.611  1.00  0.00    -0.241 N 
HETATM    2  C   UNL     1     -42.064  58.815 -55.654  1.00  0.00     0.289 C 
HETATM    3  O   UNL     1     -41.741  59.999 -55.642  1.00  0.00    -0.264 OA
HETATM    4  H   UNL     1     -42.337  57.046 -54.616  1.00  0.00     0.192 HD
ENDROOT
BRANCH   2   5
HETATM    5  C   UNL     1     -42.732  58.242 -56.795  1.00  0.00     0.121 A 
HETATM    6  N   UNL     1     -42.094  57.360 -57.622  1.00  0.00    -0.272 N 
HETATM    7  H   UNL     1     -41.135  57.032 -57.536  1.00  0.00     0.189 HD
HETATM    8  N   UNL     1     -42.846  56.919 -58.641  1.00  0.00    -0.174 NA
HETATM    9  C   UNL     1     -44.045  57.490 -58.451  1.00  0.00     0.089 A 
HETATM   10  C   UNL     1     -44.009  58.343 -57.312  1.00  0.00     0.071 A 
BRANCH   9  11
HETATM   11  C   UNL     1     -45.177  57.215 -59.342  1.00  0.00    -0.005 A 
HETATM   12  C   UNL     1     -45.279  55.992 -60.025  1.00  0.00     0.017 A 
HETATM   13  C   UNL     1     -46.361  55.743 -60.875  1.00  0.00     0.043 A 
HETATM   14  C   UNL     1     -47.341  56.714 -61.045  1.00  0.00     0.116 A 
HETATM   15  F   UNL     1     -48.375  56.471 -61.861  1.00  0.00    -0.206 F 
HETATM   16  C   UNL     1     -47.260  57.931 -60.383  1.00  0.00     0.043 A 
HETATM   17  C   UNL     1     -46.178  58.183 -59.536  1.00  0.00     0.017 A 
ENDBRANCH   9  11
ENDBRANCH   2   5
BRANCH   1  18
HETATM   18  N   UNL     1     -41.300  58.366 -53.446  1.00  0.00    -0.165 NA
HETATM   19  C   UNL     1     -41.413  57.667 -52.361  1.00  0.00     0.157 A 
HETATM   20  C   UNL     1     -41.968  56.338 -52.054  1.00  0.00     0.027 A 
HETATM   21  C   UNL     1     -40.914  58.230 -51.011  1.00  0.00     0.277 A 
HETATM   22  C   UNL     1     -42.476  55.316 -52.836  1.00  0.00     0.016 A 
HETATM   23  C   UNL     1     -41.865  56.188 -50.667  1.00  0.00     0.048 A 
HETATM   24  C   UNL     1     -42.927  54.159 -52.190  1.00  0.00     0.001 A 
HETATM   25  C   UNL     1     -42.846  54.030 -50.792  1.00  0.00     0.002 A 
HETATM   26  C   UNL     1     -42.299  55.052 -50.013  1.00  0.00     0.030 A 
HETATM   27  N   UNL     1     -41.260  57.287 -50.073  1.00  0.00    -0.321 N 
HETATM   28  H   UNL     1     -41.049  57.397 -49.092  1.00  0.00     0.169 HD
HETATM   29  O   UNL     1     -40.350  59.285 -50.829  1.00  0.00    -0.266 OA
ENDBRANCH   1  18
TORSDOF 3
ENDMDL
MODEL 10
REMARK VINA RESULT:      -7.5      6.459      9.846
REMARK  3 active torsions:
REMARK  status: ('A' for Active; 'I' for Inactive)
REMARK    1  A    between atoms: N_7  and  N_8 
REMARK       I    between atoms: N_8  and  C_9 
REMARK    2  A    between atoms: C_9  and  C_10 
REMARK    3  A    between atoms: C_14  and  C_15 
ROOT
HETATM    1  N   UNL     1     -42.376  57.561 -53.258  1.00  0.00    -0.241 N 
HETATM    2  C   UNL     1     -41.573  58.693 -53.201  1.00  0.00     0.289 C 
HETATM    3  O   UNL     1     -40.448  58.777 -53.684  1.00  0.00    -0.264 OA
HETATM    4  H   UNL     1     -43.178  57.507 -52.651  1.00  0.00     0.192 HD
ENDROOT
BRANCH   2   5
HETATM    5  C   UNL     1     -42.164  59.806 -52.500  1.00  0.00     0.121 A 
HETATM    6  N   UNL     1     -42.560  60.932 -53.164  1.00  0.00    -0.272 N 
HETATM    7  H   UNL     1     -42.485  61.107 -54.163  1.00  0.00     0.189 HD
HETATM    8  N   UNL     1     -43.086  61.880 -52.373  1.00  0.00    -0.174 NA
HETATM    9  C   UNL     1     -43.085  61.338 -51.146  1.00  0.00     0.089 A 
HETATM   10  C   UNL     1     -42.498  60.041 -51.181  1.00  0.00     0.071 A 
BRANCH   9  11
HETATM   11  C   UNL     1     -43.636  62.052 -49.990  1.00  0.00    -0.005 A 
HETATM   12  C   UNL     1     -43.445  63.435 -49.837  1.00  0.00     0.017 A 
HETATM   13  C   UNL     1     -43.971  64.106 -48.728  1.00  0.00     0.043 A 
HETATM   14  C   UNL     1     -44.686  63.396 -47.770  1.00  0.00     0.116 A 
HETATM   15  F   UNL     1     -45.188  64.041 -46.710  1.00  0.00    -0.206 F 
HETATM   16  C   UNL     1     -44.885  62.028 -47.899  1.00  0.00     0.043 A 
HETATM   17  C   UNL     1     -44.358  61.357 -49.004  1.00  0.00     0.017 A 
ENDBRANCH   9  11
ENDBRANCH   2   5
BRANCH   1  18
HETATM   18  N   UNL     1     -41.897  56.418 -53.819  1.00  0.00    -0.165 NA
HETATM   19  C   UNL     1     -41.385  55.488 -53.077  1.00  0.00     0.157 A 
HETATM   20  C   UNL     1     -41.247  55.297 -51.624  1.00  0.00     0.027 A 
HETATM   21  C   UNL     1     -40.717  54.252 -53.722  1.00  0.00     0.277 A 
HETATM   22  C   UNL     1     -41.713  55.998 -50.525  1.00  0.00     0.016 A 
HETATM   23  C   UNL     1     -40.517  54.116 -51.457  1.00  0.00     0.048 A 
HETATM   24  C   UNL     1     -41.383  55.515 -49.253  1.00  0.00     0.001 A 
HETATM   25  C   UNL     1     -40.622  54.343 -49.096  1.00  0.00     0.002 A 
HETATM   26  C   UNL     1     -40.187  53.622 -50.210  1.00  0.00     0.030 A 
HETATM   27  N   UNL     1     -40.210  53.522 -52.674  1.00  0.00    -0.321 N 
HETATM   28  H   UNL     1     -39.719  52.651 -52.808  1.00  0.00     0.169 HD
HETATM   29  O   UNL     1     -40.651  53.996 -54.903  1.00  0.00    -0.266 OA
ENDBRANCH   1  18
TORSDOF 3
ENDMDL
