MODEL 1
REMARK VINA RESULT:      -7.7      0.000      0.000
REMARK  6 active torsions:
REMARK  status: ('A' for Active; 'I' for Inactive)
REMARK    1  A    between atoms: O_2  and  C_3 
REMARK    2  A    between atoms: C_4  and  N_5 
REMARK       I    between atoms: N_5  and  C_6 
REMARK       I    between atoms: C_6  and  N_7 
REMARK    3  A    between atoms: N_7  and  C_8 
REMARK    4  A    between atoms: C_8  and  C_9 
REMARK    5  A    between atoms: C_9  and  C_10 
REMARK    6  A    between atoms: C_10  and  N_11 
ROOT
HETATM    1  N   UNL     1     -43.593  56.117 -56.059  1.00  0.00    -0.306 N 
HETATM    2  C   UNL     1     -42.915  55.334 -55.154  1.00  0.00     0.320 C 
HETATM    3  N   UNL     1     -43.548  55.325 -53.927  1.00  0.00    -0.343 N 
HETATM    4  O   UNL     1     -41.889  54.706 -55.373  1.00  0.00    -0.247 OA
HETATM    5  H   UNL     1     -44.550  56.360 -55.847  1.00  0.00     0.171 HD
HETATM    6  H   UNL     1     -44.460  55.752 -53.887  1.00  0.00     0.164 HD
ENDROOT
BRANCH   3   7
HETATM    7  C   UNL     1     -43.247  54.334 -52.911  1.00  0.00     0.126 C 
BRANCH   7   8
HETATM    8  C   UNL     1     -42.303  54.776 -51.797  1.00  0.00     0.040 C 
BRANCH   8   9
HETATM    9  C   UNL     1     -40.842  54.467 -52.096  1.00  0.00     0.130 C 
BRANCH   9  10
HETATM   10  N   UNL     1     -40.486  53.119 -51.675  1.00  0.00    -0.356 N 
HETATM   11  C   UNL     1     -40.195  52.064 -52.518  1.00  0.00     0.044 A 
HETATM   12  C   UNL     1     -39.938  50.956 -51.706  1.00  0.00    -0.008 A 
HETATM   13  C   UNL     1     -40.149  51.984 -53.919  1.00  0.00     0.030 A 
HETATM   14  C   UNL     1     -39.617  49.725 -52.312  1.00  0.00     0.014 A 
HETATM   15  C   UNL     1     -40.080  51.379 -50.356  1.00  0.00     0.031 A 
HETATM   16  C   UNL     1     -39.563  49.637 -53.707  1.00  0.00     0.001 A 
HETATM   17  C   UNL     1     -39.827  50.752 -54.497  1.00  0.00     0.002 A 
HETATM   18  C   UNL     1     -40.415  52.712 -50.367  1.00  0.00     0.092 A 
ENDBRANCH   9  10
ENDBRANCH   8   9
ENDBRANCH   7   8
ENDBRANCH   3   7
BRANCH   1  19
HETATM   19  C   UNL     1     -43.199  56.425 -57.378  1.00  0.00     0.069 A 
HETATM   20  C   UNL     1     -42.602  57.674 -57.607  1.00  0.00     0.095 A 
HETATM   21  C   UNL     1     -42.114  58.024 -58.868  1.00  0.00     0.039 A 
HETATM   22  C   UNL     1     -42.255  57.133 -59.928  1.00  0.00     0.003 A 
HETATM   23  C   UNL     1     -42.871  55.899 -59.722  1.00  0.00     0.002 A 
HETATM   24  C   UNL     1     -43.340  55.544 -58.451  1.00  0.00     0.032 A 
BRANCH  20  25
HETATM   25  O   UNL     1     -42.475  58.580 -56.581  1.00  0.00    -0.354 OA
HETATM   26  C   UNL     1     -41.997  59.829 -57.093  1.00  0.00     0.210 C 
ENDBRANCH  20  25
ENDBRANCH   1  19
TORSDOF 6
ENDMDL
MODEL 2
REMARK VINA RESULT:      -7.7      1.633      2.559
REMARK  6 active torsions:
REMARK  status: ('A' for Active; 'I' for Inactive)
REMARK    1  A    between atoms: O_2  and  C_3 
REMARK    2  A    between atoms: C_4  and  N_5 
REMARK       I    between atoms: N_5  and  C_6 
REMARK       I    between atoms: C_6  and  N_7 
REMARK    3  A    between atoms: N_7  and  C_8 
REMARK    4  A    between atoms: C_8  and  C_9 
REMARK    5  A    between atoms: C_9  and  C_10 
REMARK    6  A    between atoms: C_10  and  N_11 
ROOT
HETATM    1  N   UNL     1     -41.722  57.560 -57.899  1.00  0.00    -0.306 N 
HETATM    2  C   UNL     1     -42.763  56.820 -57.388  1.00  0.00     0.320 C 
HETATM    3  N   UNL     1     -42.301  55.774 -56.613  1.00  0.00    -0.343 N 
HETATM    4  O   UNL     1     -43.954  57.033 -57.565  1.00  0.00    -0.247 OA
HETATM    5  H   UNL     1     -40.814  57.452 -57.472  1.00  0.00     0.171 HD
HETATM    6  H   UNL     1     -41.314  55.768 -56.407  1.00  0.00     0.164 HD
ENDROOT
BRANCH   3   7
HETATM    7  C   UNL     1     -43.162  55.054 -55.694  1.00  0.00     0.126 C 
BRANCH   7   8
HETATM    8  C   UNL     1     -42.505  53.935 -54.892  1.00  0.00     0.040 C 
BRANCH   8   9
HETATM    9  C   UNL     1     -41.027  54.184 -54.621  1.00  0.00     0.130 C 
BRANCH   9  10
HETATM   10  N   UNL     1     -40.579  53.483 -53.426  1.00  0.00    -0.356 N 
HETATM   11  C   UNL     1     -40.240  52.146 -53.358  1.00  0.00     0.044 A 
HETATM   12  C   UNL     1     -39.898  51.883 -52.029  1.00  0.00    -0.008 A 
HETATM   13  C   UNL     1     -40.219  51.145 -54.343  1.00  0.00     0.030 A 
HETATM   14  C   UNL     1     -39.513  50.575 -51.669  1.00  0.00     0.014 A 
HETATM   15  C   UNL     1     -40.037  53.099 -51.306  1.00  0.00     0.031 A 
HETATM   16  C   UNL     1     -39.483  49.573 -52.644  1.00  0.00     0.001 A 
HETATM   17  C   UNL     1     -39.832  49.857 -53.961  1.00  0.00     0.002 A 
HETATM   18  C   UNL     1     -40.455  54.066 -52.190  1.00  0.00     0.092 A 
ENDBRANCH   9  10
ENDBRANCH   8   9
ENDBRANCH   7   8
ENDBRANCH   3   7
BRANCH   1  19
HETATM   19  C   UNL     1     -41.814  58.645 -58.795  1.00  0.00     0.069 A 
HETATM   20  C   UNL     1     -41.657  59.939 -58.274  1.00  0.00     0.095 A 
HETATM   21  C   UNL     1     -41.657  61.061 -59.105  1.00  0.00     0.039 A 
HETATM   22  C   UNL     1     -41.854  60.898 -60.474  1.00  0.00     0.003 A 
HETATM   23  C   UNL     1     -42.039  59.621 -61.003  1.00  0.00     0.002 A 
HETATM   24  C   UNL     1     -42.017  58.498 -60.168  1.00  0.00     0.032 A 
BRANCH  20  25
HETATM   25  O   UNL     1     -41.487  60.125 -56.922  1.00  0.00    -0.354 OA
HETATM   26  C   UNL     1     -42.682  60.668 -56.352  1.00  0.00     0.210 C 
ENDBRANCH  20  25
ENDBRANCH   1  19
TORSDOF 6
ENDMDL
MODEL 3
REMARK VINA RESULT:      -7.7      1.586      2.294
REMARK  6 active torsions:
REMARK  status: ('A' for Active; 'I' for Inactive)
REMARK    1  A    between atoms: O_2  and  C_3 
REMARK    2  A    between atoms: C_4  and  N_5 
REMARK       I    between atoms: N_5  and  C_6 
REMARK       I    between atoms: C_6  and  N_7 
REMARK    3  A    between atoms: N_7  and  C_8 
REMARK    4  A    between atoms: C_8  and  C_9 
REMARK    5  A    between atoms: C_9  and  C_10 
REMARK    6  A    between atoms: C_10  and  N_11 
ROOT
HETATM    1  N   UNL     1     -42.825  55.898 -57.350  1.00  0.00    -0.306 N 
HETATM    2  C   UNL     1     -43.405  55.974 -56.105  1.00  0.00     0.320 C 
HETATM    3  N   UNL     1     -43.256  54.790 -55.410  1.00  0.00    -0.343 N 
HETATM    4  O   UNL     1     -43.977  56.947 -55.636  1.00  0.00    -0.247 OA
HETATM    5  H   UNL     1     -42.162  55.155 -57.515  1.00  0.00     0.171 HD
HETATM    6  H   UNL     1     -42.646  54.101 -55.820  1.00  0.00     0.164 HD
ENDROOT
BRANCH   3   7
HETATM    7  C   UNL     1     -43.465  54.704 -53.976  1.00  0.00     0.126 C 
BRANCH   7   8
HETATM    8  C   UNL     1     -42.360  55.283 -53.098  1.00  0.00     0.040 C 
BRANCH   8   9
HETATM    9  C   UNL     1     -40.973  54.780 -53.477  1.00  0.00     0.130 C 
BRANCH   9  10
HETATM   10  N   UNL     1     -40.531  53.716 -52.586  1.00  0.00    -0.356 N 
HETATM   11  C   UNL     1     -40.248  52.418 -52.963  1.00  0.00     0.044 A 
HETATM   12  C   UNL     1     -39.890  51.729 -51.801  1.00  0.00    -0.008 A 
HETATM   13  C   UNL     1     -40.288  51.789 -54.217  1.00  0.00     0.030 A 
HETATM   14  C   UNL     1     -39.553  50.363 -51.893  1.00  0.00     0.014 A 
HETATM   15  C   UNL     1     -39.963  52.651 -50.722  1.00  0.00     0.031 A 
HETATM   16  C   UNL     1     -39.585  49.729 -53.140  1.00  0.00     0.001 A 
HETATM   17  C   UNL     1     -39.949  50.434 -54.284  1.00  0.00     0.002 A 
HETATM   18  C   UNL     1     -40.358  53.865 -51.234  1.00  0.00     0.092 A 
ENDBRANCH   9  10
ENDBRANCH   8   9
ENDBRANCH   7   8
ENDBRANCH   3   7
BRANCH   1  19
HETATM   19  C   UNL     1     -42.853  56.882 -58.360  1.00  0.00     0.069 A 
HETATM   20  C   UNL     1     -43.812  56.748 -59.376  1.00  0.00     0.095 A 
HETATM   21  C   UNL     1     -43.957  57.719 -60.369  1.00  0.00     0.039 A 
HETATM   22  C   UNL     1     -43.109  58.824 -60.375  1.00  0.00     0.003 A 
HETATM   23  C   UNL     1     -42.132  58.956 -59.388  1.00  0.00     0.002 A 
HETATM   24  C   UNL     1     -42.006  57.990 -58.382  1.00  0.00     0.032 A 
BRANCH  20  25
HETATM   25  O   UNL     1     -44.643  55.653 -59.405  1.00  0.00    -0.354 OA
HETATM   26  C   UNL     1     -44.885  55.263 -60.761  1.00  0.00     0.210 C 
ENDBRANCH  20  25
ENDBRANCH   1  19
TORSDOF 6
ENDMDL
MODEL 4
REMARK VINA RESULT:      -7.4      1.786      7.957
REMARK  6 active torsions:
REMARK  status: ('A' for Active; 'I' for Inactive)
REMARK    1  A    between atoms: O_2  and  C_3 
REMARK    2  A    between atoms: C_4  and  N_5 
REMARK       I    between atoms: N_5  and  C_6 
REMARK       I    between atoms: C_6  and  N_7 
REMARK    3  A    between atoms: N_7  and  C_8 
REMARK    4  A    between atoms: C_8  and  C_9 
REMARK    5  A    between atoms: C_9  and  C_10 
REMARK    6  A    between atoms: C_10  and  N_11 
ROOT
HETATM    1  N   UNL     1     -40.313  53.619 -53.603  1.00  0.00    -0.306 N 
HETATM    2  C   UNL     1     -41.496  54.297 -53.423  1.00  0.00     0.320 C 
HETATM    3  N   UNL     1     -41.340  55.648 -53.658  1.00  0.00    -0.343 N 
HETATM    4  O   UNL     1     -42.568  53.802 -53.105  1.00  0.00    -0.247 OA
HETATM    5  H   UNL     1     -39.578  54.083 -54.116  1.00  0.00     0.171 HD
HETATM    6  H   UNL     1     -40.459  55.937 -54.055  1.00  0.00     0.164 HD
ENDROOT
BRANCH   3   7
HETATM    7  C   UNL     1     -42.471  56.532 -53.871  1.00  0.00     0.126 C 
BRANCH   7   8
HETATM    8  C   UNL     1     -42.141  57.957 -54.303  1.00  0.00     0.040 C 
BRANCH   8   9
HETATM    9  C   UNL     1     -43.195  58.559 -55.224  1.00  0.00     0.130 C 
BRANCH   9  10
HETATM   10  N   UNL     1     -42.681  58.740 -56.575  1.00  0.00    -0.356 N 
HETATM   11  C   UNL     1     -42.721  57.797 -57.583  1.00  0.00     0.044 A 
HETATM   12  C   UNL     1     -42.098  58.368 -58.696  1.00  0.00    -0.008 A 
HETATM   13  C   UNL     1     -43.235  56.491 -57.609  1.00  0.00     0.030 A 
HETATM   14  C   UNL     1     -41.990  57.613 -59.881  1.00  0.00     0.014 A 
HETATM   15  C   UNL     1     -41.689  59.679 -58.326  1.00  0.00     0.031 A 
HETATM   16  C   UNL     1     -42.505  56.313 -59.918  1.00  0.00     0.001 A 
HETATM   17  C   UNL     1     -43.118  55.762 -58.797  1.00  0.00     0.002 A 
HETATM   18  C   UNL     1     -42.061  59.880 -57.018  1.00  0.00     0.092 A 
ENDBRANCH   9  10
ENDBRANCH   8   9
ENDBRANCH   7   8
ENDBRANCH   3   7
BRANCH   1  19
HETATM   19  C   UNL     1     -40.078  52.247 -53.371  1.00  0.00     0.069 A 
HETATM   20  C   UNL     1     -39.677  51.861 -52.082  1.00  0.00     0.095 A 
HETATM   21  C   UNL     1     -39.499  50.517 -51.751  1.00  0.00     0.039 A 
HETATM   22  C   UNL     1     -39.685  49.540 -52.726  1.00  0.00     0.003 A 
HETATM   23  C   UNL     1     -40.057  49.911 -54.018  1.00  0.00     0.002 A 
HETATM   24  C   UNL     1     -40.255  51.259 -54.340  1.00  0.00     0.032 A 
BRANCH  20  25
HETATM   25  O   UNL     1     -39.462  52.810 -51.110  1.00  0.00    -0.354 OA
HETATM   26  C   UNL     1     -40.445  52.679 -50.078  1.00  0.00     0.210 C 
ENDBRANCH  20  25
ENDBRANCH   1  19
TORSDOF 6
ENDMDL
MODEL 5
REMARK VINA RESULT:      -7.4      1.678      2.083
REMARK  6 active torsions:
REMARK  status: ('A' for Active; 'I' for Inactive)
REMARK    1  A    between atoms: O_2  and  C_3 
REMARK    2  A    between atoms: C_4  and  N_5 
REMARK       I    between atoms: N_5  and  C_6 
REMARK       I    between atoms: C_6  and  N_7 
REMARK    3  A    between atoms: N_7  and  C_8 
REMARK    4  A    between atoms: C_8  and  C_9 
REMARK    5  A    between atoms: C_9  and  C_10 
REMARK    6  A    between atoms: C_10  and  N_11 
ROOT
HETATM    1  N   UNL     1     -42.348  56.483 -57.147  1.00  0.00    -0.306 N 
HETATM    2  C   UNL     1     -42.807  56.782 -55.885  1.00  0.00     0.320 C 
HETATM    3  N   UNL     1     -41.763  56.925 -54.993  1.00  0.00    -0.343 N 
HETATM    4  O   UNL     1     -43.977  56.921 -55.560  1.00  0.00    -0.247 OA
HETATM    5  H   UNL     1     -41.374  56.658 -57.347  1.00  0.00     0.171 HD
HETATM    6  H   UNL     1     -40.834  56.937 -55.385  1.00  0.00     0.164 HD
ENDROOT
BRANCH   3   7
HETATM    7  C   UNL     1     -41.933  57.562 -53.701  1.00  0.00     0.126 C 
BRANCH   7   8
HETATM    8  C   UNL     1     -41.346  56.822 -52.503  1.00  0.00     0.040 C 
BRANCH   8   9
HETATM    9  C   UNL     1     -42.166  55.604 -52.094  1.00  0.00     0.130 C 
BRANCH   9  10
HETATM   10  N   UNL     1     -41.311  54.510 -51.653  1.00  0.00    -0.356 N 
HETATM   11  C   UNL     1     -40.789  53.522 -52.464  1.00  0.00     0.044 A 
HETATM   12  C   UNL     1     -40.056  52.666 -51.637  1.00  0.00    -0.008 A 
HETATM   13  C   UNL     1     -40.907  53.299 -53.846  1.00  0.00     0.030 A 
HETATM   14  C   UNL     1     -39.413  51.550 -52.208  1.00  0.00     0.014 A 
HETATM   15  C   UNL     1     -40.153  53.172 -50.312  1.00  0.00     0.031 A 
HETATM   16  C   UNL     1     -39.520  51.323 -53.584  1.00  0.00     0.001 A 
HETATM   17  C   UNL     1     -40.258  52.186 -54.389  1.00  0.00     0.002 A 
HETATM   18  C   UNL     1     -40.929  54.306 -50.352  1.00  0.00     0.092 A 
ENDBRANCH   9  10
ENDBRANCH   8   9
ENDBRANCH   7   8
ENDBRANCH   3   7
BRANCH   1  19
HETATM   19  C   UNL     1     -43.127  56.188 -58.285  1.00  0.00     0.069 A 
HETATM   20  C   UNL     1     -43.364  57.225 -59.201  1.00  0.00     0.095 A 
HETATM   21  C   UNL     1     -44.060  56.997 -60.391  1.00  0.00     0.039 A 
HETATM   22  C   UNL     1     -44.562  55.725 -60.657  1.00  0.00     0.003 A 
HETATM   23  C   UNL     1     -44.358  54.692 -59.742  1.00  0.00     0.002 A 
HETATM   24  C   UNL     1     -43.641  54.921 -58.562  1.00  0.00     0.032 A 
BRANCH  20  25
HETATM   25  O   UNL     1     -42.901  58.494 -58.948  1.00  0.00    -0.354 OA
HETATM   26  C   UNL     1     -44.004  59.388 -58.772  1.00  0.00     0.210 C 
ENDBRANCH  20  25
ENDBRANCH   1  19
TORSDOF 6
ENDMDL
MODEL 6
REMARK VINA RESULT:      -7.4      1.788      7.723
REMARK  6 active torsions:
REMARK  status: ('A' for Active; 'I' for Inactive)
REMARK    1  A    between atoms: O_2  and  C_3 
REMARK    2  A    between atoms: C_4  and  N_5 
REMARK       I    between atoms: N_5  and  C_6 
REMARK       I    between atoms: C_6  and  N_7 
REMARK    3  A    between atoms: N_7  and  C_8 
REMARK    4  A    between atoms: C_8  and  C_9 
REMARK    5  A    between atoms: C_9  and  C_10 
REMARK    6  A    between atoms: C_10  and  N_11 
ROOT
HETATM    1  N   UNL     1     -40.762  54.095 -53.337  1.00  0.00    -0.306 N 
HETATM    2  C   UNL     1     -41.945  54.633 -52.886  1.00  0.00     0.320 C 
HETATM    3  N   UNL     1     -41.934  56.011 -52.975  1.00  0.00    -0.343 N 
HETATM    4  O   UNL     1     -42.906  54.006 -52.464  1.00  0.00    -0.247 OA
HETATM    5  H   UNL     1     -40.163  54.680 -53.901  1.00  0.00     0.171 HD
HETATM    6  H   UNL     1     -41.159  56.424 -53.470  1.00  0.00     0.164 HD
ENDROOT
BRANCH   3   7
HETATM    7  C   UNL     1     -43.149  56.800 -52.892  1.00  0.00     0.126 C 
BRANCH   7   8
HETATM    8  C   UNL     1     -43.690  57.345 -54.210  1.00  0.00     0.040 C 
BRANCH   8   9
HETATM    9  C   UNL     1     -42.591  57.800 -55.162  1.00  0.00     0.130 C 
BRANCH   9  10
HETATM   10  N   UNL     1     -42.688  57.124 -56.449  1.00  0.00    -0.356 N 
HETATM   11  C   UNL     1     -42.484  57.711 -57.682  1.00  0.00     0.044 A 
HETATM   12  C   UNL     1     -42.703  56.719 -58.643  1.00  0.00    -0.008 A 
HETATM   13  C   UNL     1     -42.140  59.026 -58.037  1.00  0.00     0.030 A 
HETATM   14  C   UNL     1     -42.568  57.048 -60.006  1.00  0.00     0.014 A 
HETATM   15  C   UNL     1     -43.040  55.525 -57.949  1.00  0.00     0.031 A 
HETATM   16  C   UNL     1     -42.221  58.354 -60.369  1.00  0.00     0.001 A 
HETATM   17  C   UNL     1     -42.012  59.327 -59.396  1.00  0.00     0.002 A 
HETATM   18  C   UNL     1     -43.021  55.803 -56.603  1.00  0.00     0.092 A 
ENDBRANCH   9  10
ENDBRANCH   8   9
ENDBRANCH   7   8
ENDBRANCH   3   7
BRANCH   1  19
HETATM   19  C   UNL     1     -40.387  52.735 -53.317  1.00  0.00     0.069 A 
HETATM   20  C   UNL     1     -39.818  52.231 -52.137  1.00  0.00     0.095 A 
HETATM   21  C   UNL     1     -39.491  50.879 -52.010  1.00  0.00     0.039 A 
HETATM   22  C   UNL     1     -39.697  50.021 -53.087  1.00  0.00     0.003 A 
HETATM   23  C   UNL     1     -40.236  50.514 -54.276  1.00  0.00     0.002 A 
HETATM   24  C   UNL     1     -40.582  51.865 -54.391  1.00  0.00     0.032 A 
BRANCH  20  25
HETATM   25  O   UNL     1     -39.582  53.065 -51.070  1.00  0.00    -0.354 OA
HETATM   26  C   UNL     1     -40.429  52.703 -49.974  1.00  0.00     0.210 C 
ENDBRANCH  20  25
ENDBRANCH   1  19
TORSDOF 6
ENDMDL
MODEL 7
REMARK VINA RESULT:      -7.3      2.063      8.177
REMARK  6 active torsions:
REMARK  status: ('A' for Active; 'I' for Inactive)
REMARK    1  A    between atoms: O_2  and  C_3 
REMARK    2  A    between atoms: C_4  and  N_5 
REMARK       I    between atoms: N_5  and  C_6 
REMARK       I    between atoms: C_6  and  N_7 
REMARK    3  A    between atoms: N_7  and  C_8 
REMARK    4  A    between atoms: C_8  and  C_9 
REMARK    5  A    between atoms: C_9  and  C_10 
REMARK    6  A    between atoms: C_10  and  N_11 
ROOT
HETATM    1  N   UNL     1     -40.362  53.761 -53.711  1.00  0.00    -0.306 N 
HETATM    2  C   UNL     1     -41.566  54.423 -53.645  1.00  0.00     0.320 C 
HETATM    3  N   UNL     1     -41.406  55.777 -53.865  1.00  0.00    -0.343 N 
HETATM    4  O   UNL     1     -42.657  53.913 -53.433  1.00  0.00    -0.247 OA
HETATM    5  H   UNL     1     -39.588  54.236 -54.152  1.00  0.00     0.171 HD
HETATM    6  H   UNL     1     -40.496  56.078 -54.175  1.00  0.00     0.164 HD
ENDROOT
BRANCH   3   7
HETATM    7  C   UNL     1     -42.524  56.645 -54.185  1.00  0.00     0.126 C 
BRANCH   7   8
HETATM    8  C   UNL     1     -42.401  57.455 -55.471  1.00  0.00     0.040 C 
BRANCH   8   9
HETATM    9  C   UNL     1     -42.564  56.608 -56.727  1.00  0.00     0.130 C 
BRANCH   9  10
HETATM   10  N   UNL     1     -43.672  57.079 -57.547  1.00  0.00    -0.356 N 
HETATM   11  C   UNL     1     -44.198  56.421 -58.642  1.00  0.00     0.044 A 
HETATM   12  C   UNL     1     -45.220  57.230 -59.146  1.00  0.00    -0.008 A 
HETATM   13  C   UNL     1     -43.856  55.197 -59.239  1.00  0.00     0.030 A 
HETATM   14  C   UNL     1     -45.932  56.800 -60.284  1.00  0.00     0.014 A 
HETATM   15  C   UNL     1     -45.292  58.386 -58.321  1.00  0.00     0.031 A 
HETATM   16  C   UNL     1     -45.603  55.580 -60.882  1.00  0.00     0.001 A 
HETATM   17  C   UNL     1     -44.578  54.792 -60.365  1.00  0.00     0.002 A 
HETATM   18  C   UNL     1     -44.331  58.265 -57.346  1.00  0.00     0.092 A 
ENDBRANCH   9  10
ENDBRANCH   8   9
ENDBRANCH   7   8
ENDBRANCH   3   7
BRANCH   1  19
HETATM   19  C   UNL     1     -40.131  52.393 -53.458  1.00  0.00     0.069 A 
HETATM   20  C   UNL     1     -39.745  52.024 -52.160  1.00  0.00     0.095 A 
HETATM   21  C   UNL     1     -39.573  50.684 -51.808  1.00  0.00     0.039 A 
HETATM   22  C   UNL     1     -39.750  49.694 -52.772  1.00  0.00     0.003 A 
HETATM   23  C   UNL     1     -40.107  50.048 -54.073  1.00  0.00     0.002 A 
HETATM   24  C   UNL     1     -40.299  51.392 -54.416  1.00  0.00     0.032 A 
BRANCH  20  25
HETATM   25  O   UNL     1     -39.539  52.985 -51.199  1.00  0.00    -0.354 OA
HETATM   26  C   UNL     1     -40.485  52.821 -50.137  1.00  0.00     0.210 C 
ENDBRANCH  20  25
ENDBRANCH   1  19
TORSDOF 6
ENDMDL
MODEL 8
REMARK VINA RESULT:      -7.3      2.245      7.870
REMARK  6 active torsions:
REMARK  status: ('A' for Active; 'I' for Inactive)
REMARK    1  A    between atoms: O_2  and  C_3 
REMARK    2  A    between atoms: C_4  and  N_5 
REMARK       I    between atoms: N_5  and  C_6 
REMARK       I    between atoms: C_6  and  N_7 
REMARK    3  A    between atoms: N_7  and  C_8 
REMARK    4  A    between atoms: C_8  and  C_9 
REMARK    5  A    between atoms: C_9  and  C_10 
REMARK    6  A    between atoms: C_10  and  N_11 
ROOT
HETATM    1  N   UNL     1     -42.953  54.371 -53.334  1.00  0.00    -0.306 N 
HETATM    2  C   UNL     1     -43.026  55.623 -53.899  1.00  0.00     0.320 C 
HETATM    3  N   UNL     1     -44.327  56.085 -53.927  1.00  0.00    -0.343 N 
HETATM    4  O   UNL     1     -42.084  56.277 -54.323  1.00  0.00    -0.247 OA
HETATM    5  H   UNL     1     -43.741  54.055 -52.788  1.00  0.00     0.171 HD
HETATM    6  H   UNL     1     -45.009  55.540 -53.424  1.00  0.00     0.164 HD
ENDROOT
BRANCH   3   7
HETATM    7  C   UNL     1     -44.645  57.483 -54.150  1.00  0.00     0.126 C 
BRANCH   7   8
HETATM    8  C   UNL     1     -45.355  57.811 -55.460  1.00  0.00     0.040 C 
BRANCH   8   9
HETATM    9  C   UNL     1     -44.420  58.385 -56.517  1.00  0.00     0.130 C 
BRANCH   9  10
HETATM   10  N   UNL     1     -44.131  57.407 -57.558  1.00  0.00    -0.356 N 
HETATM   11  C   UNL     1     -44.979  57.058 -58.590  1.00  0.00     0.044 A 
HETATM   12  C   UNL     1     -44.324  56.073 -59.335  1.00  0.00    -0.008 A 
HETATM   13  C   UNL     1     -46.266  57.510 -58.924  1.00  0.00     0.030 A 
HETATM   14  C   UNL     1     -44.973  55.523 -60.459  1.00  0.00     0.014 A 
HETATM   15  C   UNL     1     -43.062  55.847 -58.722  1.00  0.00     0.031 A 
HETATM   16  C   UNL     1     -46.253  55.971 -60.803  1.00  0.00     0.001 A 
HETATM   17  C   UNL     1     -46.888  56.950 -60.044  1.00  0.00     0.002 A 
HETATM   18  C   UNL     1     -42.969  56.682 -57.633  1.00  0.00     0.092 A 
ENDBRANCH   9  10
ENDBRANCH   8   9
ENDBRANCH   7   8
ENDBRANCH   3   7
BRANCH   1  19
HETATM   19  C   UNL     1     -41.806  53.559 -53.216  1.00  0.00     0.069 A 
HETATM   20  C   UNL     1     -41.176  53.496 -51.963  1.00  0.00     0.095 A 
HETATM   21  C   UNL     1     -40.082  52.657 -51.742  1.00  0.00     0.039 A 
HETATM   22  C   UNL     1     -39.581  51.895 -52.795  1.00  0.00     0.003 A 
HETATM   23  C   UNL     1     -40.179  51.969 -54.053  1.00  0.00     0.002 A 
HETATM   24  C   UNL     1     -41.289  52.795 -54.263  1.00  0.00     0.032 A 
BRANCH  20  25
HETATM   25  O   UNL     1     -41.638  54.259 -50.916  1.00  0.00    -0.354 OA
HETATM   26  C   UNL     1     -40.793  54.079 -49.775  1.00  0.00     0.210 C 
ENDBRANCH  20  25
ENDBRANCH   1  19
TORSDOF 6
ENDMDL
MODEL 9
REMARK VINA RESULT:      -7.2      1.995      3.482
REMARK  6 active torsions:
REMARK  status: ('A' for Active; 'I' for Inactive)
REMARK    1  A    between atoms: O_2  and  C_3 
REMARK    2  A    between atoms: C_4  and  N_5 
REMARK       I    between atoms: N_5  and  C_6 
REMARK       I    between atoms: C_6  and  N_7 
REMARK    3  A    between atoms: N_7  and  C_8 
REMARK    4  A    between atoms: C_8  and  C_9 
REMARK    5  A    between atoms: C_9  and  C_10 
REMARK    6  A    between atoms: C_10  and  N_11 
ROOT
HETATM    1  N   UNL     1     -42.560  58.766 -54.628  1.00  0.00    -0.306 N 
HETATM    2  C   UNL     1     -41.699  58.831 -53.558  1.00  0.00     0.320 C 
HETATM    3  N   UNL     1     -42.312  58.409 -52.395  1.00  0.00    -0.343 N 
HETATM    4  O   UNL     1     -40.534  59.200 -53.593  1.00  0.00    -0.247 OA
HETATM    5  H   UNL     1     -43.392  58.203 -54.529  1.00  0.00     0.171 HD
HETATM    6  H   UNL     1     -43.222  57.988 -52.493  1.00  0.00     0.164 HD
ENDROOT
BRANCH   3   7
HETATM    7  C   UNL     1     -41.557  58.057 -51.207  1.00  0.00     0.126 C 
BRANCH   7   8
HETATM    8  C   UNL     1     -41.070  56.613 -51.122  1.00  0.00     0.040 C 
BRANCH   8   9
HETATM    9  C   UNL     1     -42.195  55.596 -51.261  1.00  0.00     0.130 C 
BRANCH   9  10
HETATM   10  N   UNL     1     -42.011  54.756 -52.437  1.00  0.00    -0.356 N 
HETATM   11  C   UNL     1     -41.179  53.657 -52.517  1.00  0.00     0.044 A 
HETATM   12  C   UNL     1     -41.282  53.166 -53.822  1.00  0.00    -0.008 A 
HETATM   13  C   UNL     1     -40.338  53.061 -51.563  1.00  0.00     0.030 A 
HETATM   14  C   UNL     1     -40.523  52.036 -54.188  1.00  0.00     0.014 A 
HETATM   15  C   UNL     1     -42.199  54.000 -54.517  1.00  0.00     0.031 A 
HETATM   16  C   UNL     1     -39.687  51.433 -53.243  1.00  0.00     0.001 A 
HETATM   17  C   UNL     1     -39.596  51.940 -51.950  1.00  0.00     0.002 A 
HETATM   18  C   UNL     1     -42.633  54.967 -53.641  1.00  0.00     0.092 A 
ENDBRANCH   9  10
ENDBRANCH   8   9
ENDBRANCH   7   8
ENDBRANCH   3   7
BRANCH   1  19
HETATM   19  C   UNL     1     -42.306  59.194 -55.948  1.00  0.00     0.069 A 
HETATM   20  C   UNL     1     -42.206  58.211 -56.946  1.00  0.00     0.095 A 
HETATM   21  C   UNL     1     -42.033  58.556 -58.288  1.00  0.00     0.039 A 
HETATM   22  C   UNL     1     -41.920  59.898 -58.641  1.00  0.00     0.003 A 
HETATM   23  C   UNL     1     -41.989  60.884 -57.657  1.00  0.00     0.002 A 
HETATM   24  C   UNL     1     -42.184  60.535 -56.315  1.00  0.00     0.032 A 
BRANCH  20  25
HETATM   25  O   UNL     1     -42.289  56.879 -56.617  1.00  0.00    -0.354 OA
HETATM   26  C   UNL     1     -43.098  56.192 -57.577  1.00  0.00     0.210 C 
ENDBRANCH  20  25
ENDBRANCH   1  19
TORSDOF 6
ENDMDL
MODEL 10
REMARK VINA RESULT:      -7.1      3.173      4.498
REMARK  6 active torsions:
REMARK  status: ('A' for Active; 'I' for Inactive)
REMARK    1  A    between atoms: O_2  and  C_3 
REMARK    2  A    between atoms: C_4  and  N_5 
REMARK       I    between atoms: N_5  and  C_6 
REMARK       I    between atoms: C_6  and  N_7 
REMARK    3  A    between atoms: N_7  and  C_8 
REMARK    4  A    between atoms: C_8  and  C_9 
REMARK    5  A    between atoms: C_9  and  C_10 
REMARK    6  A    between atoms: C_10  and  N_11 
ROOT
HETATM    1  N   UNL     1     -44.944  57.245 -53.640  1.00  0.00    -0.306 N 
HETATM    2  C   UNL     1     -43.772  56.592 -53.942  1.00  0.00     0.320 C 
HETATM    3  N   UNL     1     -43.984  55.577 -54.854  1.00  0.00    -0.343 N 
HETATM    4  O   UNL     1     -42.666  56.854 -53.491  1.00  0.00    -0.247 OA
HETATM    5  H   UNL     1     -45.727  57.119 -54.265  1.00  0.00     0.171 HD
HETATM    6  H   UNL     1     -44.898  55.534 -55.276  1.00  0.00     0.164 HD
ENDROOT
BRANCH   3   7
HETATM    7  C   UNL     1     -42.896  54.962 -55.592  1.00  0.00     0.126 C 
BRANCH   7   8
HETATM    8  C   UNL     1     -42.229  53.760 -54.931  1.00  0.00     0.040 C 
BRANCH   8   9
HETATM    9  C   UNL     1     -40.786  54.028 -54.524  1.00  0.00     0.130 C 
BRANCH   9  10
HETATM   10  N   UNL     1     -40.441  53.331 -53.292  1.00  0.00    -0.356 N 
HETATM   11  C   UNL     1     -40.112  51.994 -53.191  1.00  0.00     0.044 A 
HETATM   12  C   UNL     1     -39.883  51.736 -51.836  1.00  0.00    -0.008 A 
HETATM   13  C   UNL     1     -40.009  50.989 -54.166  1.00  0.00     0.030 A 
HETATM   14  C   UNL     1     -39.532  50.430 -51.440  1.00  0.00     0.014 A 
HETATM   15  C   UNL     1     -40.082  52.956 -51.133  1.00  0.00     0.031 A 
HETATM   16  C   UNL     1     -39.422  49.424 -52.405  1.00  0.00     0.001 A 
HETATM   17  C   UNL     1     -39.658  49.702 -53.748  1.00  0.00     0.002 A 
HETATM   18  C   UNL     1     -40.422  53.919 -52.054  1.00  0.00     0.092 A 
ENDBRANCH   9  10
ENDBRANCH   8   9
ENDBRANCH   7   8
ENDBRANCH   3   7
BRANCH   1  19
HETATM   19  C   UNL     1     -45.123  58.273 -52.691  1.00  0.00     0.069 A 
HETATM   20  C   UNL     1     -45.258  59.586 -53.168  1.00  0.00     0.095 A 
HETATM   21  C   UNL     1     -45.515  60.650 -52.300  1.00  0.00     0.039 A 
HETATM   22  C   UNL     1     -45.600  60.411 -50.931  1.00  0.00     0.003 A 
HETATM   23  C   UNL     1     -45.439  59.115 -50.440  1.00  0.00     0.002 A 
HETATM   24  C   UNL     1     -45.204  58.049 -51.316  1.00  0.00     0.032 A 
BRANCH  20  25
HETATM   25  O   UNL     1     -45.153  59.849 -54.513  1.00  0.00    -0.354 OA
HETATM   26  C   UNL     1     -45.679  61.150 -54.796  1.00  0.00     0.210 C 
ENDBRANCH  20  25
ENDBRANCH   1  19
TORSDOF 6
ENDMDL
