MODEL 1
REMARK VINA RESULT:      -8.9      0.000      0.000
REMARK  4 active torsions:
REMARK  status: ('A' for Active; 'I' for Inactive)
REMARK    1  A    between atoms: C_8  and  C_9 
REMARK       I    between atoms: C_9  and  N_10 
REMARK    2  A    between atoms: N_10  and  N_11 
REMARK       I    between atoms: N_11  and  C_12 
REMARK    3  A    between atoms: C_12  and  C_13 
REMARK    4  A    between atoms: C_13  and  C_14 
ROOT
HETATM    1  N   UNL     1     -42.004  56.183 -54.837  1.00  0.00    -0.267 N 
HETATM    2  C   UNL     1     -43.335  56.384 -55.153  1.00  0.00     0.236 C 
HETATM    3  O   UNL     1     -44.222  55.627 -54.771  1.00  0.00    -0.272 OA
HETATM    4  H   UNL     1     -41.297  56.908 -54.954  1.00  0.00     0.190 HD
ENDROOT
BRANCH   1   5
HETATM    5  N   UNL     1     -41.694  55.154 -53.943  1.00  0.00    -0.262 N 
HETATM    6  C   UNL     1     -40.554  54.397 -54.131  1.00  0.00     0.291 C 
HETATM    7  O   UNL     1     -39.853  54.492 -55.138  1.00  0.00    -0.264 OA
HETATM    8  H   UNL     1     -42.156  55.147 -53.030  1.00  0.00     0.190 HD
BRANCH   6   9
HETATM    9  C   UNL     1     -40.274  53.484 -53.014  1.00  0.00     0.158 A 
HETATM   10  C   UNL     1     -40.041  52.079 -53.079  1.00  0.00     0.028 A 
HETATM   11  C   UNL     1     -39.984  51.104 -54.093  1.00  0.00     0.016 A 
HETATM   12  C   UNL     1     -39.836  51.685 -51.761  1.00  0.00     0.063 A 
HETATM   13  C   UNL     1     -39.725  49.773 -53.744  1.00  0.00     0.001 A 
HETATM   14  C   UNL     1     -39.525  49.411 -52.412  1.00  0.00     0.002 A 
HETATM   15  C   UNL     1     -39.576  50.362 -51.389  1.00  0.00     0.032 A 
HETATM   16  N   UNL     1     -39.948  52.829 -51.021  1.00  0.00    -0.277 N 
HETATM   17  H   UNL     1     -39.855  52.922 -50.015  1.00  0.00     0.189 HD
HETATM   18  N   UNL     1     -40.213  53.932 -51.740  1.00  0.00    -0.168 NA
ENDBRANCH   6   9
ENDBRANCH   1   5
BRANCH   2  19
HETATM   19  C   UNL     1     -43.546  57.611 -56.026  1.00  0.00     0.114 C 
BRANCH  19  20
HETATM   20  C   UNL     1     -43.397  57.428 -57.553  1.00  0.00    -0.031 C 
HETATM   21  C   UNL     1     -43.147  55.947 -57.937  1.00  0.00     0.014 C 
HETATM   22  C   UNL     1     -43.062  55.787 -59.465  1.00  0.00    -0.013 C 
HETATM   23  C   UNL     1     -41.918  56.662 -60.004  1.00  0.00     0.009 C 
HETATM   24  C   UNL     1     -44.387  56.238 -60.098  1.00  0.00     0.009 C 
HETATM   25  C   UNL     1     -42.179  58.140 -59.669  1.00  0.00    -0.013 C 
HETATM   26  C   UNL     1     -42.263  58.307 -58.141  1.00  0.00     0.014 C 
HETATM   27  C   UNL     1     -43.510  58.576 -60.301  1.00  0.00     0.009 C 
HETATM   28  C   UNL     1     -44.656  57.711 -59.756  1.00  0.00    -0.013 C 
HETATM   29  C   UNL     1     -44.729  57.871 -58.228  1.00  0.00     0.014 C 
ENDBRANCH  19  20
ENDBRANCH   2  19
TORSDOF 4
ENDMDL
MODEL 2
REMARK VINA RESULT:      -8.5      1.547      2.257
REMARK  4 active torsions:
REMARK  status: ('A' for Active; 'I' for Inactive)
REMARK    1  A    between atoms: C_8  and  C_9 
REMARK       I    between atoms: C_9  and  N_10 
REMARK    2  A    between atoms: N_10  and  N_11 
REMARK       I    between atoms: N_11  and  C_12 
REMARK    3  A    between atoms: C_12  and  C_13 
REMARK    4  A    between atoms: C_13  and  C_14 
ROOT
HETATM    1  N   UNL     1     -44.778  56.390 -54.662  1.00  0.00    -0.267 N 
HETATM    2  C   UNL     1     -44.178  57.511 -55.205  1.00  0.00     0.236 C 
HETATM    3  O   UNL     1     -43.136  57.981 -54.758  1.00  0.00    -0.272 OA
HETATM    4  H   UNL     1     -45.505  55.867 -55.148  1.00  0.00     0.190 HD
ENDROOT
BRANCH   1   5
HETATM    5  N   UNL     1     -44.091  55.706 -53.656  1.00  0.00    -0.262 N 
HETATM    6  C   UNL     1     -43.282  54.634 -53.979  1.00  0.00     0.291 C 
HETATM    7  O   UNL     1     -43.238  54.154 -55.112  1.00  0.00    -0.264 OA
HETATM    8  H   UNL     1     -43.980  56.161 -52.747  1.00  0.00     0.190 HD
BRANCH   6   9
HETATM    9  C   UNL     1     -42.490  54.142 -52.843  1.00  0.00     0.158 A 
HETATM   10  C   UNL     1     -41.396  53.229 -52.879  1.00  0.00     0.028 A 
HETATM   11  C   UNL     1     -40.701  52.513 -53.873  1.00  0.00     0.016 A 
HETATM   12  C   UNL     1     -41.003  53.082 -51.553  1.00  0.00     0.063 A 
HETATM   13  C   UNL     1     -39.642  51.678 -53.497  1.00  0.00     0.001 A 
HETATM   14  C   UNL     1     -39.274  51.553 -52.157  1.00  0.00     0.002 A 
HETATM   15  C   UNL     1     -39.948  52.256 -51.153  1.00  0.00     0.032 A 
HETATM   16  N   UNL     1     -41.845  53.886 -50.837  1.00  0.00    -0.277 N 
HETATM   17  H   UNL     1     -41.850  54.032 -49.833  1.00  0.00     0.189 HD
HETATM   18  N   UNL     1     -42.755  54.539 -51.579  1.00  0.00    -0.168 NA
ENDBRANCH   6   9
ENDBRANCH   1   5
BRANCH   2  19
HETATM   19  C   UNL     1     -44.966  58.082 -56.375  1.00  0.00     0.114 C 
BRANCH  19  20
HETATM   20  C   UNL     1     -44.378  57.883 -57.790  1.00  0.00    -0.031 C 
HETATM   21  C   UNL     1     -45.486  57.819 -58.872  1.00  0.00     0.014 C 
HETATM   22  C   UNL     1     -44.869  57.680 -60.276  1.00  0.00    -0.013 C 
HETATM   23  C   UNL     1     -44.017  56.401 -60.331  1.00  0.00     0.009 C 
HETATM   24  C   UNL     1     -43.976  58.897 -60.562  1.00  0.00     0.009 C 
HETATM   25  C   UNL     1     -42.885  56.473 -59.291  1.00  0.00    -0.013 C 
HETATM   26  C   UNL     1     -43.497  56.611 -57.884  1.00  0.00     0.014 C 
HETATM   27  C   UNL     1     -42.005  57.699 -59.583  1.00  0.00     0.009 C 
HETATM   28  C   UNL     1     -42.852  58.978 -59.519  1.00  0.00    -0.013 C 
HETATM   29  C   UNL     1     -43.471  59.105 -58.117  1.00  0.00     0.014 C 
ENDBRANCH  19  20
ENDBRANCH   2  19
TORSDOF 4
ENDMDL
MODEL 3
REMARK VINA RESULT:      -8.1      1.528      2.308
REMARK  4 active torsions:
REMARK  status: ('A' for Active; 'I' for Inactive)
REMARK    1  A    between atoms: C_8  and  C_9 
REMARK       I    between atoms: C_9  and  N_10 
REMARK    2  A    between atoms: N_10  and  N_11 
REMARK       I    between atoms: N_11  and  C_12 
REMARK    3  A    between atoms: C_12  and  C_13 
REMARK    4  A    between atoms: C_13  and  C_14 
ROOT
HETATM    1  N   UNL     1     -41.084  55.527 -55.637  1.00  0.00    -0.267 N 
HETATM    2  C   UNL     1     -42.432  55.659 -55.913  1.00  0.00     0.236 C 
HETATM    3  O   UNL     1     -43.192  54.696 -55.954  1.00  0.00    -0.272 OA
HETATM    4  H   UNL     1     -40.496  56.320 -55.383  1.00  0.00     0.190 HD
ENDROOT
BRANCH   1   5
HETATM    5  N   UNL     1     -40.616  54.264 -55.264  1.00  0.00    -0.262 N 
HETATM    6  C   UNL     1     -40.476  53.948 -53.927  1.00  0.00     0.291 C 
HETATM    7  O   UNL     1     -40.615  54.779 -53.030  1.00  0.00    -0.264 OA
HETATM    8  H   UNL     1     -40.638  53.513 -55.957  1.00  0.00     0.190 HD
BRANCH   6   9
HETATM    9  C   UNL     1     -40.151  52.533 -53.697  1.00  0.00     0.158 A 
HETATM   10  C   UNL     1     -40.112  51.843 -52.450  1.00  0.00     0.028 A 
HETATM   11  C   UNL     1     -40.336  52.171 -51.099  1.00  0.00     0.016 A 
HETATM   12  C   UNL     1     -39.749  50.539 -52.769  1.00  0.00     0.063 A 
HETATM   13  C   UNL     1     -40.186  51.179 -50.123  1.00  0.00     0.001 A 
HETATM   14  C   UNL     1     -39.819  49.880 -50.477  1.00  0.00     0.002 A 
HETATM   15  C   UNL     1     -39.593  49.531 -51.812  1.00  0.00     0.032 A 
HETATM   16  N   UNL     1     -39.606  50.527 -54.128  1.00  0.00    -0.277 N 
HETATM   17  H   UNL     1     -39.348  49.738 -54.712  1.00  0.00     0.189 HD
HETATM   18  N   UNL     1     -39.839  51.709 -54.722  1.00  0.00    -0.168 NA
ENDBRANCH   6   9
ENDBRANCH   1   5
BRANCH   2  19
HETATM   19  C   UNL     1     -42.833  57.103 -56.176  1.00  0.00     0.114 C 
BRANCH  19  20
HETATM   20  C   UNL     1     -43.061  57.520 -57.646  1.00  0.00    -0.031 C 
HETATM   21  C   UNL     1     -44.532  57.928 -57.910  1.00  0.00     0.014 C 
HETATM   22  C   UNL     1     -44.716  58.394 -59.365  1.00  0.00    -0.013 C 
HETATM   23  C   UNL     1     -44.316  57.254 -60.317  1.00  0.00     0.009 C 
HETATM   24  C   UNL     1     -43.817  59.612 -59.626  1.00  0.00     0.009 C 
HETATM   25  C   UNL     1     -42.843  56.872 -60.095  1.00  0.00    -0.013 C 
HETATM   26  C   UNL     1     -42.653  56.403 -58.641  1.00  0.00     0.014 C 
HETATM   27  C   UNL     1     -41.955  58.100 -60.352  1.00  0.00     0.009 C 
HETATM   28  C   UNL     1     -42.346  59.237 -59.396  1.00  0.00    -0.013 C 
HETATM   29  C   UNL     1     -42.167  58.760 -57.944  1.00  0.00     0.014 C 
ENDBRANCH  19  20
ENDBRANCH   2  19
TORSDOF 4
ENDMDL
MODEL 4
REMARK VINA RESULT:      -8.1     14.288     16.134
REMARK  4 active torsions:
REMARK  status: ('A' for Active; 'I' for Inactive)
REMARK    1  A    between atoms: C_8  and  C_9 
REMARK       I    between atoms: C_9  and  N_10 
REMARK    2  A    between atoms: N_10  and  N_11 
REMARK       I    between atoms: N_11  and  C_12 
REMARK    3  A    between atoms: C_12  and  C_13 
REMARK    4  A    between atoms: C_13  and  C_14 
ROOT
HETATM    1  N   UNL     1     -37.300  41.862 -55.349  1.00  0.00    -0.267 N 
HETATM    2  C   UNL     1     -36.401  42.200 -56.344  1.00  0.00     0.236 C 
HETATM    3  O   UNL     1     -35.224  42.455 -56.107  1.00  0.00    -0.272 OA
HETATM    4  H   UNL     1     -38.205  41.438 -55.549  1.00  0.00     0.190 HD
ENDROOT
BRANCH   1   5
HETATM    5  N   UNL     1     -36.803  41.680 -54.056  1.00  0.00    -0.262 N 
HETATM    6  C   UNL     1     -36.551  40.405 -53.586  1.00  0.00     0.291 C 
HETATM    7  O   UNL     1     -36.874  39.394 -54.208  1.00  0.00    -0.264 OA
HETATM    8  H   UNL     1     -36.384  42.482 -53.578  1.00  0.00     0.190 HD
BRANCH   6   9
HETATM    9  C   UNL     1     -35.864  40.391 -52.287  1.00  0.00     0.158 A 
HETATM   10  C   UNL     1     -34.460  40.325 -52.049  1.00  0.00     0.028 A 
HETATM   11  C   UNL     1     -33.297  40.257 -52.840  1.00  0.00     0.016 A 
HETATM   12  C   UNL     1     -34.326  40.331 -50.665  1.00  0.00     0.063 A 
HETATM   13  C   UNL     1     -32.048  40.197 -52.210  1.00  0.00     0.001 A 
HETATM   14  C   UNL     1     -31.949  40.204 -50.819  1.00  0.00     0.002 A 
HETATM   15  C   UNL     1     -33.090  40.272 -50.014  1.00  0.00     0.032 A 
HETATM   16  N   UNL     1     -35.603  40.404 -50.181  1.00  0.00    -0.277 N 
HETATM   17  H   UNL     1     -35.890  40.432 -49.208  1.00  0.00     0.189 HD
HETATM   18  N   UNL     1     -36.555  40.441 -51.127  1.00  0.00    -0.168 NA
ENDBRANCH   6   9
ENDBRANCH   1   5
BRANCH   2  19
HETATM   19  C   UNL     1     -37.046  42.238 -57.721  1.00  0.00     0.114 C 
BRANCH  19  20
HETATM   20  C   UNL     1     -37.179  40.898 -58.479  1.00  0.00    -0.031 C 
HETATM   21  C   UNL     1     -37.340  41.110 -60.006  1.00  0.00     0.014 C 
HETATM   22  C   UNL     1     -37.409  39.759 -60.739  1.00  0.00    -0.013 C 
HETATM   23  C   UNL     1     -38.601  38.950 -60.200  1.00  0.00     0.009 C 
HETATM   24  C   UNL     1     -36.111  38.978 -60.490  1.00  0.00     0.009 C 
HETATM   25  C   UNL     1     -38.429  38.694 -58.693  1.00  0.00    -0.013 C 
HETATM   26  C   UNL     1     -38.360  40.042 -57.954  1.00  0.00     0.014 C 
HETATM   27  C   UNL     1     -37.123  37.918 -58.457  1.00  0.00     0.009 C 
HETATM   28  C   UNL     1     -35.930  38.729 -58.985  1.00  0.00    -0.013 C 
HETATM   29  C   UNL     1     -35.873  40.080 -58.253  1.00  0.00     0.014 C 
ENDBRANCH  19  20
ENDBRANCH   2  19
TORSDOF 4
ENDMDL
MODEL 5
REMARK VINA RESULT:      -7.9      2.892      8.517
REMARK  4 active torsions:
REMARK  status: ('A' for Active; 'I' for Inactive)
REMARK    1  A    between atoms: C_8  and  C_9 
REMARK       I    between atoms: C_9  and  N_10 
REMARK    2  A    between atoms: N_10  and  N_11 
REMARK       I    between atoms: N_11  and  C_12 
REMARK    3  A    between atoms: C_12  and  C_13 
REMARK    4  A    between atoms: C_13  and  C_14 
ROOT
HETATM    1  N   UNL     1     -43.192  54.411 -55.850  1.00  0.00    -0.267 N 
HETATM    2  C   UNL     1     -41.975  54.222 -55.222  1.00  0.00     0.236 C 
HETATM    3  O   UNL     1     -40.913  54.573 -55.728  1.00  0.00    -0.272 OA
HETATM    4  H   UNL     1     -44.081  54.331 -55.358  1.00  0.00     0.190 HD
ENDROOT
BRANCH   1   5
HETATM    5  N   UNL     1     -43.205  55.146 -57.038  1.00  0.00    -0.262 N 
HETATM    6  C   UNL     1     -43.381  56.516 -56.999  1.00  0.00     0.291 C 
HETATM    7  O   UNL     1     -43.666  57.119 -55.965  1.00  0.00    -0.264 OA
HETATM    8  H   UNL     1     -42.824  54.714 -57.882  1.00  0.00     0.190 HD
BRANCH   6   9
HETATM    9  C   UNL     1     -43.188  57.162 -58.305  1.00  0.00     0.158 A 
HETATM   10  C   UNL     1     -42.623  58.445 -58.563  1.00  0.00     0.028 A 
HETATM   11  C   UNL     1     -42.082  59.492 -57.792  1.00  0.00     0.016 A 
HETATM   12  C   UNL     1     -42.674  58.592 -59.945  1.00  0.00     0.063 A 
HETATM   13  C   UNL     1     -41.615  60.643 -58.438  1.00  0.00     0.001 A 
HETATM   14  C   UNL     1     -41.682  60.759 -59.826  1.00  0.00     0.002 A 
HETATM   15  C   UNL     1     -42.214  59.732 -60.613  1.00  0.00     0.032 A 
HETATM   16  N   UNL     1     -43.236  57.436 -60.409  1.00  0.00    -0.277 N 
HETATM   17  H   UNL     1     -43.426  57.190 -61.375  1.00  0.00     0.189 HD
HETATM   18  N   UNL     1     -43.560  56.551 -59.452  1.00  0.00    -0.168 NA
ENDBRANCH   6   9
ENDBRANCH   1   5
BRANCH   2  19
HETATM   19  C   UNL     1     -42.116  53.523 -53.879  1.00  0.00     0.114 C 
BRANCH  19  20
HETATM   20  C   UNL     1     -42.122  54.411 -52.614  1.00  0.00    -0.031 C 
HETATM   21  C   UNL     1     -42.338  55.906 -52.960  1.00  0.00     0.014 C 
HETATM   22  C   UNL     1     -42.399  56.758 -51.679  1.00  0.00    -0.013 C 
HETATM   23  C   UNL     1     -41.086  56.592 -50.896  1.00  0.00     0.009 C 
HETATM   24  C   UNL     1     -43.573  56.284 -50.809  1.00  0.00     0.009 C 
HETATM   25  C   UNL     1     -40.884  55.117 -50.508  1.00  0.00    -0.013 C 
HETATM   26  C   UNL     1     -40.820  54.260 -51.786  1.00  0.00     0.014 C 
HETATM   27  C   UNL     1     -42.068  54.653 -49.645  1.00  0.00     0.009 C 
HETATM   28  C   UNL     1     -43.380  54.808 -50.428  1.00  0.00    -0.013 C 
HETATM   29  C   UNL     1     -43.307  53.961 -51.709  1.00  0.00     0.014 C 
ENDBRANCH  19  20
ENDBRANCH   2  19
TORSDOF 4
ENDMDL
MODEL 6
REMARK VINA RESULT:      -7.9      1.565      2.212
REMARK  4 active torsions:
REMARK  status: ('A' for Active; 'I' for Inactive)
REMARK    1  A    between atoms: C_8  and  C_9 
REMARK       I    between atoms: C_9  and  N_10 
REMARK    2  A    between atoms: N_10  and  N_11 
REMARK       I    between atoms: N_11  and  C_12 
REMARK    3  A    between atoms: C_12  and  C_13 
REMARK    4  A    between atoms: C_13  and  C_14 
ROOT
HETATM    1  N   UNL     1     -42.856  57.225 -54.969  1.00  0.00    -0.267 N 
HETATM    2  C   UNL     1     -42.417  58.489 -55.315  1.00  0.00     0.236 C 
HETATM    3  O   UNL     1     -41.394  58.981 -54.848  1.00  0.00    -0.272 OA
HETATM    4  H   UNL     1     -43.564  56.724 -55.504  1.00  0.00     0.190 HD
ENDROOT
BRANCH   1   5
HETATM    5  N   UNL     1     -42.023  56.445 -54.161  1.00  0.00    -0.262 N 
HETATM    6  C   UNL     1     -42.541  55.805 -53.052  1.00  0.00     0.291 C 
HETATM    7  O   UNL     1     -43.689  55.997 -52.651  1.00  0.00    -0.264 OA
HETATM    8  H   UNL     1     -41.123  56.141 -54.540  1.00  0.00     0.190 HD
BRANCH   6   9
HETATM    9  C   UNL     1     -41.588  54.884 -52.417  1.00  0.00     0.158 A 
HETATM   10  C   UNL     1     -41.066  53.670 -52.953  1.00  0.00     0.028 A 
HETATM   11  C   UNL     1     -41.213  52.940 -54.148  1.00  0.00     0.016 A 
HETATM   12  C   UNL     1     -40.220  53.174 -51.967  1.00  0.00     0.063 A 
HETATM   13  C   UNL     1     -40.508  51.741 -54.305  1.00  0.00     0.001 A 
HETATM   14  C   UNL     1     -39.668  51.270 -53.295  1.00  0.00     0.002 A 
HETATM   15  C   UNL     1     -39.505  51.979 -52.101  1.00  0.00     0.032 A 
HETATM   16  N   UNL     1     -40.281  54.083 -50.949  1.00  0.00    -0.277 N 
HETATM   17  H   UNL     1     -39.788  54.048 -50.062  1.00  0.00     0.189 HD
HETATM   18  N   UNL     1     -41.095  55.126 -51.182  1.00  0.00    -0.168 NA
ENDBRANCH   6   9
ENDBRANCH   1   5
BRANCH   2  19
HETATM   19  C   UNL     1     -43.350  59.179 -56.299  1.00  0.00     0.114 C 
BRANCH  19  20
HETATM   20  C   UNL     1     -43.285  58.725 -57.775  1.00  0.00    -0.031 C 
HETATM   21  C   UNL     1     -41.855  58.287 -58.182  1.00  0.00     0.014 C 
HETATM   22  C   UNL     1     -41.833  57.784 -59.637  1.00  0.00    -0.013 C 
HETATM   23  C   UNL     1     -42.317  58.908 -60.569  1.00  0.00     0.009 C 
HETATM   24  C   UNL     1     -42.771  56.575 -59.771  1.00  0.00     0.009 C 
HETATM   25  C   UNL     1     -43.753  59.319 -60.202  1.00  0.00    -0.013 C 
HETATM   26  C   UNL     1     -43.781  59.825 -58.748  1.00  0.00     0.014 C 
HETATM   27  C   UNL     1     -44.679  58.099 -60.333  1.00  0.00     0.009 C 
HETATM   28  C   UNL     1     -44.204  56.979 -59.396  1.00  0.00    -0.013 C 
HETATM   29  C   UNL     1     -44.222  57.492 -57.946  1.00  0.00     0.014 C 
ENDBRANCH  19  20
ENDBRANCH   2  19
TORSDOF 4
ENDMDL
MODEL 7
REMARK VINA RESULT:      -7.9      3.209      5.053
REMARK  4 active torsions:
REMARK  status: ('A' for Active; 'I' for Inactive)
REMARK    1  A    between atoms: C_8  and  C_9 
REMARK       I    between atoms: C_9  and  N_10 
REMARK    2  A    between atoms: N_10  and  N_11 
REMARK       I    between atoms: N_11  and  C_12 
REMARK    3  A    between atoms: C_12  and  C_13 
REMARK    4  A    between atoms: C_13  and  C_14 
ROOT
HETATM    1  N   UNL     1     -42.243  56.773 -53.325  1.00  0.00    -0.267 N 
HETATM    2  C   UNL     1     -43.428  56.812 -54.036  1.00  0.00     0.236 C 
HETATM    3  O   UNL     1     -44.071  55.800 -54.300  1.00  0.00    -0.272 OA
HETATM    4  H   UNL     1     -41.823  57.604 -52.912  1.00  0.00     0.190 HD
ENDROOT
BRANCH   1   5
HETATM    5  N   UNL     1     -41.849  55.546 -52.784  1.00  0.00    -0.262 N 
HETATM    6  C   UNL     1     -40.829  54.827 -53.376  1.00  0.00     0.291 C 
HETATM    7  O   UNL     1     -40.329  55.148 -54.453  1.00  0.00    -0.264 OA
HETATM    8  H   UNL     1     -42.126  55.326 -51.824  1.00  0.00     0.190 HD
BRANCH   6   9
HETATM    9  C   UNL     1     -40.412  53.658 -52.589  1.00  0.00     0.158 A 
HETATM   10  C   UNL     1     -40.200  52.327 -53.056  1.00  0.00     0.028 A 
HETATM   11  C   UNL     1     -40.285  51.659 -54.293  1.00  0.00     0.016 A 
HETATM   12  C   UNL     1     -39.827  51.603 -51.929  1.00  0.00     0.063 A 
HETATM   13  C   UNL     1     -39.993  50.291 -54.348  1.00  0.00     0.001 A 
HETATM   14  C   UNL     1     -39.623  49.593 -53.199  1.00  0.00     0.002 A 
HETATM   15  C   UNL     1     -39.531  50.236 -51.961  1.00  0.00     0.032 A 
HETATM   16  N   UNL     1     -39.832  52.505 -50.903  1.00  0.00    -0.277 N 
HETATM   17  H   UNL     1     -39.607  52.330 -49.929  1.00  0.00     0.189 HD
HETATM   18  N   UNL     1     -40.180  53.752 -51.260  1.00  0.00    -0.168 NA
ENDBRANCH   6   9
ENDBRANCH   1   5
BRANCH   2  19
HETATM   19  C   UNL     1     -43.807  58.225 -54.456  1.00  0.00     0.114 C 
BRANCH  19  20
HETATM   20  C   UNL     1     -44.281  59.191 -53.347  1.00  0.00    -0.031 C 
HETATM   21  C   UNL     1     -43.127  60.084 -52.826  1.00  0.00     0.014 C 
HETATM   22  C   UNL     1     -43.642  61.075 -51.767  1.00  0.00    -0.013 C 
HETATM   23  C   UNL     1     -44.260  60.292 -50.596  1.00  0.00     0.009 C 
HETATM   24  C   UNL     1     -44.713  61.979 -52.394  1.00  0.00     0.009 C 
HETATM   25  C   UNL     1     -45.437  59.436 -51.095  1.00  0.00    -0.013 C 
HETATM   26  C   UNL     1     -44.927  58.441 -52.154  1.00  0.00     0.014 C 
HETATM   27  C   UNL     1     -46.498  60.351 -51.727  1.00  0.00     0.009 C 
HETATM   28  C   UNL     1     -45.885  61.127 -52.903  1.00  0.00    -0.013 C 
HETATM   29  C   UNL     1     -45.367  60.129 -53.952  1.00  0.00     0.014 C 
ENDBRANCH  19  20
ENDBRANCH   2  19
TORSDOF 4
ENDMDL
MODEL 8
REMARK VINA RESULT:      -7.8     14.477     16.138
REMARK  4 active torsions:
REMARK  status: ('A' for Active; 'I' for Inactive)
REMARK    1  A    between atoms: C_8  and  C_9 
REMARK       I    between atoms: C_9  and  N_10 
REMARK    2  A    between atoms: N_10  and  N_11 
REMARK       I    between atoms: N_11  and  C_12 
REMARK    3  A    between atoms: C_12  and  C_13 
REMARK    4  A    between atoms: C_13  and  C_14 
ROOT
HETATM    1  N   UNL     1     -37.310  42.175 -56.599  1.00  0.00    -0.267 N 
HETATM    2  C   UNL     1     -36.475  42.059 -57.695  1.00  0.00     0.236 C 
HETATM    3  O   UNL     1     -35.257  42.188 -57.610  1.00  0.00    -0.272 OA
HETATM    4  H   UNL     1     -38.278  41.856 -56.611  1.00  0.00     0.190 HD
ENDROOT
BRANCH   1   5
HETATM    5  N   UNL     1     -36.718  42.311 -55.341  1.00  0.00    -0.262 N 
HETATM    6  C   UNL     1     -36.507  41.196 -54.553  1.00  0.00     0.291 C 
HETATM    7  O   UNL     1     -36.943  40.084 -54.848  1.00  0.00    -0.264 OA
HETATM    8  H   UNL     1     -36.213  43.176 -55.132  1.00  0.00     0.190 HD
BRANCH   6   9
HETATM    9  C   UNL     1     -35.715  41.480 -53.348  1.00  0.00     0.158 A 
HETATM   10  C   UNL     1     -35.035  40.543 -52.516  1.00  0.00     0.028 A 
HETATM   11  C   UNL     1     -34.852  39.146 -52.496  1.00  0.00     0.016 A 
HETATM   12  C   UNL     1     -34.449  41.307 -51.513  1.00  0.00     0.063 A 
HETATM   13  C   UNL     1     -34.091  38.574 -51.470  1.00  0.00     0.001 A 
HETATM   14  C   UNL     1     -33.518  39.369 -50.478  1.00  0.00     0.002 A 
HETATM   15  C   UNL     1     -33.685  40.758 -50.479  1.00  0.00     0.032 A 
HETATM   16  N   UNL     1     -34.794  42.599 -51.797  1.00  0.00    -0.277 N 
HETATM   17  H   UNL     1     -34.539  43.432 -51.276  1.00  0.00     0.189 HD
HETATM   18  N   UNL     1     -35.557  42.743 -52.893  1.00  0.00    -0.168 NA
ENDBRANCH   6   9
ENDBRANCH   1   5
BRANCH   2  19
HETATM   19  C   UNL     1     -37.240  41.785 -58.982  1.00  0.00     0.114 C 
BRANCH  19  20
HETATM   20  C   UNL     1     -37.342  40.314 -59.445  1.00  0.00    -0.031 C 
HETATM   21  C   UNL     1     -36.165  39.457 -58.914  1.00  0.00     0.014 C 
HETATM   22  C   UNL     1     -36.325  37.987 -59.341  1.00  0.00    -0.013 C 
HETATM   23  C   UNL     1     -36.372  37.908 -60.876  1.00  0.00     0.009 C 
HETATM   24  C   UNL     1     -37.634  37.430 -58.764  1.00  0.00     0.009 C 
HETATM   25  C   UNL     1     -37.565  38.718 -61.412  1.00  0.00    -0.013 C 
HETATM   26  C   UNL     1     -37.409  40.190 -60.989  1.00  0.00     0.014 C 
HETATM   27  C   UNL     1     -38.867  38.155 -60.821  1.00  0.00     0.009 C 
HETATM   28  C   UNL     1     -38.827  38.243 -59.288  1.00  0.00    -0.013 C 
HETATM   29  C   UNL     1     -38.659  39.714 -58.870  1.00  0.00     0.014 C 
ENDBRANCH  19  20
ENDBRANCH   2  19
TORSDOF 4
ENDMDL
MODEL 9
REMARK VINA RESULT:      -7.7      4.411      6.032
REMARK  4 active torsions:
REMARK  status: ('A' for Active; 'I' for Inactive)
REMARK    1  A    between atoms: C_8  and  C_9 
REMARK       I    between atoms: C_9  and  N_10 
REMARK    2  A    between atoms: N_10  and  N_11 
REMARK       I    between atoms: N_11  and  C_12 
REMARK    3  A    between atoms: C_12  and  C_13 
REMARK    4  A    between atoms: C_13  and  C_14 
ROOT
HETATM    1  N   UNL     1     -41.359  57.906 -50.032  1.00  0.00    -0.267 N 
HETATM    2  C   UNL     1     -41.251  58.813 -51.069  1.00  0.00     0.236 C 
HETATM    3  O   UNL     1     -40.671  58.547 -52.118  1.00  0.00    -0.272 OA
HETATM    4  H   UNL     1     -42.015  58.029 -49.262  1.00  0.00     0.190 HD
ENDROOT
BRANCH   1   5
HETATM    5  N   UNL     1     -40.904  56.603 -50.256  1.00  0.00    -0.262 N 
HETATM    6  C   UNL     1     -41.807  55.594 -50.529  1.00  0.00     0.291 C 
HETATM    7  O   UNL     1     -43.025  55.755 -50.452  1.00  0.00    -0.264 OA
HETATM    8  H   UNL     1     -39.915  56.465 -50.478  1.00  0.00     0.190 HD
BRANCH   6   9
HETATM    9  C   UNL     1     -41.164  54.331 -50.919  1.00  0.00     0.158 A 
HETATM   10  C   UNL     1     -40.874  53.877 -52.239  1.00  0.00     0.028 A 
HETATM   11  C   UNL     1     -41.049  54.371 -53.546  1.00  0.00     0.016 A 
HETATM   12  C   UNL     1     -40.277  52.632 -52.070  1.00  0.00     0.063 A 
HETATM   13  C   UNL     1     -40.621  53.595 -54.630  1.00  0.00     0.001 A 
HETATM   14  C   UNL     1     -40.027  52.350 -54.426  1.00  0.00     0.002 A 
HETATM   15  C   UNL     1     -39.841  51.840 -53.137  1.00  0.00     0.032 A 
HETATM   16  N   UNL     1     -40.243  52.429 -50.719  1.00  0.00    -0.277 N 
HETATM   17  H   UNL     1     -39.872  51.623 -50.227  1.00  0.00     0.189 HD
HETATM   18  N   UNL     1     -40.769  53.430 -49.993  1.00  0.00    -0.168 NA
ENDBRANCH   6   9
ENDBRANCH   1   5
BRANCH   2  19
HETATM   19  C   UNL     1     -41.900  60.150 -50.742  1.00  0.00     0.114 C 
BRANCH  19  20
HETATM   20  C   UNL     1     -43.265  60.454 -51.398  1.00  0.00    -0.031 C 
HETATM   21  C   UNL     1     -44.109  61.438 -50.548  1.00  0.00     0.014 C 
HETATM   22  C   UNL     1     -45.436  61.769 -51.255  1.00  0.00    -0.013 C 
HETATM   23  C   UNL     1     -46.227  60.470 -51.482  1.00  0.00     0.009 C 
HETATM   24  C   UNL     1     -45.140  62.426 -52.611  1.00  0.00     0.009 C 
HETATM   25  C   UNL     1     -45.417  59.503 -52.363  1.00  0.00    -0.013 C 
HETATM   26  C   UNL     1     -44.089  59.167 -51.660  1.00  0.00     0.014 C 
HETATM   27  C   UNL     1     -45.121  60.175 -53.714  1.00  0.00     0.009 C 
HETATM   28  C   UNL     1     -44.322  61.468 -53.490  1.00  0.00    -0.013 C 
HETATM   29  C   UNL     1     -43.002  61.129 -52.777  1.00  0.00     0.014 C 
ENDBRANCH  19  20
ENDBRANCH   2  19
TORSDOF 4
ENDMDL
MODEL 10
REMARK VINA RESULT:      -7.7      3.235      8.777
REMARK  4 active torsions:
REMARK  status: ('A' for Active; 'I' for Inactive)
REMARK    1  A    between atoms: C_8  and  C_9 
REMARK       I    between atoms: C_9  and  N_10 
REMARK    2  A    between atoms: N_10  and  N_11 
REMARK       I    between atoms: N_11  and  C_12 
REMARK    3  A    between atoms: C_12  and  C_13 
REMARK    4  A    between atoms: C_13  and  C_14 
ROOT
HETATM    1  N   UNL     1     -42.574  55.541 -56.141  1.00  0.00    -0.267 N 
HETATM    2  C   UNL     1     -42.440  54.412 -55.355  1.00  0.00     0.236 C 
HETATM    3  O   UNL     1     -43.167  53.432 -55.483  1.00  0.00    -0.272 OA
HETATM    4  H   UNL     1     -41.852  56.258 -56.199  1.00  0.00     0.190 HD
ENDROOT
BRANCH   1   5
HETATM    5  N   UNL     1     -43.486  55.494 -57.199  1.00  0.00    -0.262 N 
HETATM    6  C   UNL     1     -43.264  56.247 -58.336  1.00  0.00     0.291 C 
HETATM    7  O   UNL     1     -42.358  57.077 -58.415  1.00  0.00    -0.264 OA
HETATM    8  H   UNL     1     -44.150  54.717 -57.234  1.00  0.00     0.190 HD
BRANCH   6   9
HETATM    9  C   UNL     1     -44.208  55.950 -59.421  1.00  0.00     0.158 A 
HETATM   10  C   UNL     1     -45.373  56.688 -59.785  1.00  0.00     0.028 A 
HETATM   11  C   UNL     1     -46.023  57.851 -59.328  1.00  0.00     0.016 A 
HETATM   12  C   UNL     1     -45.920  55.995 -60.859  1.00  0.00     0.063 A 
HETATM   13  C   UNL     1     -47.196  58.271 -59.967  1.00  0.00     0.001 A 
HETATM   14  C   UNL     1     -47.719  57.552 -61.042  1.00  0.00     0.002 A 
HETATM   15  C   UNL     1     -47.090  56.395 -61.513  1.00  0.00     0.032 A 
HETATM   16  N   UNL     1     -45.083  54.936 -61.068  1.00  0.00    -0.277 N 
HETATM   17  H   UNL     1     -45.169  54.214 -61.777  1.00  0.00     0.189 HD
HETATM   18  N   UNL     1     -44.042  54.874 -60.222  1.00  0.00    -0.168 NA
ENDBRANCH   6   9
ENDBRANCH   1   5
BRANCH   2  19
HETATM   19  C   UNL     1     -41.326  54.549 -54.327  1.00  0.00     0.114 C 
BRANCH  19  20
HETATM   20  C   UNL     1     -41.721  55.028 -52.913  1.00  0.00    -0.031 C 
HETATM   21  C   UNL     1     -43.105  54.479 -52.482  1.00  0.00     0.014 C 
HETATM   22  C   UNL     1     -43.445  54.923 -51.048  1.00  0.00    -0.013 C 
HETATM   23  C   UNL     1     -43.454  56.460 -50.982  1.00  0.00     0.009 C 
HETATM   24  C   UNL     1     -42.382  54.380 -50.082  1.00  0.00     0.009 C 
HETATM   25  C   UNL     1     -42.070  57.014 -51.363  1.00  0.00    -0.013 C 
HETATM   26  C   UNL     1     -41.726  56.574 -52.798  1.00  0.00     0.014 C 
HETATM   27  C   UNL     1     -41.015  56.457 -50.394  1.00  0.00     0.009 C 
HETATM   28  C   UNL     1     -40.998  54.923 -50.466  1.00  0.00    -0.013 C 
HETATM   29  C   UNL     1     -40.665  54.487 -51.904  1.00  0.00     0.014 C 
ENDBRANCH  19  20
ENDBRANCH   2  19
TORSDOF 4
ENDMDL
