MODEL 1
REMARK VINA RESULT:      -9.1      0.000      0.000
REMARK  7 active torsions:
REMARK  status: ('A' for Active; 'I' for Inactive)
REMARK    1  A    between atoms: O_2  and  C_3 
REMARK    2  A    between atoms: C_5  and  C_6 
REMARK    3  A    between atoms: C_6  and  O_7 
REMARK    4  A    between atoms: C_6  and  C_8 
REMARK    5  A    between atoms: C_8  and  N_9 
REMARK       I    between atoms: N_9  and  C_10 
REMARK    6  A    between atoms: C_10  and  C_11 
REMARK    7  A    between atoms: C_12  and  C_13 
ROOT
HETATM    1  C   UNL     1     -41.632  57.515 -53.325  1.00  0.00     0.089 C 
HETATM    2  C   UNL     1     -41.727  56.609 -52.072  1.00  0.00     0.068 C 
HETATM    3  C   UNL     1     -40.907  57.186 -50.899  1.00  0.00     0.013 C 
HETATM    4  C   UNL     1     -41.248  58.639 -50.598  1.00  0.00     0.001 C 
HETATM    5  C   UNL     1     -41.084  59.507 -51.837  1.00  0.00     0.001 C 
HETATM    6  C   UNL     1     -41.944  58.983 -52.978  1.00  0.00     0.015 C 
ENDROOT
BRANCH   1   7
HETATM    7  C   UNL     1     -42.595  57.056 -54.423  1.00  0.00     0.222 C 
HETATM    8  N   UNL     1     -41.986  56.628 -55.580  1.00  0.00    -0.358 N 
HETATM    9  H   UNL     1     -40.985  56.422 -55.534  1.00  0.00     0.162 HD
HETATM   10  O   UNL     1     -43.816  57.062 -54.292  1.00  0.00    -0.273 OA
BRANCH   8  11
HETATM   11  C   UNL     1     -42.756  56.053 -56.676  1.00  0.00     0.159 C 
BRANCH  11  12
HETATM   12  C   UNL     1     -43.071  57.095 -57.766  1.00  0.00     0.169 C 
BRANCH  12  13
HETATM   13  C   UNL     1     -44.038  56.546 -58.793  1.00  0.00    -0.025 A 
HETATM   14  C   UNL     1     -45.207  57.245 -59.148  1.00  0.00     0.046 A 
HETATM   15  C   UNL     1     -46.073  56.741 -60.121  1.00  0.00     0.068 A 
HETATM   16  C   UNL     1     -45.767  55.532 -60.747  1.00  0.00     0.037 A 
HETATM   17  C   UNL     1     -44.612  54.829 -60.410  1.00  0.00     0.003 A 
HETATM   18  C   UNL     1     -43.749  55.336 -59.441  1.00  0.00     0.010 A 
BRANCH  15  19
HETATM   19  O   UNL     1     -47.231  57.330 -60.550  1.00  0.00    -0.356 OA
HETATM   20  C   UNL     1     -47.890  56.719 -61.652  1.00  0.00     0.210 C 
ENDBRANCH  15  19
ENDBRANCH  12  13
BRANCH  12  21
HETATM   21  O   UNL     1     -41.849  57.478 -58.411  1.00  0.00    -0.389 OA
HETATM   22  H   UNL     1     -41.214  57.612 -57.684  1.00  0.00     0.210 HD
ENDBRANCH  12  21
ENDBRANCH  11  12
ENDBRANCH   8  11
ENDBRANCH   1   7
BRANCH   2  23
HETATM   23  C   UNL     1     -41.252  55.204 -52.333  1.00  0.00     0.110 A 
HETATM   24  N   UNL     1     -41.252  54.567 -53.489  1.00  0.00    -0.233 NA
HETATM   25  C   UNL     1     -40.693  53.337 -53.238  1.00  0.00     0.087 A 
HETATM   26  C   UNL     1     -40.359  53.210 -51.895  1.00  0.00     0.062 A 
HETATM   27  C   UNL     1     -40.443  52.274 -54.117  1.00  0.00     0.057 A 
HETATM   28  N   UNL     1     -40.738  54.405 -51.338  1.00  0.00    -0.342 N 
HETATM   29  C   UNL     1     -39.769  52.067 -51.355  1.00  0.00     0.034 A 
HETATM   30  H   UNL     1     -40.636  54.664 -50.367  1.00  0.00     0.167 HD
HETATM   31  C   UNL     1     -39.520  51.014 -52.243  1.00  0.00     0.026 A 
HETATM   32  C   UNL     1     -39.853  51.119 -53.597  1.00  0.00     0.036 A 
HETATM   33 CL   UNL     1     -39.528  49.793 -54.649  1.00  0.00    -0.084 Cl
ENDBRANCH   2  23
TORSDOF 7
ENDMDL
MODEL 2
REMARK VINA RESULT:      -8.7      1.592      1.780
REMARK  7 active torsions:
REMARK  status: ('A' for Active; 'I' for Inactive)
REMARK    1  A    between atoms: O_2  and  C_3 
REMARK    2  A    between atoms: C_5  and  C_6 
REMARK    3  A    between atoms: C_6  and  O_7 
REMARK    4  A    between atoms: C_6  and  C_8 
REMARK    5  A    between atoms: C_8  and  N_9 
REMARK       I    between atoms: N_9  and  C_10 
REMARK    6  A    between atoms: C_10  and  C_11 
REMARK    7  A    between atoms: C_12  and  C_13 
ROOT
HETATM    1  C   UNL     1     -42.709  57.825 -53.007  1.00  0.00     0.089 C 
HETATM    2  C   UNL     1     -43.481  56.515 -52.712  1.00  0.00     0.068 C 
HETATM    3  C   UNL     1     -44.110  56.541 -51.303  1.00  0.00     0.013 C 
HETATM    4  C   UNL     1     -44.953  57.784 -51.056  1.00  0.00     0.001 C 
HETATM    5  C   UNL     1     -44.144  59.050 -51.297  1.00  0.00     0.001 C 
HETATM    6  C   UNL     1     -43.576  59.064 -52.708  1.00  0.00     0.015 C 
ENDROOT
BRANCH   1   7
HETATM    7  C   UNL     1     -42.251  57.889 -54.467  1.00  0.00     0.222 C 
HETATM    8  N   UNL     1     -43.057  57.211 -55.352  1.00  0.00    -0.358 N 
HETATM    9  H   UNL     1     -43.988  56.941 -55.026  1.00  0.00     0.162 HD
HETATM   10  O   UNL     1     -41.247  58.495 -54.831  1.00  0.00    -0.273 OA
BRANCH   8  11
HETATM   11  C   UNL     1     -42.823  57.270 -56.790  1.00  0.00     0.159 C 
BRANCH  11  12
HETATM   12  C   UNL     1     -42.956  55.885 -57.451  1.00  0.00     0.169 C 
BRANCH  12  13
HETATM   13  C   UNL     1     -43.949  55.908 -58.592  1.00  0.00    -0.025 A 
HETATM   14  C   UNL     1     -44.757  57.034 -58.839  1.00  0.00     0.046 A 
HETATM   15  C   UNL     1     -45.647  57.053 -59.916  1.00  0.00     0.068 A 
HETATM   16  C   UNL     1     -45.728  55.939 -60.754  1.00  0.00     0.037 A 
HETATM   17  C   UNL     1     -44.933  54.817 -60.524  1.00  0.00     0.003 A 
HETATM   18  C   UNL     1     -44.045  54.803 -59.451  1.00  0.00     0.010 A 
BRANCH  15  19
HETATM   19  O   UNL     1     -46.476  58.086 -60.257  1.00  0.00    -0.356 OA
HETATM   20  C   UNL     1     -45.855  59.301 -60.658  1.00  0.00     0.210 C 
ENDBRANCH  15  19
ENDBRANCH  12  13
BRANCH  12  21
HETATM   21  O   UNL     1     -43.378  54.934 -56.463  1.00  0.00    -0.389 OA
HETATM   22  H   UNL     1     -44.228  54.592 -56.793  1.00  0.00     0.210 HD
ENDBRANCH  12  21
ENDBRANCH  11  12
ENDBRANCH   8  11
ENDBRANCH   1   7
BRANCH   2  23
HETATM   23  C   UNL     1     -42.609  55.291 -52.817  1.00  0.00     0.110 A 
HETATM   24  N   UNL     1     -42.552  54.439 -53.823  1.00  0.00    -0.233 NA
HETATM   25  C   UNL     1     -41.592  53.518 -53.480  1.00  0.00     0.087 A 
HETATM   26  C   UNL     1     -41.060  53.802 -52.228  1.00  0.00     0.062 A 
HETATM   27  C   UNL     1     -41.125  52.407 -54.194  1.00  0.00     0.057 A 
HETATM   28  N   UNL     1     -41.733  54.926 -51.821  1.00  0.00    -0.342 N 
HETATM   29  C   UNL     1     -40.060  53.036 -51.626  1.00  0.00     0.034 A 
HETATM   30  H   UNL     1     -41.593  55.416 -50.948  1.00  0.00     0.167 HD
HETATM   31  C   UNL     1     -39.598  51.932 -52.352  1.00  0.00     0.026 A 
HETATM   32  C   UNL     1     -40.124  51.625 -53.610  1.00  0.00     0.036 A 
HETATM   33 CL   UNL     1     -39.524  50.253 -54.463  1.00  0.00    -0.084 Cl
ENDBRANCH   2  23
TORSDOF 7
ENDMDL
MODEL 3
REMARK VINA RESULT:      -8.7      3.117      6.316
REMARK  7 active torsions:
REMARK  status: ('A' for Active; 'I' for Inactive)
REMARK    1  A    between atoms: O_2  and  C_3 
REMARK    2  A    between atoms: C_5  and  C_6 
REMARK    3  A    between atoms: C_6  and  O_7 
REMARK    4  A    between atoms: C_6  and  C_8 
REMARK    5  A    between atoms: C_8  and  N_9 
REMARK       I    between atoms: N_9  and  C_10 
REMARK    6  A    between atoms: C_10  and  C_11 
REMARK    7  A    between atoms: C_12  and  C_13 
ROOT
HETATM    1  C   UNL     1     -40.764  53.765 -52.308  1.00  0.00     0.089 C 
HETATM    2  C   UNL     1     -41.359  53.223 -53.631  1.00  0.00     0.068 C 
HETATM    3  C   UNL     1     -40.376  52.267 -54.338  1.00  0.00     0.013 C 
HETATM    4  C   UNL     1     -39.873  51.157 -53.426  1.00  0.00     0.001 C 
HETATM    5  C   UNL     1     -39.241  51.730 -52.165  1.00  0.00     0.001 C 
HETATM    6  C   UNL     1     -40.229  52.621 -51.426  1.00  0.00     0.015 C 
ENDROOT
BRANCH   1   7
HETATM    7  C   UNL     1     -41.804  54.554 -51.507  1.00  0.00     0.222 C 
HETATM    8  N   UNL     1     -41.744  55.919 -51.676  1.00  0.00    -0.358 N 
HETATM    9  H   UNL     1     -41.206  56.270 -52.471  1.00  0.00     0.162 HD
HETATM   10  O   UNL     1     -42.632  54.023 -50.772  1.00  0.00    -0.273 OA
BRANCH   8  11
HETATM   11  C   UNL     1     -42.736  56.802 -51.074  1.00  0.00     0.159 C 
BRANCH  11  12
HETATM   12  C   UNL     1     -44.112  56.670 -51.755  1.00  0.00     0.169 C 
BRANCH  12  13
HETATM   13  C   UNL     1     -44.287  57.694 -52.854  1.00  0.00    -0.025 A 
HETATM   14  C   UNL     1     -45.008  57.399 -54.025  1.00  0.00     0.046 A 
HETATM   15  C   UNL     1     -45.189  58.365 -55.018  1.00  0.00     0.068 A 
HETATM   16  C   UNL     1     -44.646  59.639 -54.837  1.00  0.00     0.037 A 
HETATM   17  C   UNL     1     -43.931  59.949 -53.681  1.00  0.00     0.003 A 
HETATM   18  C   UNL     1     -43.756  58.983 -52.692  1.00  0.00     0.010 A 
BRANCH  15  19
HETATM   19  O   UNL     1     -45.871  58.197 -56.191  1.00  0.00    -0.356 OA
HETATM   20  C   UNL     1     -45.964  59.329 -57.047  1.00  0.00     0.210 C 
ENDBRANCH  15  19
ENDBRANCH  12  13
BRANCH  12  21
HETATM   21  O   UNL     1     -45.138  56.842 -50.767  1.00  0.00    -0.389 OA
HETATM   22  H   UNL     1     -45.714  56.062 -50.866  1.00  0.00     0.210 HD
ENDBRANCH  12  21
ENDBRANCH  11  12
ENDBRANCH   8  11
ENDBRANCH   1   7
BRANCH   2  23
HETATM   23  C   UNL     1     -41.725  54.321 -54.596  1.00  0.00     0.110 A 
HETATM   24  N   UNL     1     -41.354  55.586 -54.539  1.00  0.00    -0.233 NA
HETATM   25  C   UNL     1     -41.899  56.186 -55.648  1.00  0.00     0.087 A 
HETATM   26  C   UNL     1     -42.634  55.273 -56.393  1.00  0.00     0.062 A 
HETATM   27  C   UNL     1     -41.806  57.516 -56.079  1.00  0.00     0.057 A 
HETATM   28  N   UNL     1     -42.521  54.097 -55.696  1.00  0.00    -0.342 N 
HETATM   29  C   UNL     1     -43.296  55.603 -57.577  1.00  0.00     0.034 A 
HETATM   30  H   UNL     1     -42.932  53.212 -55.957  1.00  0.00     0.167 HD
HETATM   31  C   UNL     1     -43.192  56.933 -58.001  1.00  0.00     0.026 A 
HETATM   32  C   UNL     1     -42.462  57.869 -57.262  1.00  0.00     0.036 A 
HETATM   33 CL   UNL     1     -42.366  59.495 -57.824  1.00  0.00    -0.084 Cl
ENDBRANCH   2  23
TORSDOF 7
ENDMDL
MODEL 4
REMARK VINA RESULT:      -8.4      3.295      7.773
REMARK  7 active torsions:
REMARK  status: ('A' for Active; 'I' for Inactive)
REMARK    1  A    between atoms: O_2  and  C_3 
REMARK    2  A    between atoms: C_5  and  C_6 
REMARK    3  A    between atoms: C_6  and  O_7 
REMARK    4  A    between atoms: C_6  and  C_8 
REMARK    5  A    between atoms: C_8  and  N_9 
REMARK       I    between atoms: N_9  and  C_10 
REMARK    6  A    between atoms: C_10  and  C_11 
REMARK    7  A    between atoms: C_12  and  C_13 
ROOT
HETATM    1  C   UNL     1     -42.302  57.789 -58.495  1.00  0.00     0.089 C 
HETATM    2  C   UNL     1     -43.020  59.046 -57.943  1.00  0.00     0.068 C 
HETATM    3  C   UNL     1     -42.524  60.328 -58.643  1.00  0.00     0.013 C 
HETATM    4  C   UNL     1     -42.594  60.236 -60.161  1.00  0.00     0.001 C 
HETATM    5  C   UNL     1     -41.827  59.025 -60.670  1.00  0.00     0.001 C 
HETATM    6  C   UNL     1     -42.356  57.748 -60.035  1.00  0.00     0.015 C 
ENDROOT
BRANCH   1   7
HETATM    7  C   UNL     1     -42.925  56.502 -57.949  1.00  0.00     0.222 C 
HETATM    8  N   UNL     1     -42.253  55.945 -56.884  1.00  0.00    -0.358 N 
HETATM    9  H   UNL     1     -41.570  56.534 -56.402  1.00  0.00     0.162 HD
HETATM   10  O   UNL     1     -43.943  55.997 -58.413  1.00  0.00    -0.273 OA
BRANCH   8  11
HETATM   11  C   UNL     1     -42.779  54.784 -56.178  1.00  0.00     0.159 C 
BRANCH  11  12
HETATM   12  C   UNL     1     -43.020  55.079 -54.685  1.00  0.00     0.169 C 
BRANCH  12  13
HETATM   13  C   UNL     1     -42.098  54.265 -53.804  1.00  0.00    -0.025 A 
HETATM   14  C   UNL     1     -41.278  53.253 -54.336  1.00  0.00     0.046 A 
HETATM   15  C   UNL     1     -40.408  52.532 -53.515  1.00  0.00     0.068 A 
HETATM   16  C   UNL     1     -40.355  52.826 -52.151  1.00  0.00     0.037 A 
HETATM   17  C   UNL     1     -41.159  53.828 -51.608  1.00  0.00     0.003 A 
HETATM   18  C   UNL     1     -42.023  54.547 -52.432  1.00  0.00     0.010 A 
BRANCH  15  19
HETATM   19  O   UNL     1     -39.564  51.533 -53.916  1.00  0.00    -0.356 OA
HETATM   20  C   UNL     1     -40.166  50.310 -54.321  1.00  0.00     0.210 C 
ENDBRANCH  15  19
ENDBRANCH  12  13
BRANCH  12  21
HETATM   21  O   UNL     1     -44.385  54.776 -54.365  1.00  0.00    -0.389 OA
HETATM   22  H   UNL     1     -44.622  54.036 -54.953  1.00  0.00     0.210 HD
ENDBRANCH  12  21
ENDBRANCH  11  12
ENDBRANCH   8  11
ENDBRANCH   1   7
BRANCH   2  23
HETATM   23  C   UNL     1     -42.831  59.216 -56.457  1.00  0.00     0.110 A 
HETATM   24  N   UNL     1     -41.715  59.046 -55.773  1.00  0.00    -0.233 NA
HETATM   25  C   UNL     1     -42.025  59.353 -54.470  1.00  0.00     0.087 A 
HETATM   26  C   UNL     1     -43.364  59.702 -54.350  1.00  0.00     0.062 A 
HETATM   27  C   UNL     1     -41.205  59.350 -53.334  1.00  0.00     0.057 A 
HETATM   28  N   UNL     1     -43.859  59.594 -55.625  1.00  0.00    -0.342 N 
HETATM   29  C   UNL     1     -43.957  60.068 -53.140  1.00  0.00     0.034 A 
HETATM   30  H   UNL     1     -44.810  59.782 -55.909  1.00  0.00     0.167 HD
HETATM   31  C   UNL     1     -43.127  60.066 -52.013  1.00  0.00     0.026 A 
HETATM   32  C   UNL     1     -41.779  59.712 -52.111  1.00  0.00     0.036 A 
HETATM   33 CL   UNL     1     -40.799  59.723 -50.694  1.00  0.00    -0.084 Cl
ENDBRANCH   2  23
TORSDOF 7
ENDMDL
MODEL 5
REMARK VINA RESULT:      -8.4      3.256      5.431
REMARK  7 active torsions:
REMARK  status: ('A' for Active; 'I' for Inactive)
REMARK    1  A    between atoms: O_2  and  C_3 
REMARK    2  A    between atoms: C_5  and  C_6 
REMARK    3  A    between atoms: C_6  and  O_7 
REMARK    4  A    between atoms: C_6  and  C_8 
REMARK    5  A    between atoms: C_8  and  N_9 
REMARK       I    between atoms: N_9  and  C_10 
REMARK    6  A    between atoms: C_10  and  C_11 
REMARK    7  A    between atoms: C_12  and  C_13 
ROOT
HETATM    1  C   UNL     1     -41.376  54.139 -52.051  1.00  0.00     0.089 C 
HETATM    2  C   UNL     1     -40.986  55.400 -51.240  1.00  0.00     0.068 C 
HETATM    3  C   UNL     1     -40.878  55.085 -49.733  1.00  0.00     0.013 C 
HETATM    4  C   UNL     1     -39.971  53.899 -49.441  1.00  0.00     0.001 C 
HETATM    5  C   UNL     1     -40.421  52.665 -50.209  1.00  0.00     0.001 C 
HETATM    6  C   UNL     1     -40.464  52.947 -51.703  1.00  0.00     0.015 C 
ENDROOT
BRANCH   1   7
HETATM    7  C   UNL     1     -41.293  54.395 -53.559  1.00  0.00     0.222 C 
HETATM    8  N   UNL     1     -42.505  54.394 -54.209  1.00  0.00    -0.358 N 
HETATM    9  H   UNL     1     -43.347  54.470 -53.633  1.00  0.00     0.162 HD
HETATM   10  O   UNL     1     -40.235  54.589 -54.151  1.00  0.00    -0.273 OA
BRANCH   8  11
HETATM   11  C   UNL     1     -42.608  54.735 -55.623  1.00  0.00     0.159 C 
BRANCH  11  12
HETATM   12  C   UNL     1     -42.912  56.231 -55.833  1.00  0.00     0.169 C 
BRANCH  12  13
HETATM   13  C   UNL     1     -42.815  56.616 -57.293  1.00  0.00    -0.025 A 
HETATM   14  C   UNL     1     -43.350  55.798 -58.305  1.00  0.00     0.046 A 
HETATM   15  C   UNL     1     -43.281  56.182 -59.647  1.00  0.00     0.068 A 
HETATM   16  C   UNL     1     -42.675  57.395 -59.979  1.00  0.00     0.037 A 
HETATM   17  C   UNL     1     -42.142  58.219 -58.988  1.00  0.00     0.003 A 
HETATM   18  C   UNL     1     -42.216  57.833 -57.651  1.00  0.00     0.010 A 
BRANCH  15  19
HETATM   19  O   UNL     1     -43.766  55.475 -60.713  1.00  0.00    -0.356 OA
HETATM   20  C   UNL     1     -45.114  55.030 -60.626  1.00  0.00     0.210 C 
ENDBRANCH  15  19
ENDBRANCH  12  13
BRANCH  12  21
HETATM   21  O   UNL     1     -41.981  57.008 -55.067  1.00  0.00    -0.389 OA
HETATM   22  H   UNL     1     -41.166  56.475 -55.048  1.00  0.00     0.210 HD
ENDBRANCH  12  21
ENDBRANCH  11  12
ENDBRANCH   8  11
ENDBRANCH   1   7
BRANCH   2  23
HETATM   23  C   UNL     1     -41.966  56.531 -51.417  1.00  0.00     0.110 A 
HETATM   24  N   UNL     1     -41.780  57.644 -52.100  1.00  0.00    -0.233 NA
HETATM   25  C   UNL     1     -42.959  58.343 -52.005  1.00  0.00     0.087 A 
HETATM   26  C   UNL     1     -43.883  57.650 -51.232  1.00  0.00     0.062 A 
HETATM   27  C   UNL     1     -43.309  59.583 -52.555  1.00  0.00     0.057 A 
HETATM   28  N   UNL     1     -43.223  56.507 -50.858  1.00  0.00    -0.342 N 
HETATM   29  C   UNL     1     -45.172  58.119 -50.969  1.00  0.00     0.034 A 
HETATM   30  H   UNL     1     -43.602  55.764 -50.288  1.00  0.00     0.167 HD
HETATM   31  C   UNL     1     -45.510  59.357 -51.529  1.00  0.00     0.026 A 
HETATM   32  C   UNL     1     -44.594  60.073 -52.304  1.00  0.00     0.036 A 
HETATM   33 CL   UNL     1     -45.059  61.594 -52.968  1.00  0.00    -0.084 Cl
ENDBRANCH   2  23
TORSDOF 7
ENDMDL
MODEL 6
REMARK VINA RESULT:      -8.3      3.844      7.512
REMARK  7 active torsions:
REMARK  status: ('A' for Active; 'I' for Inactive)
REMARK    1  A    between atoms: O_2  and  C_3 
REMARK    2  A    between atoms: C_5  and  C_6 
REMARK    3  A    between atoms: C_6  and  O_7 
REMARK    4  A    between atoms: C_6  and  C_8 
REMARK    5  A    between atoms: C_8  and  N_9 
REMARK       I    between atoms: N_9  and  C_10 
REMARK    6  A    between atoms: C_10  and  C_11 
REMARK    7  A    between atoms: C_12  and  C_13 
ROOT
HETATM    1  C   UNL     1     -40.788  53.662 -52.396  1.00  0.00     0.089 C 
HETATM    2  C   UNL     1     -41.431  53.271 -53.750  1.00  0.00     0.068 C 
HETATM    3  C   UNL     1     -40.481  52.389 -54.588  1.00  0.00     0.013 C 
HETATM    4  C   UNL     1     -39.964  51.183 -53.818  1.00  0.00     0.001 C 
HETATM    5  C   UNL     1     -39.286  51.610 -52.524  1.00  0.00     0.001 C 
HETATM    6  C   UNL     1     -40.239  52.424 -51.662  1.00  0.00     0.015 C 
ENDROOT
BRANCH   1   7
HETATM    7  C   UNL     1     -41.792  54.368 -51.481  1.00  0.00     0.222 C 
HETATM    8  N   UNL     1     -41.557  55.711 -51.299  1.00  0.00    -0.358 N 
HETATM    9  H   UNL     1     -40.914  56.167 -51.950  1.00  0.00     0.162 HD
HETATM   10  O   UNL     1     -42.738  53.793 -50.950  1.00  0.00    -0.273 OA
BRANCH   8  11
HETATM   11  C   UNL     1     -42.485  56.549 -50.550  1.00  0.00     0.159 C 
BRANCH  11  12
HETATM   12  C   UNL     1     -43.782  56.818 -51.338  1.00  0.00     0.169 C 
BRANCH  12  13
HETATM   13  C   UNL     1     -44.059  58.300 -51.459  1.00  0.00    -0.025 A 
HETATM   14  C   UNL     1     -45.129  58.905 -50.774  1.00  0.00     0.046 A 
HETATM   15  C   UNL     1     -45.353  60.281 -50.870  1.00  0.00     0.068 A 
HETATM   16  C   UNL     1     -44.500  61.058 -51.656  1.00  0.00     0.037 A 
HETATM   17  C   UNL     1     -43.434  60.475 -52.339  1.00  0.00     0.003 A 
HETATM   18  C   UNL     1     -43.212  59.103 -52.237  1.00  0.00     0.010 A 
BRANCH  15  19
HETATM   19  O   UNL     1     -46.353  60.979 -50.251  1.00  0.00    -0.356 OA
HETATM   20  C   UNL     1     -46.576  62.311 -50.697  1.00  0.00     0.210 C 
ENDBRANCH  15  19
ENDBRANCH  12  13
BRANCH  12  21
HETATM   21  O   UNL     1     -44.876  56.175 -50.668  1.00  0.00    -0.389 OA
HETATM   22  H   UNL     1     -45.522  55.986 -51.371  1.00  0.00     0.210 HD
ENDBRANCH  12  21
ENDBRANCH  11  12
ENDBRANCH   8  11
ENDBRANCH   1   7
BRANCH   2  23
HETATM   23  C   UNL     1     -41.814  54.471 -54.578  1.00  0.00     0.110 A 
HETATM   24  N   UNL     1     -41.616  55.740 -54.278  1.00  0.00    -0.233 NA
HETATM   25  C   UNL     1     -42.094  56.457 -55.348  1.00  0.00     0.087 A 
HETATM   26  C   UNL     1     -42.613  55.609 -56.319  1.00  0.00     0.062 A 
HETATM   27  C   UNL     1     -42.120  57.843 -55.554  1.00  0.00     0.057 A 
HETATM   28  N   UNL     1     -42.436  54.351 -55.800  1.00  0.00    -0.342 N 
HETATM   29  C   UNL     1     -43.163  56.061 -57.519  1.00  0.00     0.034 A 
HETATM   30  H   UNL     1     -42.696  53.484 -56.247  1.00  0.00     0.167 HD
HETATM   31  C   UNL     1     -43.178  57.447 -57.716  1.00  0.00     0.026 A 
HETATM   32  C   UNL     1     -42.667  58.318 -56.749  1.00  0.00     0.036 A 
HETATM   33 CL   UNL     1     -42.712  60.016 -57.038  1.00  0.00    -0.084 Cl
ENDBRANCH   2  23
TORSDOF 7
ENDMDL
MODEL 7
REMARK VINA RESULT:      -8.3      3.175      7.702
REMARK  7 active torsions:
REMARK  status: ('A' for Active; 'I' for Inactive)
REMARK    1  A    between atoms: O_2  and  C_3 
REMARK    2  A    between atoms: C_5  and  C_6 
REMARK    3  A    between atoms: C_6  and  O_7 
REMARK    4  A    between atoms: C_6  and  C_8 
REMARK    5  A    between atoms: C_8  and  N_9 
REMARK       I    between atoms: N_9  and  C_10 
REMARK    6  A    between atoms: C_10  and  C_11 
REMARK    7  A    between atoms: C_12  and  C_13 
ROOT
HETATM    1  C   UNL     1     -42.571  59.839 -53.852  1.00  0.00     0.089 C 
HETATM    2  C   UNL     1     -42.344  60.423 -55.269  1.00  0.00     0.068 C 
HETATM    3  C   UNL     1     -43.320  61.581 -55.562  1.00  0.00     0.013 C 
HETATM    4  C   UNL     1     -43.306  62.652 -54.480  1.00  0.00     0.001 C 
HETATM    5  C   UNL     1     -43.593  62.051 -53.112  1.00  0.00     0.001 C 
HETATM    6  C   UNL     1     -42.591  60.953 -52.787  1.00  0.00     0.015 C 
ENDROOT
BRANCH   1   7
HETATM    7  C   UNL     1     -41.484  58.827 -53.482  1.00  0.00     0.222 C 
HETATM    8  N   UNL     1     -41.941  57.549 -53.257  1.00  0.00    -0.358 N 
HETATM    9  H   UNL     1     -42.885  57.325 -53.581  1.00  0.00     0.162 HD
HETATM   10  O   UNL     1     -40.295  59.120 -53.392  1.00  0.00    -0.273 OA
BRANCH   8  11
HETATM   11  C   UNL     1     -41.021  56.447 -53.007  1.00  0.00     0.159 C 
BRANCH  11  12
HETATM   12  C   UNL     1     -41.745  55.209 -52.443  1.00  0.00     0.169 C 
BRANCH  12  13
HETATM   13  C   UNL     1     -41.035  53.929 -52.827  1.00  0.00    -0.025 A 
HETATM   14  C   UNL     1     -40.376  53.139 -51.867  1.00  0.00     0.046 A 
HETATM   15  C   UNL     1     -39.753  51.943 -52.232  1.00  0.00     0.068 A 
HETATM   16  C   UNL     1     -39.791  51.532 -53.565  1.00  0.00     0.037 A 
HETATM   17  C   UNL     1     -40.443  52.301 -54.528  1.00  0.00     0.003 A 
HETATM   18  C   UNL     1     -41.066  53.492 -54.160  1.00  0.00     0.010 A 
BRANCH  15  19
HETATM   19  O   UNL     1     -39.087  51.094 -51.391  1.00  0.00    -0.356 OA
HETATM   20  C   UNL     1     -39.867  50.106 -50.728  1.00  0.00     0.210 C 
ENDBRANCH  15  19
ENDBRANCH  12  13
BRANCH  12  21
HETATM   21  O   UNL     1     -43.088  55.186 -52.945  1.00  0.00    -0.389 OA
HETATM   22  H   UNL     1     -43.184  56.017 -53.443  1.00  0.00     0.210 HD
ENDBRANCH  12  21
ENDBRANCH  11  12
ENDBRANCH   8  11
ENDBRANCH   1   7
BRANCH   2  23
HETATM   23  C   UNL     1     -42.500  59.389 -56.355  1.00  0.00     0.110 A 
HETATM   24  N   UNL     1     -43.260  58.311 -56.322  1.00  0.00    -0.233 NA
HETATM   25  C   UNL     1     -43.104  57.705 -57.545  1.00  0.00     0.087 A 
HETATM   26  C   UNL     1     -42.215  58.419 -58.340  1.00  0.00     0.062 A 
HETATM   27  C   UNL     1     -43.692  56.536 -58.044  1.00  0.00     0.057 A 
HETATM   28  N   UNL     1     -41.834  59.478 -57.555  1.00  0.00    -0.342 N 
HETATM   29  C   UNL     1     -41.869  58.040 -59.638  1.00  0.00     0.034 A 
HETATM   30  H   UNL     1     -41.191  60.211 -57.821  1.00  0.00     0.167 HD
HETATM   31  C   UNL     1     -42.468  56.873 -60.127  1.00  0.00     0.026 A 
HETATM   32  C   UNL     1     -43.360  56.137 -59.342  1.00  0.00     0.036 A 
HETATM   33 CL   UNL     1     -44.068  54.705 -59.989  1.00  0.00    -0.084 Cl
ENDBRANCH   2  23
TORSDOF 7
ENDMDL
MODEL 8
REMARK VINA RESULT:      -8.2      3.155      7.672
REMARK  7 active torsions:
REMARK  status: ('A' for Active; 'I' for Inactive)
REMARK    1  A    between atoms: O_2  and  C_3 
REMARK    2  A    between atoms: C_5  and  C_6 
REMARK    3  A    between atoms: C_6  and  O_7 
REMARK    4  A    between atoms: C_6  and  C_8 
REMARK    5  A    between atoms: C_8  and  N_9 
REMARK       I    between atoms: N_9  and  C_10 
REMARK    6  A    between atoms: C_10  and  C_11 
REMARK    7  A    between atoms: C_12  and  C_13 
ROOT
HETATM    1  C   UNL     1     -42.653  57.813 -57.355  1.00  0.00     0.089 C 
HETATM    2  C   UNL     1     -43.406  58.671 -56.307  1.00  0.00     0.068 C 
HETATM    3  C   UNL     1     -43.626  60.111 -56.816  1.00  0.00     0.013 C 
HETATM    4  C   UNL     1     -44.281  60.159 -58.189  1.00  0.00     0.001 C 
HETATM    5  C   UNL     1     -43.480  59.356 -59.204  1.00  0.00     0.001 C 
HETATM    6  C   UNL     1     -43.317  57.916 -58.741  1.00  0.00     0.015 C 
ENDROOT
BRANCH   1   7
HETATM    7  C   UNL     1     -42.605  56.340 -56.942  1.00  0.00     0.222 C 
HETATM    8  N   UNL     1     -41.600  56.023 -56.057  1.00  0.00    -0.358 N 
HETATM    9  H   UNL     1     -41.142  56.798 -55.572  1.00  0.00     0.162 HD
HETATM   10  O   UNL     1     -43.396  55.498 -57.360  1.00  0.00    -0.273 OA
BRANCH   8  11
HETATM   11  C   UNL     1     -41.489  54.690 -55.480  1.00  0.00     0.159 C 
BRANCH  11  12
HETATM   12  C   UNL     1     -41.966  54.655 -54.015  1.00  0.00     0.169 C 
BRANCH  12  13
HETATM   13  C   UNL     1     -41.142  53.693 -53.187  1.00  0.00    -0.025 A 
HETATM   14  C   UNL     1     -41.069  53.807 -51.786  1.00  0.00     0.046 A 
HETATM   15  C   UNL     1     -40.330  52.892 -51.032  1.00  0.00     0.068 A 
HETATM   16  C   UNL     1     -39.661  51.854 -51.683  1.00  0.00     0.037 A 
HETATM   17  C   UNL     1     -39.726  51.725 -53.069  1.00  0.00     0.003 A 
HETATM   18  C   UNL     1     -40.466  52.638 -53.818  1.00  0.00     0.010 A 
BRANCH  15  19
HETATM   19  O   UNL     1     -40.189  52.899 -49.672  1.00  0.00    -0.356 OA
HETATM   20  C   UNL     1     -40.882  53.917 -48.960  1.00  0.00     0.210 C 
ENDBRANCH  15  19
ENDBRANCH  12  13
BRANCH  12  21
HETATM   21  O   UNL     1     -43.345  54.261 -53.983  1.00  0.00    -0.389 OA
HETATM   22  H   UNL     1     -43.327  53.287 -53.999  1.00  0.00     0.210 HD
ENDBRANCH  12  21
ENDBRANCH  11  12
ENDBRANCH   8  11
ENDBRANCH   1   7
BRANCH   2  23
HETATM   23  C   UNL     1     -42.683  58.742 -54.987  1.00  0.00     0.110 A 
HETATM   24  N   UNL     1     -41.399  58.977 -54.796  1.00  0.00    -0.233 NA
HETATM   25  C   UNL     1     -41.219  58.984 -53.434  1.00  0.00     0.087 A 
HETATM   26  C   UNL     1     -42.416  58.731 -52.776  1.00  0.00     0.062 A 
HETATM   27  C   UNL     1     -40.051  59.197 -52.689  1.00  0.00     0.057 A 
HETATM   28  N   UNL     1     -43.330  58.567 -53.786  1.00  0.00    -0.342 N 
HETATM   29  C   UNL     1     -42.534  58.684 -51.385  1.00  0.00     0.034 A 
HETATM   30  H   UNL     1     -44.314  58.373 -53.668  1.00  0.00     0.167 HD
HETATM   31  C   UNL     1     -41.362  58.904 -50.652  1.00  0.00     0.026 A 
HETATM   32  C   UNL     1     -40.146  59.154 -51.295  1.00  0.00     0.036 A 
HETATM   33 CL   UNL     1     -38.731  59.416 -50.347  1.00  0.00    -0.084 Cl
ENDBRANCH   2  23
TORSDOF 7
ENDMDL
MODEL 9
REMARK VINA RESULT:      -8.1      3.599      5.954
REMARK  7 active torsions:
REMARK  status: ('A' for Active; 'I' for Inactive)
REMARK    1  A    between atoms: O_2  and  C_3 
REMARK    2  A    between atoms: C_5  and  C_6 
REMARK    3  A    between atoms: C_6  and  O_7 
REMARK    4  A    between atoms: C_6  and  C_8 
REMARK    5  A    between atoms: C_8  and  N_9 
REMARK       I    between atoms: N_9  and  C_10 
REMARK    6  A    between atoms: C_10  and  C_11 
REMARK    7  A    between atoms: C_12  and  C_13 
ROOT
HETATM    1  C   UNL     1     -41.364  54.271 -51.899  1.00  0.00     0.089 C 
HETATM    2  C   UNL     1     -40.905  55.541 -51.139  1.00  0.00     0.068 C 
HETATM    3  C   UNL     1     -40.701  55.253 -49.637  1.00  0.00     0.013 C 
HETATM    4  C   UNL     1     -39.791  54.059 -49.383  1.00  0.00     0.001 C 
HETATM    5  C   UNL     1     -40.307  52.818 -50.095  1.00  0.00     0.001 C 
HETATM    6  C   UNL     1     -40.446  53.073 -51.588  1.00  0.00     0.015 C 
ENDROOT
BRANCH   1   7
HETATM    7  C   UNL     1     -41.378  54.498 -53.413  1.00  0.00     0.222 C 
HETATM    8  N   UNL     1     -42.597  54.287 -54.014  1.00  0.00    -0.358 N 
HETATM    9  H   UNL     1     -43.418  54.241 -53.406  1.00  0.00     0.162 HD
HETATM   10  O   UNL     1     -40.387  54.844 -54.050  1.00  0.00    -0.273 OA
BRANCH   8  11
HETATM   11  C   UNL     1     -42.805  54.570 -55.429  1.00  0.00     0.159 C 
BRANCH  11  12
HETATM   12  C   UNL     1     -43.832  55.698 -55.645  1.00  0.00     0.169 C 
BRANCH  12  13
HETATM   13  C   UNL     1     -43.160  56.987 -56.063  1.00  0.00    -0.025 A 
HETATM   14  C   UNL     1     -42.838  57.244 -57.409  1.00  0.00     0.046 A 
HETATM   15  C   UNL     1     -42.246  58.453 -57.784  1.00  0.00     0.068 A 
HETATM   16  C   UNL     1     -41.977  59.413 -56.808  1.00  0.00     0.037 A 
HETATM   17  C   UNL     1     -42.292  59.176 -55.471  1.00  0.00     0.003 A 
HETATM   18  C   UNL     1     -42.884  57.970 -55.101  1.00  0.00     0.010 A 
BRANCH  15  19
HETATM   19  O   UNL     1     -41.894  58.816 -59.055  1.00  0.00    -0.356 OA
HETATM   20  C   UNL     1     -41.899  57.790 -60.040  1.00  0.00     0.210 C 
ENDBRANCH  15  19
ENDBRANCH  12  13
BRANCH  12  21
HETATM   21  O   UNL     1     -44.559  55.906 -54.426  1.00  0.00    -0.389 OA
HETATM   22  H   UNL     1     -44.047  55.433 -53.745  1.00  0.00     0.210 HD
ENDBRANCH  12  21
ENDBRANCH  11  12
ENDBRANCH   8  11
ENDBRANCH   1   7
BRANCH   2  23
HETATM   23  C   UNL     1     -41.880  56.682 -51.272  1.00  0.00     0.110 A 
HETATM   24  N   UNL     1     -43.167  56.599 -51.554  1.00  0.00    -0.233 NA
HETATM   25  C   UNL     1     -43.640  57.888 -51.528  1.00  0.00     0.087 A 
HETATM   26  C   UNL     1     -42.616  58.784 -51.241  1.00  0.00     0.062 A 
HETATM   27  C   UNL     1     -44.938  58.368 -51.745  1.00  0.00     0.057 A 
HETATM   28  N   UNL     1     -41.505  57.994 -51.097  1.00  0.00    -0.342 N 
HETATM   29  C   UNL     1     -42.807  60.164 -51.146  1.00  0.00     0.034 A 
HETATM   30  H   UNL     1     -40.573  58.317 -50.877  1.00  0.00     0.167 HD
HETATM   31  C   UNL     1     -44.110  60.630 -51.359  1.00  0.00     0.026 A 
HETATM   32  C   UNL     1     -45.152  59.746 -51.655  1.00  0.00     0.036 A 
HETATM   33 CL   UNL     1     -46.737  60.370 -51.912  1.00  0.00    -0.084 Cl
ENDBRANCH   2  23
TORSDOF 7
ENDMDL
MODEL 10
REMARK VINA RESULT:      -7.9      2.425      6.734
REMARK  7 active torsions:
REMARK  status: ('A' for Active; 'I' for Inactive)
REMARK    1  A    between atoms: O_2  and  C_3 
REMARK    2  A    between atoms: C_5  and  C_6 
REMARK    3  A    between atoms: C_6  and  O_7 
REMARK    4  A    between atoms: C_6  and  C_8 
REMARK    5  A    between atoms: C_8  and  N_9 
REMARK       I    between atoms: N_9  and  C_10 
REMARK    6  A    between atoms: C_10  and  C_11 
REMARK    7  A    between atoms: C_12  and  C_13 
ROOT
HETATM    1  C   UNL     1     -44.585  57.235 -57.877  1.00  0.00     0.089 C 
HETATM    2  C   UNL     1     -43.439  56.220 -58.112  1.00  0.00     0.068 C 
HETATM    3  C   UNL     1     -43.904  55.044 -58.997  1.00  0.00     0.013 C 
HETATM    4  C   UNL     1     -44.553  55.502 -60.295  1.00  0.00     0.001 C 
HETATM    5  C   UNL     1     -45.712  56.450 -60.021  1.00  0.00     0.001 C 
HETATM    6  C   UNL     1     -45.246  57.647 -59.206  1.00  0.00     0.015 C 
ENDROOT
BRANCH   1   7
HETATM    7  C   UNL     1     -44.081  58.496 -57.169  1.00  0.00     0.222 C 
HETATM    8  N   UNL     1     -44.148  58.449 -55.795  1.00  0.00    -0.358 N 
HETATM    9  H   UNL     1     -44.285  57.532 -55.364  1.00  0.00     0.162 HD
HETATM   10  O   UNL     1     -43.647  59.476 -57.768  1.00  0.00    -0.273 OA
BRANCH   8  11
HETATM   11  C   UNL     1     -43.602  59.520 -54.972  1.00  0.00     0.159 C 
BRANCH  11  12
HETATM   12  C   UNL     1     -42.176  59.202 -54.484  1.00  0.00     0.169 C 
BRANCH  12  13
HETATM   13  C   UNL     1     -42.196  58.396 -53.203  1.00  0.00    -0.025 A 
HETATM   14  C   UNL     1     -43.405  57.983 -52.615  1.00  0.00     0.046 A 
HETATM   15  C   UNL     1     -43.406  57.212 -51.449  1.00  0.00     0.068 A 
HETATM   16  C   UNL     1     -42.189  56.849 -50.870  1.00  0.00     0.037 A 
HETATM   17  C   UNL     1     -40.982  57.248 -51.442  1.00  0.00     0.003 A 
HETATM   18  C   UNL     1     -40.985  58.015 -52.606  1.00  0.00     0.010 A 
BRANCH  15  19
HETATM   19  O   UNL     1     -44.512  56.750 -50.791  1.00  0.00    -0.356 OA
HETATM   20  C   UNL     1     -44.458  55.414 -50.306  1.00  0.00     0.210 C 
ENDBRANCH  15  19
ENDBRANCH  12  13
BRANCH  12  21
HETATM   21  O   UNL     1     -41.471  60.433 -54.269  1.00  0.00    -0.389 OA
HETATM   22  H   UNL     1     -40.924  60.550 -55.066  1.00  0.00     0.210 HD
ENDBRANCH  12  21
ENDBRANCH  11  12
ENDBRANCH   8  11
ENDBRANCH   1   7
BRANCH   2  23
HETATM   23  C   UNL     1     -42.890  55.655 -56.827  1.00  0.00     0.110 A 
HETATM   24  N   UNL     1     -43.573  55.339 -55.742  1.00  0.00    -0.233 NA
HETATM   25  C   UNL     1     -42.653  54.831 -54.857  1.00  0.00     0.087 A 
HETATM   26  C   UNL     1     -41.376  54.851 -55.405  1.00  0.00     0.062 A 
HETATM   27  C   UNL     1     -42.843  54.335 -53.561  1.00  0.00     0.057 A 
HETATM   28  N   UNL     1     -41.551  55.393 -56.652  1.00  0.00    -0.342 N 
HETATM   29  C   UNL     1     -40.244  54.390 -54.731  1.00  0.00     0.034 A 
HETATM   30  H   UNL     1     -40.824  55.552 -57.336  1.00  0.00     0.167 HD
HETATM   31  C   UNL     1     -40.447  53.891 -53.439  1.00  0.00     0.026 A 
HETATM   32  C   UNL     1     -41.722  53.867 -52.867  1.00  0.00     0.036 A 
HETATM   33 CL   UNL     1     -41.919  53.247 -51.272  1.00  0.00    -0.084 Cl
ENDBRANCH   2  23
TORSDOF 7
ENDMDL
