MODEL 1
REMARK VINA RESULT:      -8.2      0.000      0.000
REMARK  3 active torsions:
REMARK  status: ('A' for Active; 'I' for Inactive)
REMARK    1  A    between atoms: C_5  and  N_6 
REMARK       I    between atoms: N_6  and  C_7 
REMARK    2  A    between atoms: C_7  and  C_8 
REMARK    3  A    between atoms: C_9  and  C_10 
ROOT
HETATM    1  C   UNL     1     -43.114  56.421 -54.494  1.00  0.00     0.062 C 
HETATM    2  C   UNL     1     -43.395  57.551 -53.492  1.00  0.00     0.199 C 
HETATM    3  N   UNL     1     -44.089  58.653 -54.150  1.00  0.00    -0.092 N 
HETATM    4  C   UNL     1     -44.171  58.814 -55.505  1.00  0.00     0.735 A 
HETATM    5  N   UNL     1     -43.621  57.879 -56.307  1.00  0.00    -0.191 N 
HETATM    6  N   UNL     1     -44.758  59.630 -53.522  1.00  0.00     0.012 NA
HETATM    7  N   UNL     1     -45.197  60.413 -54.503  1.00  0.00     0.033 NA
HETATM    8  N   UNL     1     -44.838  59.916 -55.744  1.00  0.00     0.030 NA
HETATM    9  C   UNL     1     -43.163  56.651 -55.834  1.00  0.00     0.037 C 
HETATM   10  C   UNL     1     -42.723  55.676 -56.897  1.00  0.00     0.070 C 
HETATM   11  H   UNL     1     -43.715  57.991 -57.315  1.00  0.00     0.184 HD
ENDROOT
BRANCH   1  12
HETATM   12  C   UNL     1     -42.804  55.111 -53.841  1.00  0.00     0.256 C 
HETATM   13  N   UNL     1     -41.459  54.815 -53.771  1.00  0.00    -0.323 N 
HETATM   14  H   UNL     1     -40.806  55.498 -54.130  1.00  0.00     0.169 HD
HETATM   15  O   UNL     1     -43.725  54.377 -53.512  1.00  0.00    -0.267 OA
BRANCH  13  16
HETATM   16  C   UNL     1     -40.872  53.656 -53.216  1.00  0.00     0.035 A 
HETATM   17  C   UNL     1     -40.421  52.571 -53.967  1.00  0.00     0.030 A 
HETATM   18  C   UNL     1     -39.859  51.455 -53.340  1.00  0.00     0.009 A 
HETATM   19  C   UNL     1     -39.741  51.401 -51.948  1.00  0.00    -0.062 A 
HETATM   20  C   UNL     1     -39.180  50.177 -51.287  1.00  0.00     0.048 C 
HETATM   21  C   UNL     1     -40.201  52.482 -51.192  1.00  0.00     0.009 A 
HETATM   22  C   UNL     1     -40.749  53.605 -51.822  1.00  0.00     0.030 A 
ENDBRANCH  13  16
ENDBRANCH   1  12
BRANCH   2  23
HETATM   23  C   UNL     1     -42.136  58.079 -52.821  1.00  0.00    -0.011 A 
HETATM   24  C   UNL     1     -41.122  58.712 -53.541  1.00  0.00     0.125 A 
HETATM   25  N   UNL     1     -39.971  59.170 -52.999  1.00  0.00    -0.272 NA
HETATM   26  C   UNL     1     -39.814  58.993 -51.671  1.00  0.00     0.116 A 
HETATM   27  C   UNL     1     -40.756  58.385 -50.859  1.00  0.00     0.020 A 
HETATM   28  C   UNL     1     -41.933  57.924 -51.444  1.00  0.00     0.012 A 
ENDBRANCH   2  23
TORSDOF 3
ENDMDL
MODEL 2
REMARK VINA RESULT:      -8.1      2.009      4.332
REMARK  3 active torsions:
REMARK  status: ('A' for Active; 'I' for Inactive)
REMARK    1  A    between atoms: C_5  and  N_6 
REMARK       I    between atoms: N_6  and  C_7 
REMARK    2  A    between atoms: C_7  and  C_8 
REMARK    3  A    between atoms: C_9  and  C_10 
ROOT
HETATM    1  C   UNL     1     -42.911  57.367 -55.091  1.00  0.00     0.062 C 
HETATM    2  C   UNL     1     -42.364  57.676 -56.493  1.00  0.00     0.199 C 
HETATM    3  N   UNL     1     -42.216  59.116 -56.675  1.00  0.00    -0.092 N 
HETATM    4  C   UNL     1     -42.792  60.058 -55.871  1.00  0.00     0.735 A 
HETATM    5  N   UNL     1     -43.510  59.654 -54.803  1.00  0.00    -0.191 N 
HETATM    6  N   UNL     1     -41.480  59.702 -57.630  1.00  0.00     0.012 NA
HETATM    7  N   UNL     1     -41.659  61.005 -57.431  1.00  0.00     0.033 NA
HETATM    8  N   UNL     1     -42.475  61.240 -56.338  1.00  0.00     0.030 NA
HETATM    9  C   UNL     1     -43.518  58.334 -54.353  1.00  0.00     0.037 C 
HETATM   10  C   UNL     1     -44.255  58.102 -53.057  1.00  0.00     0.070 C 
HETATM   11  H   UNL     1     -43.909  60.363 -54.191  1.00  0.00     0.184 HD
ENDROOT
BRANCH   1  12
HETATM   12  C   UNL     1     -42.695  55.949 -54.667  1.00  0.00     0.256 C 
HETATM   13  N   UNL     1     -41.400  55.661 -54.288  1.00  0.00    -0.323 N 
HETATM   14  H   UNL     1     -40.726  56.415 -54.298  1.00  0.00     0.169 HD
HETATM   15  O   UNL     1     -43.614  55.148 -54.769  1.00  0.00    -0.267 OA
BRANCH  13  16
HETATM   16  C   UNL     1     -40.901  54.415 -53.846  1.00  0.00     0.035 A 
HETATM   17  C   UNL     1     -40.447  53.408 -54.698  1.00  0.00     0.030 A 
HETATM   18  C   UNL     1     -39.976  52.197 -54.181  1.00  0.00     0.009 A 
HETATM   19  C   UNL     1     -39.954  51.968 -52.803  1.00  0.00    -0.062 A 
HETATM   20  C   UNL     1     -39.492  50.646 -52.267  1.00  0.00     0.048 C 
HETATM   21  C   UNL     1     -40.419  52.971 -51.947  1.00  0.00     0.009 A 
HETATM   22  C   UNL     1     -40.875  54.188 -52.464  1.00  0.00     0.030 A 
ENDBRANCH  13  16
ENDBRANCH   1  12
BRANCH   2  23
HETATM   23  C   UNL     1     -43.232  57.114 -57.609  1.00  0.00    -0.011 A 
HETATM   24  C   UNL     1     -44.456  57.688 -57.955  1.00  0.00     0.125 A 
HETATM   25  N   UNL     1     -45.279  57.210 -58.916  1.00  0.00    -0.272 NA
HETATM   26  C   UNL     1     -44.871  56.103 -59.569  1.00  0.00     0.116 A 
HETATM   27  C   UNL     1     -43.675  55.455 -59.311  1.00  0.00     0.020 A 
HETATM   28  C   UNL     1     -42.845  55.970 -58.319  1.00  0.00     0.012 A 
ENDBRANCH   2  23
TORSDOF 3
ENDMDL
MODEL 3
REMARK VINA RESULT:      -7.8      1.717      3.746
REMARK  3 active torsions:
REMARK  status: ('A' for Active; 'I' for Inactive)
REMARK    1  A    between atoms: C_5  and  N_6 
REMARK       I    between atoms: N_6  and  C_7 
REMARK    2  A    between atoms: C_7  and  C_8 
REMARK    3  A    between atoms: C_9  and  C_10 
ROOT
HETATM    1  C   UNL     1     -42.937  56.531 -52.569  1.00  0.00     0.062 C 
HETATM    2  C   UNL     1     -42.406  57.591 -53.547  1.00  0.00     0.199 C 
HETATM    3  N   UNL     1     -42.328  58.893 -52.893  1.00  0.00    -0.092 N 
HETATM    4  C   UNL     1     -42.948  59.202 -51.715  1.00  0.00     0.735 A 
HETATM    5  N   UNL     1     -43.645  58.242 -51.073  1.00  0.00    -0.191 N 
HETATM    6  N   UNL     1     -41.622  59.941 -53.339  1.00  0.00     0.012 NA
HETATM    7  N   UNL     1     -41.863  60.903 -52.453  1.00  0.00     0.033 NA
HETATM    8  N   UNL     1     -42.688  60.456 -51.436  1.00  0.00     0.030 NA
HETATM    9  C   UNL     1     -43.588  56.897 -51.434  1.00  0.00     0.037 C 
HETATM   10  C   UNL     1     -44.313  55.952 -50.508  1.00  0.00     0.070 C 
HETATM   11  H   UNL     1     -44.077  58.473 -50.180  1.00  0.00     0.184 HD
ENDROOT
BRANCH   1  12
HETATM   12  C   UNL     1     -42.651  55.128 -53.002  1.00  0.00     0.256 C 
HETATM   13  N   UNL     1     -41.372  54.696 -52.721  1.00  0.00    -0.323 N 
HETATM   14  H   UNL     1     -40.755  55.332 -52.234  1.00  0.00     0.169 HD
HETATM   15  O   UNL     1     -43.501  54.513 -53.632  1.00  0.00    -0.267 OA
BRANCH  13  16
HETATM   16  C   UNL     1     -40.820  53.428 -53.012  1.00  0.00     0.035 A 
HETATM   17  C   UNL     1     -40.855  52.831 -54.272  1.00  0.00     0.030 A 
HETATM   18  C   UNL     1     -40.293  51.566 -54.476  1.00  0.00     0.009 A 
HETATM   19  C   UNL     1     -39.689  50.874 -53.424  1.00  0.00    -0.062 A 
HETATM   20  C   UNL     1     -39.134  49.499 -53.648  1.00  0.00     0.048 C 
HETATM   21  C   UNL     1     -39.661  51.466 -52.158  1.00  0.00     0.009 A 
HETATM   22  C   UNL     1     -40.210  52.737 -51.958  1.00  0.00     0.030 A 
ENDBRANCH  13  16
ENDBRANCH   1  12
BRANCH   2  23
HETATM   23  C   UNL     1     -43.247  57.712 -54.809  1.00  0.00    -0.011 A 
HETATM   24  C   UNL     1     -44.605  58.033 -54.767  1.00  0.00     0.125 A 
HETATM   25  N   UNL     1     -45.403  58.122 -55.854  1.00  0.00    -0.272 NA
HETATM   26  C   UNL     1     -44.828  57.879 -57.051  1.00  0.00     0.116 A 
HETATM   27  C   UNL     1     -43.491  57.558 -57.210  1.00  0.00     0.020 A 
HETATM   28  C   UNL     1     -42.691  57.476 -56.073  1.00  0.00     0.012 A 
ENDBRANCH   2  23
TORSDOF 3
ENDMDL
MODEL 4
REMARK VINA RESULT:      -7.8      3.035      5.635
REMARK  3 active torsions:
REMARK  status: ('A' for Active; 'I' for Inactive)
REMARK    1  A    between atoms: C_5  and  N_6 
REMARK       I    between atoms: N_6  and  C_7 
REMARK    2  A    between atoms: C_7  and  C_8 
REMARK    3  A    between atoms: C_9  and  C_10 
ROOT
HETATM    1  C   UNL     1     -42.979  57.929 -57.108  1.00  0.00     0.062 C 
HETATM    2  C   UNL     1     -42.678  57.488 -58.549  1.00  0.00     0.199 C 
HETATM    3  N   UNL     1     -42.381  58.648 -59.383  1.00  0.00    -0.092 N 
HETATM    4  C   UNL     1     -42.661  59.940 -59.037  1.00  0.00     0.735 A 
HETATM    5  N   UNL     1     -43.206  60.187 -57.828  1.00  0.00    -0.191 N 
HETATM    6  N   UNL     1     -41.773  58.606 -60.578  1.00  0.00     0.012 NA
HETATM    7  N   UNL     1     -41.738  59.874 -60.975  1.00  0.00     0.033 NA
HETATM    8  N   UNL     1     -42.288  60.716 -60.024  1.00  0.00     0.030 NA
HETATM    9  C   UNL     1     -43.299  59.220 -56.828  1.00  0.00     0.037 C 
HETATM   10  C   UNL     1     -43.795  59.720 -55.494  1.00  0.00     0.070 C 
HETATM   11  H   UNL     1     -43.382  61.155 -57.565  1.00  0.00     0.184 HD
ENDROOT
BRANCH   1  12
HETATM   12  C   UNL     1     -42.872  56.817 -56.113  1.00  0.00     0.256 C 
HETATM   13  N   UNL     1     -41.579  56.423 -55.839  1.00  0.00    -0.323 N 
HETATM   14  H   UNL     1     -40.826  56.919 -56.296  1.00  0.00     0.169 HD
HETATM   15  O   UNL     1     -43.894  56.290 -55.696  1.00  0.00    -0.267 OA
BRANCH  13  16
HETATM   16  C   UNL     1     -41.172  55.403 -54.949  1.00  0.00     0.035 A 
HETATM   17  C   UNL     1     -40.637  54.181 -55.353  1.00  0.00     0.030 A 
HETATM   18  C   UNL     1     -40.266  53.218 -54.408  1.00  0.00     0.009 A 
HETATM   19  C   UNL     1     -40.429  53.459 -53.041  1.00  0.00    -0.062 A 
HETATM   20  C   UNL     1     -40.072  52.399 -52.042  1.00  0.00     0.048 C 
HETATM   21  C   UNL     1     -40.975  54.679 -52.633  1.00  0.00     0.009 A 
HETATM   22  C   UNL     1     -41.330  55.647 -53.579  1.00  0.00     0.030 A 
ENDBRANCH  13  16
ENDBRANCH   1  12
BRANCH   2  23
HETATM   23  C   UNL     1     -43.812  56.693 -59.179  1.00  0.00    -0.011 A 
HETATM   24  C   UNL     1     -45.069  57.253 -59.412  1.00  0.00     0.125 A 
HETATM   25  N   UNL     1     -46.118  56.582 -59.939  1.00  0.00    -0.272 NA
HETATM   26  C   UNL     1     -45.914  55.285 -60.251  1.00  0.00     0.116 A 
HETATM   27  C   UNL     1     -44.708  54.631 -60.068  1.00  0.00     0.020 A 
HETATM   28  C   UNL     1     -43.644  55.347 -59.526  1.00  0.00     0.012 A 
ENDBRANCH   2  23
TORSDOF 3
ENDMDL
MODEL 5
REMARK VINA RESULT:      -7.5      2.577      6.614
REMARK  3 active torsions:
REMARK  status: ('A' for Active; 'I' for Inactive)
REMARK    1  A    between atoms: C_5  and  N_6 
REMARK       I    between atoms: N_6  and  C_7 
REMARK    2  A    between atoms: C_7  and  C_8 
REMARK    3  A    between atoms: C_9  and  C_10 
ROOT
HETATM    1  C   UNL     1     -42.041  56.140 -52.527  1.00  0.00     0.062 C 
HETATM    2  C   UNL     1     -42.187  54.758 -51.871  1.00  0.00     0.199 C 
HETATM    3  N   UNL     1     -41.797  54.818 -50.466  1.00  0.00    -0.092 N 
HETATM    4  C   UNL     1     -41.089  55.843 -49.905  1.00  0.00     0.735 A 
HETATM    5  N   UNL     1     -40.759  56.903 -50.671  1.00  0.00    -0.191 N 
HETATM    6  N   UNL     1     -42.103  53.899 -49.539  1.00  0.00     0.012 NA
HETATM    7  N   UNL     1     -41.528  54.348 -48.427  1.00  0.00     0.033 NA
HETATM    8  N   UNL     1     -40.893  55.559 -48.642  1.00  0.00     0.030 NA
HETATM    9  C   UNL     1     -41.284  57.108 -51.946  1.00  0.00     0.037 C 
HETATM   10  C   UNL     1     -40.918  58.423 -52.588  1.00  0.00     0.070 C 
HETATM   11  H   UNL     1     -40.258  57.677 -50.237  1.00  0.00     0.184 HD
ENDROOT
BRANCH   1  12
HETATM   12  C   UNL     1     -42.803  56.273 -53.807  1.00  0.00     0.256 C 
HETATM   13  N   UNL     1     -42.011  56.351 -54.933  1.00  0.00    -0.323 N 
HETATM   14  H   UNL     1     -41.010  56.285 -54.813  1.00  0.00     0.169 HD
HETATM   15  O   UNL     1     -44.020  56.395 -53.767  1.00  0.00    -0.267 OA
BRANCH  13  16
HETATM   16  C   UNL     1     -42.447  56.483 -56.271  1.00  0.00     0.035 A 
HETATM   17  C   UNL     1     -42.881  55.418 -57.061  1.00  0.00     0.030 A 
HETATM   18  C   UNL     1     -43.288  55.632 -58.382  1.00  0.00     0.009 A 
HETATM   19  C   UNL     1     -43.265  56.913 -58.940  1.00  0.00    -0.062 A 
HETATM   20  C   UNL     1     -43.659  57.118 -60.372  1.00  0.00     0.048 C 
HETATM   21  C   UNL     1     -42.821  57.980 -58.154  1.00  0.00     0.009 A 
HETATM   22  C   UNL     1     -42.429  57.768 -56.828  1.00  0.00     0.030 A 
ENDBRANCH  13  16
ENDBRANCH   1  12
BRANCH   2  23
HETATM   23  C   UNL     1     -41.377  53.677 -52.572  1.00  0.00    -0.011 A 
HETATM   24  C   UNL     1     -40.233  53.120 -51.999  1.00  0.00     0.125 A 
HETATM   25  N   UNL     1     -39.461  52.182 -52.591  1.00  0.00    -0.272 NA
HETATM   26  C   UNL     1     -39.841  51.772 -53.820  1.00  0.00     0.116 A 
HETATM   27  C   UNL     1     -40.959  52.252 -54.479  1.00  0.00     0.020 A 
HETATM   28  C   UNL     1     -41.737  53.216 -53.844  1.00  0.00     0.012 A 
ENDBRANCH   2  23
TORSDOF 3
ENDMDL
MODEL 6
REMARK VINA RESULT:      -7.1      2.676      6.614
REMARK  3 active torsions:
REMARK  status: ('A' for Active; 'I' for Inactive)
REMARK    1  A    between atoms: C_5  and  N_6 
REMARK       I    between atoms: N_6  and  C_7 
REMARK    2  A    between atoms: C_7  and  C_8 
REMARK    3  A    between atoms: C_9  and  C_10 
ROOT
HETATM    1  C   UNL     1     -42.805  57.882 -54.405  1.00  0.00     0.062 C 
HETATM    2  C   UNL     1     -42.533  56.876 -53.276  1.00  0.00     0.199 C 
HETATM    3  N   UNL     1     -41.713  57.489 -52.236  1.00  0.00    -0.092 N 
HETATM    4  C   UNL     1     -41.009  58.649 -52.392  1.00  0.00     0.735 A 
HETATM    5  N   UNL     1     -41.101  59.315 -53.562  1.00  0.00    -0.191 N 
HETATM    6  N   UNL     1     -41.564  57.016 -50.990  1.00  0.00     0.012 NA
HETATM    7  N   UNL     1     -40.723  57.868 -50.412  1.00  0.00     0.033 NA
HETATM    8  N   UNL     1     -40.368  58.890 -51.276  1.00  0.00     0.030 NA
HETATM    9  C   UNL     1     -42.041  58.998 -54.541  1.00  0.00     0.037 C 
HETATM   10  C   UNL     1     -42.094  59.947 -55.713  1.00  0.00     0.070 C 
HETATM   11  H   UNL     1     -40.598  60.195 -53.659  1.00  0.00     0.184 HD
ENDROOT
BRANCH   1  12
HETATM   12  C   UNL     1     -43.958  57.498 -55.278  1.00  0.00     0.256 C 
HETATM   13  N   UNL     1     -43.745  57.707 -56.624  1.00  0.00    -0.323 N 
HETATM   14  H   UNL     1     -42.845  58.066 -56.910  1.00  0.00     0.169 HD
HETATM   15  O   UNL     1     -45.002  57.128 -54.758  1.00  0.00    -0.267 OA
BRANCH  13  16
HETATM   16  C   UNL     1     -44.649  57.444 -57.678  1.00  0.00     0.035 A 
HETATM   17  C   UNL     1     -45.929  57.992 -57.767  1.00  0.00     0.030 A 
HETATM   18  C   UNL     1     -46.767  57.673 -58.840  1.00  0.00     0.009 A 
HETATM   19  C   UNL     1     -46.344  56.796 -59.841  1.00  0.00    -0.062 A 
HETATM   20  C   UNL     1     -47.272  56.425 -60.959  1.00  0.00     0.048 C 
HETATM   21  C   UNL     1     -45.066  56.236 -59.750  1.00  0.00     0.009 A 
HETATM   22  C   UNL     1     -44.222  56.569 -58.685  1.00  0.00     0.030 A 
ENDBRANCH  13  16
ENDBRANCH   1  12
BRANCH   2  23
HETATM   23  C   UNL     1     -41.858  55.602 -53.763  1.00  0.00    -0.011 A 
HETATM   24  C   UNL     1     -42.284  54.336 -53.357  1.00  0.00     0.125 A 
HETATM   25  N   UNL     1     -41.701  53.176 -53.733  1.00  0.00    -0.272 NA
HETATM   26  C   UNL     1     -40.636  53.272 -54.557  1.00  0.00     0.116 A 
HETATM   27  C   UNL     1     -40.132  54.473 -55.025  1.00  0.00     0.020 A 
HETATM   28  C   UNL     1     -40.754  55.652 -54.623  1.00  0.00     0.012 A 
ENDBRANCH   2  23
TORSDOF 3
ENDMDL
MODEL 7
REMARK VINA RESULT:      -7.0      3.981      5.885
REMARK  3 active torsions:
REMARK  status: ('A' for Active; 'I' for Inactive)
REMARK    1  A    between atoms: C_5  and  N_6 
REMARK       I    between atoms: N_6  and  C_7 
REMARK    2  A    between atoms: C_7  and  C_8 
REMARK    3  A    between atoms: C_9  and  C_10 
ROOT
HETATM    1  C   UNL     1     -44.482  56.908 -59.309  1.00  0.00     0.062 C 
HETATM    2  C   UNL     1     -44.704  58.375 -58.909  1.00  0.00     0.199 C 
HETATM    3  N   UNL     1     -45.987  58.851 -59.415  1.00  0.00    -0.092 N 
HETATM    4  C   UNL     1     -46.719  58.218 -60.379  1.00  0.00     0.735 A 
HETATM    5  N   UNL     1     -46.269  57.048 -60.877  1.00  0.00    -0.191 N 
HETATM    6  N   UNL     1     -46.628  59.948 -58.986  1.00  0.00     0.012 NA
HETATM    7  N   UNL     1     -47.725  60.004 -59.736  1.00  0.00     0.033 NA
HETATM    8  N   UNL     1     -47.794  58.931 -60.608  1.00  0.00     0.030 NA
HETATM    9  C   UNL     1     -45.209  56.343 -60.309  1.00  0.00     0.037 C 
HETATM   10  C   UNL     1     -44.946  54.984 -60.909  1.00  0.00     0.070 C 
HETATM   11  H   UNL     1     -46.836  56.567 -61.572  1.00  0.00     0.184 HD
ENDROOT
BRANCH   1  12
HETATM   12  C   UNL     1     -43.430  56.223 -58.495  1.00  0.00     0.256 C 
HETATM   13  N   UNL     1     -43.703  56.169 -57.144  1.00  0.00    -0.323 N 
HETATM   14  H   UNL     1     -44.578  56.560 -56.823  1.00  0.00     0.169 HD
HETATM   15  O   UNL     1     -42.400  55.854 -59.041  1.00  0.00    -0.267 OA
BRANCH  13  16
HETATM   16  C   UNL     1     -42.897  55.591 -56.137  1.00  0.00     0.035 A 
HETATM   17  C   UNL     1     -41.819  56.236 -55.532  1.00  0.00     0.030 A 
HETATM   18  C   UNL     1     -41.064  55.590 -54.548  1.00  0.00     0.009 A 
HETATM   19  C   UNL     1     -41.371  54.285 -54.153  1.00  0.00    -0.062 A 
HETATM   20  C   UNL     1     -40.523  53.588 -53.131  1.00  0.00     0.048 C 
HETATM   21  C   UNL     1     -42.445  53.632 -54.765  1.00  0.00     0.009 A 
HETATM   22  C   UNL     1     -43.209  54.285 -55.738  1.00  0.00     0.030 A 
ENDBRANCH  13  16
ENDBRANCH   1  12
BRANCH   2  23
HETATM   23  C   UNL     1     -43.597  59.299 -59.394  1.00  0.00    -0.011 A 
HETATM   24  C   UNL     1     -42.987  60.230 -58.552  1.00  0.00     0.125 A 
HETATM   25  N   UNL     1     -42.023  61.095 -58.941  1.00  0.00    -0.272 NA
HETATM   26  C   UNL     1     -41.642  61.037 -60.234  1.00  0.00     0.116 A 
HETATM   27  C   UNL     1     -42.175  60.151 -61.154  1.00  0.00     0.020 A 
HETATM   28  C   UNL     1     -43.164  59.270 -60.726  1.00  0.00     0.012 A 
ENDBRANCH   2  23
TORSDOF 3
ENDMDL
MODEL 8
REMARK VINA RESULT:      -7.0     16.859     19.053
REMARK  3 active torsions:
REMARK  status: ('A' for Active; 'I' for Inactive)
REMARK    1  A    between atoms: C_5  and  N_6 
REMARK       I    between atoms: N_6  and  C_7 
REMARK    2  A    between atoms: C_7  and  C_8 
REMARK    3  A    between atoms: C_9  and  C_10 
ROOT
HETATM    1  C   UNL     1     -33.088  39.619 -53.507  1.00  0.00     0.062 C 
HETATM    2  C   UNL     1     -33.663  40.322 -52.267  1.00  0.00     0.199 C 
HETATM    3  N   UNL     1     -32.927  39.927 -51.071  1.00  0.00    -0.092 N 
HETATM    4  C   UNL     1     -32.090  38.849 -51.001  1.00  0.00     0.735 A 
HETATM    5  N   UNL     1     -31.879  38.114 -52.112  1.00  0.00    -0.191 N 
HETATM    6  N   UNL     1     -32.949  40.579 -49.900  1.00  0.00     0.012 NA
HETATM    7  N   UNL     1     -32.164  39.857 -49.106  1.00  0.00     0.033 NA
HETATM    8  N   UNL     1     -31.622  38.776 -49.780  1.00  0.00     0.030 NA
HETATM    9  C   UNL     1     -32.298  38.520 -53.378  1.00  0.00     0.037 C 
HETATM   10  C   UNL     1     -31.840  37.645 -54.518  1.00  0.00     0.070 C 
HETATM   11  H   UNL     1     -31.229  37.332 -52.059  1.00  0.00     0.184 HD
ENDROOT
BRANCH   1  12
HETATM   12  C   UNL     1     -33.482  40.269 -54.795  1.00  0.00     0.256 C 
HETATM   13  N   UNL     1     -34.768  39.986 -55.204  1.00  0.00    -0.323 N 
HETATM   14  H   UNL     1     -35.337  39.402 -54.606  1.00  0.00     0.169 HD
HETATM   15  O   UNL     1     -32.646  40.905 -55.422  1.00  0.00    -0.267 OA
BRANCH  13  16
HETATM   16  C   UNL     1     -35.411  40.452 -56.373  1.00  0.00     0.035 A 
HETATM   17  C   UNL     1     -35.540  39.706 -57.545  1.00  0.00     0.030 A 
HETATM   18  C   UNL     1     -36.183  40.245 -58.664  1.00  0.00     0.009 A 
HETATM   19  C   UNL     1     -36.704  41.541 -58.635  1.00  0.00    -0.062 A 
HETATM   20  C   UNL     1     -37.347  42.122 -59.859  1.00  0.00     0.048 C 
HETATM   21  C   UNL     1     -36.566  42.295 -57.466  1.00  0.00     0.009 A 
HETATM   22  C   UNL     1     -35.938  41.749 -56.341  1.00  0.00     0.030 A 
ENDBRANCH  13  16
ENDBRANCH   1  12
BRANCH   2  23
HETATM   23  C   UNL     1     -35.145  40.045 -52.059  1.00  0.00    -0.011 A 
HETATM   24  C   UNL     1     -35.640  38.753 -51.879  1.00  0.00     0.125 A 
HETATM   25  N   UNL     1     -36.948  38.450 -51.722  1.00  0.00    -0.272 NA
HETATM   26  C   UNL     1     -37.817  39.483 -51.746  1.00  0.00     0.116 A 
HETATM   27  C   UNL     1     -37.437  40.803 -51.912  1.00  0.00     0.020 A 
HETATM   28  C   UNL     1     -36.082  41.086 -52.069  1.00  0.00     0.012 A 
ENDBRANCH   2  23
TORSDOF 3
ENDMDL
MODEL 9
REMARK VINA RESULT:      -7.0     16.211     18.326
REMARK  3 active torsions:
REMARK  status: ('A' for Active; 'I' for Inactive)
REMARK    1  A    between atoms: C_5  and  N_6 
REMARK       I    between atoms: N_6  and  C_7 
REMARK    2  A    between atoms: C_7  and  C_8 
REMARK    3  A    between atoms: C_9  and  C_10 
ROOT
HETATM    1  C   UNL     1     -35.555  40.965 -53.086  1.00  0.00     0.062 C 
HETATM    2  C   UNL     1     -34.668  41.246 -54.308  1.00  0.00     0.199 C 
HETATM    3  N   UNL     1     -35.488  41.607 -55.460  1.00  0.00    -0.092 N 
HETATM    4  C   UNL     1     -36.835  41.397 -55.544  1.00  0.00     0.735 A 
HETATM    5  N   UNL     1     -37.479  40.864 -54.485  1.00  0.00    -0.191 N 
HETATM    6  N   UNL     1     -35.039  42.215 -56.568  1.00  0.00     0.012 NA
HETATM    7  N   UNL     1     -36.114  42.320 -57.344  1.00  0.00     0.033 NA
HETATM    8  N   UNL     1     -37.240  41.814 -56.718  1.00  0.00     0.030 NA
HETATM    9  C   UNL     1     -36.883  40.716 -53.234  1.00  0.00     0.037 C 
HETATM   10  C   UNL     1     -37.804  40.244 -52.135  1.00  0.00     0.070 C 
HETATM   11  H   UNL     1     -38.488  40.740 -54.545  1.00  0.00     0.184 HD
ENDROOT
BRANCH   1  12
HETATM   12  C   UNL     1     -34.811  41.009 -51.789  1.00  0.00     0.256 C 
HETATM   13  N   UNL     1     -34.347  39.784 -51.359  1.00  0.00    -0.323 N 
HETATM   14  H   UNL     1     -34.516  38.981 -51.949  1.00  0.00     0.169 HD
HETATM   15  O   UNL     1     -34.746  42.064 -51.174  1.00  0.00    -0.267 OA
BRANCH  13  16
HETATM   16  C   UNL     1     -33.619  39.518 -50.177  1.00  0.00     0.035 A 
HETATM   17  C   UNL     1     -32.364  40.057 -49.894  1.00  0.00     0.030 A 
HETATM   18  C   UNL     1     -31.703  39.736 -48.704  1.00  0.00     0.009 A 
HETATM   19  C   UNL     1     -32.282  38.866 -47.777  1.00  0.00    -0.062 A 
HETATM   20  C   UNL     1     -31.540  38.494 -46.528  1.00  0.00     0.048 C 
HETATM   21  C   UNL     1     -33.535  38.316 -48.062  1.00  0.00     0.009 A 
HETATM   22  C   UNL     1     -34.202  38.650 -49.246  1.00  0.00     0.030 A 
ENDBRANCH  13  16
ENDBRANCH   1  12
BRANCH   2  23
HETATM   23  C   UNL     1     -33.773  40.071 -54.677  1.00  0.00    -0.011 A 
HETATM   24  C   UNL     1     -34.293  38.852 -55.112  1.00  0.00     0.125 A 
HETATM   25  N   UNL     1     -33.546  37.769 -55.422  1.00  0.00    -0.272 NA
HETATM   26  C   UNL     1     -32.208  37.898 -55.293  1.00  0.00     0.116 A 
HETATM   27  C   UNL     1     -31.585  39.061 -54.875  1.00  0.00     0.020 A 
HETATM   28  C   UNL     1     -32.380  40.162 -54.566  1.00  0.00     0.012 A 
ENDBRANCH   2  23
TORSDOF 3
ENDMDL
MODEL 10
REMARK VINA RESULT:      -7.0      2.292      3.237
REMARK  3 active torsions:
REMARK  status: ('A' for Active; 'I' for Inactive)
REMARK    1  A    between atoms: C_5  and  N_6 
REMARK       I    between atoms: N_6  and  C_7 
REMARK    2  A    between atoms: C_7  and  C_8 
REMARK    3  A    between atoms: C_9  and  C_10 
ROOT
HETATM    1  C   UNL     1     -43.379  56.818 -57.704  1.00  0.00     0.062 C 
HETATM    2  C   UNL     1     -44.274  57.806 -56.940  1.00  0.00     0.199 C 
HETATM    3  N   UNL     1     -44.955  58.700 -57.870  1.00  0.00    -0.092 N 
HETATM    4  C   UNL     1     -44.598  58.869 -59.178  1.00  0.00     0.735 A 
HETATM    5  N   UNL     1     -43.581  58.136 -59.677  1.00  0.00    -0.191 N 
HETATM    6  N   UNL     1     -46.028  59.448 -57.578  1.00  0.00     0.012 NA
HETATM    7  N   UNL     1     -46.284  60.111 -58.702  1.00  0.00     0.033 NA
HETATM    8  N   UNL     1     -45.399  59.760 -59.707  1.00  0.00     0.030 NA
HETATM    9  C   UNL     1     -43.017  57.061 -58.991  1.00  0.00     0.037 C 
HETATM   10  C   UNL     1     -41.997  56.267 -59.769  1.00  0.00     0.070 C 
HETATM   11  H   UNL     1     -43.342  58.245 -60.661  1.00  0.00     0.184 HD
ENDROOT
BRANCH   1  12
HETATM   12  C   UNL     1     -42.991  55.621 -56.895  1.00  0.00     0.256 C 
HETATM   13  N   UNL     1     -42.001  55.861 -55.966  1.00  0.00    -0.323 N 
HETATM   14  H   UNL     1     -41.646  56.804 -55.886  1.00  0.00     0.169 HD
HETATM   15  O   UNL     1     -43.485  54.534 -57.162  1.00  0.00    -0.267 OA
BRANCH  13  16
HETATM   16  C   UNL     1     -41.433  54.928 -55.069  1.00  0.00     0.035 A 
HETATM   17  C   UNL     1     -40.493  53.964 -55.435  1.00  0.00     0.030 A 
HETATM   18  C   UNL     1     -39.985  53.069 -54.487  1.00  0.00     0.009 A 
HETATM   19  C   UNL     1     -40.411  53.118 -53.158  1.00  0.00    -0.062 A 
HETATM   20  C   UNL     1     -39.894  52.121 -52.164  1.00  0.00     0.048 C 
HETATM   21  C   UNL     1     -41.361  54.075 -52.790  1.00  0.00     0.009 A 
HETATM   22  C   UNL     1     -41.856  54.981 -53.735  1.00  0.00     0.030 A 
ENDBRANCH  13  16
ENDBRANCH   1  12
BRANCH   2  23
HETATM   23  C   UNL     1     -43.511  58.632 -55.915  1.00  0.00    -0.011 A 
HETATM   24  C   UNL     1     -42.388  59.386 -56.260  1.00  0.00     0.125 A 
HETATM   25  N   UNL     1     -41.656  60.111 -55.384  1.00  0.00    -0.272 NA
HETATM   26  C   UNL     1     -42.056  60.089 -54.095  1.00  0.00     0.116 A 
HETATM   27  C   UNL     1     -43.156  59.381 -53.644  1.00  0.00     0.020 A 
HETATM   28  C   UNL     1     -43.893  58.645 -54.568  1.00  0.00     0.012 A 
ENDBRANCH   2  23
TORSDOF 3
ENDMDL
