MODEL 1
REMARK VINA RESULT:      -9.1      0.000      0.000
REMARK  9 active torsions:
REMARK  status: ('A' for Active; 'I' for Inactive)
REMARK    1  A    between atoms: C_2  and  O_3 
REMARK    2  A    between atoms: O_3  and  C_4 
REMARK    3  A    between atoms: C_4  and  C_5 
REMARK    4  A    between atoms: C_8  and  N_9 
REMARK       I    between atoms: N_9  and  C_10 
REMARK    5  A    between atoms: C_10  and  C_11 
REMARK    6  A    between atoms: C_11  and  C_12 
REMARK    7  A    between atoms: N_13  and  C_14 
REMARK    8  A    between atoms: C_14  and  C_15 
REMARK    9  A    between atoms: N_23  and  C_24 
ROOT
HETATM    1  C   UNL     1     -43.393  56.134 -55.367  1.00  0.00     0.191 C 
HETATM    2  N   UNL     1     -42.945  56.841 -54.182  1.00  0.00    -0.315 N 
HETATM    3  C   UNL     1     -41.908  56.142 -53.561  1.00  0.00     0.333 C 
HETATM    4  O   UNL     1     -41.136  56.675 -52.780  1.00  0.00    -0.246 OA
HETATM    5  N   UNL     1     -41.963  54.829 -53.991  1.00  0.00    -0.232 N 
HETATM    6  C   UNL     1     -42.931  54.730 -54.971  1.00  0.00     0.256 C 
HETATM    7  O   UNL     1     -43.369  53.731 -55.529  1.00  0.00    -0.270 OA
ENDROOT
BRANCH   1   8
HETATM    8  C   UNL     1     -42.644  56.613 -56.610  1.00  0.00     0.138 C 
BRANCH   8   9
HETATM    9  C   UNL     1     -43.435  56.390 -57.881  1.00  0.00     0.224 C 
HETATM   10  N   UNL     1     -44.688  56.980 -57.863  1.00  0.00    -0.327 N 
HETATM   11  H   UNL     1     -44.996  57.406 -56.998  1.00  0.00     0.169 HD
HETATM   12  O   UNL     1     -42.942  55.764 -58.812  1.00  0.00    -0.273 OA
BRANCH  10  13
HETATM   13  C   UNL     1     -45.576  57.123 -58.954  1.00  0.00     0.034 A 
HETATM   14  C   UNL     1     -46.289  58.289 -59.236  1.00  0.00     0.030 A 
HETATM   15  C   UNL     1     -47.190  58.340 -60.311  1.00  0.00     0.020 A 
HETATM   16  C   UNL     1     -47.386  57.218 -61.123  1.00  0.00     0.039 A 
HETATM   17  C   UNL     1     -46.665  56.050 -60.851  1.00  0.00     0.020 A 
HETATM   18  C   UNL     1     -45.771  56.002 -59.774  1.00  0.00     0.030 A 
BRANCH  16  19
HETATM   19  C   UNL     1     -48.328  57.216 -62.276  1.00  0.00     0.293 C 
HETATM   20  O   UNL     1     -48.699  56.196 -62.834  1.00  0.00    -0.259 OA
BRANCH  19  21
HETATM   21  O   UNL     1     -48.707  58.480 -62.586  1.00  0.00    -0.318 OA
BRANCH  21  22
HETATM   22  C   UNL     1     -49.928  58.602 -63.330  1.00  0.00     0.174 C 
HETATM   23  C   UNL     1     -51.108  58.803 -62.397  1.00  0.00     0.034 C 
ENDBRANCH  21  22
ENDBRANCH  19  21
ENDBRANCH  16  19
ENDBRANCH  10  13
ENDBRANCH   8   9
ENDBRANCH   1   8
BRANCH   2  24
HETATM   24  C   UNL     1     -43.162  58.266 -53.991  1.00  0.00     0.168 C 
BRANCH  24  25
HETATM   25  C   UNL     1     -44.163  58.635 -52.926  1.00  0.00    -0.023 A 
HETATM   26  C   UNL     1     -44.469  57.703 -51.935  1.00  0.00     0.125 A 
HETATM   27  N   UNL     1     -45.345  57.914 -50.925  1.00  0.00    -0.273 NA
HETATM   28  C   UNL     1     -45.963  59.113 -50.900  1.00  0.00     0.116 A 
HETATM   29  C   UNL     1     -45.722  60.117 -51.821  1.00  0.00     0.020 A 
HETATM   30  C   UNL     1     -44.797  59.878 -52.836  1.00  0.00     0.012 A 
ENDBRANCH  24  25
ENDBRANCH   2  24
BRANCH   5  31
HETATM   31  C   UNL     1     -41.195  53.747 -53.450  1.00  0.00     0.047 A 
HETATM   32  C   UNL     1     -40.853  52.622 -54.223  1.00  0.00     0.037 A 
HETATM   33  C   UNL     1     -40.074  51.566 -53.714  1.00  0.00    -0.060 A 
HETATM   34  C   UNL     1     -39.760  50.370 -54.565  1.00  0.00     0.048 C 
HETATM   35  C   UNL     1     -39.636  51.618 -52.393  1.00  0.00     0.007 A 
HETATM   36  C   UNL     1     -39.963  52.713 -51.601  1.00  0.00     0.003 A 
HETATM   37  C   UNL     1     -40.734  53.760 -52.123  1.00  0.00     0.030 A 
ENDBRANCH   5  31
TORSDOF 9
ENDMDL
MODEL 2
REMARK VINA RESULT:      -8.8      4.502      9.833
REMARK  9 active torsions:
REMARK  status: ('A' for Active; 'I' for Inactive)
REMARK    1  A    between atoms: C_2  and  O_3 
REMARK    2  A    between atoms: O_3  and  C_4 
REMARK    3  A    between atoms: C_4  and  C_5 
REMARK    4  A    between atoms: C_8  and  N_9 
REMARK       I    between atoms: N_9  and  C_10 
REMARK    5  A    between atoms: C_10  and  C_11 
REMARK    6  A    between atoms: C_11  and  C_12 
REMARK    7  A    between atoms: N_13  and  C_14 
REMARK    8  A    between atoms: C_14  and  C_15 
REMARK    9  A    between atoms: N_23  and  C_24 
ROOT
HETATM    1  C   UNL     1     -44.069  59.199 -52.142  1.00  0.00     0.191 C 
HETATM    2  N   UNL     1     -43.731  60.575 -52.454  1.00  0.00    -0.315 N 
HETATM    3  C   UNL     1     -43.900  61.385 -51.329  1.00  0.00     0.333 C 
HETATM    4  O   UNL     1     -43.361  62.475 -51.222  1.00  0.00    -0.246 OA
HETATM    5  N   UNL     1     -44.747  60.729 -50.456  1.00  0.00    -0.232 N 
HETATM    6  C   UNL     1     -45.000  59.466 -50.957  1.00  0.00     0.256 C 
HETATM    7  O   UNL     1     -45.781  58.615 -50.551  1.00  0.00    -0.270 OA
ENDROOT
BRANCH   1   8
HETATM    8  C   UNL     1     -42.837  58.419 -51.688  1.00  0.00     0.138 C 
BRANCH   8   9
HETATM    9  C   UNL     1     -42.760  57.044 -52.318  1.00  0.00     0.224 C 
HETATM   10  N   UNL     1     -41.464  56.598 -52.513  1.00  0.00    -0.327 N 
HETATM   11  H   UNL     1     -40.709  57.243 -52.320  1.00  0.00     0.169 HD
HETATM   12  O   UNL     1     -43.786  56.427 -52.577  1.00  0.00    -0.273 OA
BRANCH  10  13
HETATM   13  C   UNL     1     -41.061  55.295 -52.890  1.00  0.00     0.034 A 
HETATM   14  C   UNL     1     -40.841  54.894 -54.209  1.00  0.00     0.030 A 
HETATM   15  C   UNL     1     -40.489  53.569 -54.508  1.00  0.00     0.020 A 
HETATM   16  C   UNL     1     -40.348  52.626 -53.485  1.00  0.00     0.039 A 
HETATM   17  C   UNL     1     -40.558  53.026 -52.161  1.00  0.00     0.020 A 
HETATM   18  C   UNL     1     -40.914  54.348 -51.867  1.00  0.00     0.030 A 
BRANCH  16  19
HETATM   19  C   UNL     1     -39.976  51.208 -53.746  1.00  0.00     0.293 C 
HETATM   20  O   UNL     1     -40.368  50.582 -54.718  1.00  0.00    -0.259 OA
BRANCH  19  21
HETATM   21  O   UNL     1     -39.150  50.744 -52.777  1.00  0.00    -0.318 OA
BRANCH  21  22
HETATM   22  C   UNL     1     -39.559  49.527 -52.135  1.00  0.00     0.174 C 
HETATM   23  C   UNL     1     -39.780  49.751 -50.650  1.00  0.00     0.034 C 
ENDBRANCH  21  22
ENDBRANCH  19  21
ENDBRANCH  16  19
ENDBRANCH  10  13
ENDBRANCH   8   9
ENDBRANCH   1   8
BRANCH   2  24
HETATM   24  C   UNL     1     -42.864  60.935 -53.565  1.00  0.00     0.168 C 
BRANCH  24  25
HETATM   25  C   UNL     1     -43.073  60.150 -54.834  1.00  0.00    -0.023 A 
HETATM   26  C   UNL     1     -44.219  60.384 -55.593  1.00  0.00     0.125 A 
HETATM   27  N   UNL     1     -44.519  59.749 -56.750  1.00  0.00    -0.273 NA
HETATM   28  C   UNL     1     -43.639  58.819 -57.175  1.00  0.00     0.116 A 
HETATM   29  C   UNL     1     -42.462  58.519 -56.512  1.00  0.00     0.020 A 
HETATM   30  C   UNL     1     -42.169  59.207 -55.336  1.00  0.00     0.012 A 
ENDBRANCH  24  25
ENDBRANCH   2  24
BRANCH   5  31
HETATM   31  C   UNL     1     -45.321  61.298 -49.274  1.00  0.00     0.047 A 
HETATM   32  C   UNL     1     -44.838  60.983 -47.989  1.00  0.00     0.037 A 
HETATM   33  C   UNL     1     -45.373  61.558 -46.821  1.00  0.00    -0.060 A 
HETATM   34  C   UNL     1     -44.849  61.168 -45.470  1.00  0.00     0.048 C 
HETATM   35  C   UNL     1     -46.430  62.459 -46.928  1.00  0.00     0.007 A 
HETATM   36  C   UNL     1     -46.933  62.786 -48.181  1.00  0.00     0.003 A 
HETATM   37  C   UNL     1     -46.388  62.211 -49.336  1.00  0.00     0.030 A 
ENDBRANCH   5  31
TORSDOF 9
ENDMDL
MODEL 3
REMARK VINA RESULT:      -8.6      3.425      9.455
REMARK  9 active torsions:
REMARK  status: ('A' for Active; 'I' for Inactive)
REMARK    1  A    between atoms: C_2  and  O_3 
REMARK    2  A    between atoms: O_3  and  C_4 
REMARK    3  A    between atoms: C_4  and  C_5 
REMARK    4  A    between atoms: C_8  and  N_9 
REMARK       I    between atoms: N_9  and  C_10 
REMARK    5  A    between atoms: C_10  and  C_11 
REMARK    6  A    between atoms: C_11  and  C_12 
REMARK    7  A    between atoms: N_13  and  C_14 
REMARK    8  A    between atoms: C_14  and  C_15 
REMARK    9  A    between atoms: N_23  and  C_24 
ROOT
HETATM    1  C   UNL     1     -42.560  58.101 -57.366  1.00  0.00     0.191 C 
HETATM    2  N   UNL     1     -43.202  59.312 -56.891  1.00  0.00    -0.315 N 
HETATM    3  C   UNL     1     -43.615  60.099 -57.968  1.00  0.00     0.333 C 
HETATM    4  O   UNL     1     -44.470  60.964 -57.855  1.00  0.00    -0.246 OA
HETATM    5  N   UNL     1     -42.889  59.715 -59.079  1.00  0.00    -0.232 N 
HETATM    6  C   UNL     1     -42.129  58.610 -58.745  1.00  0.00     0.256 C 
HETATM    7  O   UNL     1     -41.272  58.032 -59.401  1.00  0.00    -0.270 OA
ENDROOT
BRANCH   1   8
HETATM    8  C   UNL     1     -43.567  56.962 -57.508  1.00  0.00     0.138 C 
BRANCH   8   9
HETATM    9  C   UNL     1     -43.089  55.685 -56.850  1.00  0.00     0.224 C 
HETATM   10  N   UNL     1     -42.194  55.899 -55.815  1.00  0.00    -0.327 N 
HETATM   11  H   UNL     1     -41.870  56.845 -55.660  1.00  0.00     0.169 HD
HETATM   12  O   UNL     1     -43.519  54.601 -57.224  1.00  0.00    -0.273 OA
BRANCH  10  13
HETATM   13  C   UNL     1     -41.725  54.942 -54.885  1.00  0.00     0.034 A 
HETATM   14  C   UNL     1     -42.364  54.641 -53.680  1.00  0.00     0.030 A 
HETATM   15  C   UNL     1     -41.812  53.713 -52.786  1.00  0.00     0.020 A 
HETATM   16  C   UNL     1     -40.609  53.067 -53.089  1.00  0.00     0.039 A 
HETATM   17  C   UNL     1     -39.971  53.357 -54.300  1.00  0.00     0.020 A 
HETATM   18  C   UNL     1     -40.523  54.288 -55.188  1.00  0.00     0.030 A 
BRANCH  16  19
HETATM   19  C   UNL     1     -39.979  52.073 -52.177  1.00  0.00     0.293 C 
HETATM   20  O   UNL     1     -40.209  52.025 -50.979  1.00  0.00    -0.259 OA
BRANCH  19  21
HETATM   21  O   UNL     1     -39.152  51.248 -52.866  1.00  0.00    -0.318 OA
BRANCH  21  22
HETATM   22  C   UNL     1     -39.665  49.937 -53.144  1.00  0.00     0.174 C 
HETATM   23  C   UNL     1     -39.803  49.720 -54.640  1.00  0.00     0.034 C 
ENDBRANCH  21  22
ENDBRANCH  19  21
ENDBRANCH  16  19
ENDBRANCH  10  13
ENDBRANCH   8   9
ENDBRANCH   1   8
BRANCH   2  24
HETATM   24  C   UNL     1     -43.788  59.418 -55.564  1.00  0.00     0.168 C 
BRANCH  24  25
HETATM   25  C   UNL     1     -42.869  59.079 -54.418  1.00  0.00    -0.023 A 
HETATM   26  C   UNL     1     -41.565  59.573 -54.429  1.00  0.00     0.125 A 
HETATM   27  N   UNL     1     -40.647  59.344 -53.461  1.00  0.00    -0.273 NA
HETATM   28  C   UNL     1     -41.039  58.572 -52.427  1.00  0.00     0.116 A 
HETATM   29  C   UNL     1     -42.312  58.045 -52.305  1.00  0.00     0.020 A 
HETATM   30  C   UNL     1     -43.242  58.318 -53.306  1.00  0.00     0.012 A 
ENDBRANCH  24  25
ENDBRANCH   2  24
BRANCH   5  31
HETATM   31  C   UNL     1     -42.875  60.398 -60.338  1.00  0.00     0.047 A 
HETATM   32  C   UNL     1     -43.998  60.412 -61.186  1.00  0.00     0.037 A 
HETATM   33  C   UNL     1     -44.009  61.104 -62.412  1.00  0.00    -0.060 A 
HETATM   34  C   UNL     1     -45.218  61.064 -63.300  1.00  0.00     0.048 C 
HETATM   35  C   UNL     1     -42.867  61.790 -62.816  1.00  0.00     0.007 A 
HETATM   36  C   UNL     1     -41.739  61.791 -62.004  1.00  0.00     0.003 A 
HETATM   37  C   UNL     1     -41.744  61.102 -60.784  1.00  0.00     0.030 A 
ENDBRANCH   5  31
TORSDOF 9
ENDMDL
MODEL 4
REMARK VINA RESULT:      -8.5      1.763      2.319
REMARK  9 active torsions:
REMARK  status: ('A' for Active; 'I' for Inactive)
REMARK    1  A    between atoms: C_2  and  O_3 
REMARK    2  A    between atoms: O_3  and  C_4 
REMARK    3  A    between atoms: C_4  and  C_5 
REMARK    4  A    between atoms: C_8  and  N_9 
REMARK       I    between atoms: N_9  and  C_10 
REMARK    5  A    between atoms: C_10  and  C_11 
REMARK    6  A    between atoms: C_11  and  C_12 
REMARK    7  A    between atoms: N_13  and  C_14 
REMARK    8  A    between atoms: C_14  and  C_15 
REMARK    9  A    between atoms: N_23  and  C_24 
ROOT
HETATM    1  C   UNL     1     -43.355  57.268 -54.892  1.00  0.00     0.191 C 
HETATM    2  N   UNL     1     -42.262  57.883 -54.163  1.00  0.00    -0.315 N 
HETATM    3  C   UNL     1     -41.262  56.945 -53.902  1.00  0.00     0.333 C 
HETATM    4  O   UNL     1     -40.116  57.269 -53.632  1.00  0.00    -0.246 OA
HETATM    5  N   UNL     1     -41.823  55.685 -54.002  1.00  0.00    -0.232 N 
HETATM    6  C   UNL     1     -43.122  55.820 -54.454  1.00  0.00     0.256 C 
HETATM    7  O   UNL     1     -43.992  54.967 -54.572  1.00  0.00    -0.270 OA
ENDROOT
BRANCH   1   8
HETATM    8  C   UNL     1     -43.160  57.409 -56.400  1.00  0.00     0.138 C 
BRANCH   8   9
HETATM    9  C   UNL     1     -44.458  57.688 -57.126  1.00  0.00     0.224 C 
HETATM   10  N   UNL     1     -44.406  57.404 -58.480  1.00  0.00    -0.327 N 
HETATM   11  H   UNL     1     -43.511  57.142 -58.873  1.00  0.00     0.169 HD
HETATM   12  O   UNL     1     -45.435  58.095 -56.508  1.00  0.00    -0.273 OA
BRANCH  10  13
HETATM   13  C   UNL     1     -45.494  57.367 -59.384  1.00  0.00     0.034 A 
HETATM   14  C   UNL     1     -46.065  56.192 -59.875  1.00  0.00     0.030 A 
HETATM   15  C   UNL     1     -47.112  56.236 -60.808  1.00  0.00     0.020 A 
HETATM   16  C   UNL     1     -47.606  57.465 -61.259  1.00  0.00     0.039 A 
HETATM   17  C   UNL     1     -47.044  58.645 -60.761  1.00  0.00     0.020 A 
HETATM   18  C   UNL     1     -45.995  58.596 -59.834  1.00  0.00     0.030 A 
BRANCH  16  19
HETATM   19  C   UNL     1     -48.716  57.570 -62.246  1.00  0.00     0.293 C 
HETATM   20  O   UNL     1     -49.447  56.635 -62.533  1.00  0.00    -0.259 OA
BRANCH  19  21
HETATM   21  O   UNL     1     -48.793  58.828 -62.746  1.00  0.00    -0.318 OA
BRANCH  21  22
HETATM   22  C   UNL     1     -50.112  59.391 -62.822  1.00  0.00     0.174 C 
HETATM   23  C   UNL     1     -50.462  60.115 -61.535  1.00  0.00     0.034 C 
ENDBRANCH  21  22
ENDBRANCH  19  21
ENDBRANCH  16  19
ENDBRANCH  10  13
ENDBRANCH   8   9
ENDBRANCH   1   8
BRANCH   2  24
HETATM   24  C   UNL     1     -42.015  59.317 -54.185  1.00  0.00     0.168 C 
BRANCH  24  25
HETATM   25  C   UNL     1     -42.269  60.040 -52.886  1.00  0.00    -0.023 A 
HETATM   26  C   UNL     1     -43.108  61.153 -52.885  1.00  0.00     0.125 A 
HETATM   27  N   UNL     1     -43.417  61.883 -51.789  1.00  0.00    -0.273 NA
HETATM   28  C   UNL     1     -42.853  61.496 -50.626  1.00  0.00     0.116 A 
HETATM   29  C   UNL     1     -42.020  60.398 -50.508  1.00  0.00     0.020 A 
HETATM   30  C   UNL     1     -41.740  59.652 -51.651  1.00  0.00     0.012 A 
ENDBRANCH  24  25
ENDBRANCH   2  24
BRANCH   5  31
HETATM   31  C   UNL     1     -41.183  54.461 -53.626  1.00  0.00     0.047 A 
HETATM   32  C   UNL     1     -41.044  54.081 -52.278  1.00  0.00     0.037 A 
HETATM   33  C   UNL     1     -40.444  52.866 -51.895  1.00  0.00    -0.060 A 
HETATM   34  C   UNL     1     -40.288  52.516 -50.444  1.00  0.00     0.048 C 
HETATM   35  C   UNL     1     -39.951  52.011 -52.877  1.00  0.00     0.007 A 
HETATM   36  C   UNL     1     -40.067  52.361 -54.217  1.00  0.00     0.003 A 
HETATM   37  C   UNL     1     -40.671  53.569 -54.584  1.00  0.00     0.030 A 
ENDBRANCH   5  31
TORSDOF 9
ENDMDL
MODEL 5
REMARK VINA RESULT:      -8.5      3.743      8.837
REMARK  9 active torsions:
REMARK  status: ('A' for Active; 'I' for Inactive)
REMARK    1  A    between atoms: C_2  and  O_3 
REMARK    2  A    between atoms: O_3  and  C_4 
REMARK    3  A    between atoms: C_4  and  C_5 
REMARK    4  A    between atoms: C_8  and  N_9 
REMARK       I    between atoms: N_9  and  C_10 
REMARK    5  A    between atoms: C_10  and  C_11 
REMARK    6  A    between atoms: C_11  and  C_12 
REMARK    7  A    between atoms: N_13  and  C_14 
REMARK    8  A    between atoms: C_14  and  C_15 
REMARK    9  A    between atoms: N_23  and  C_24 
ROOT
HETATM    1  C   UNL     1     -43.014  57.284 -54.354  1.00  0.00     0.191 C 
HETATM    2  N   UNL     1     -43.078  56.489 -55.565  1.00  0.00    -0.315 N 
HETATM    3  C   UNL     1     -42.678  55.176 -55.308  1.00  0.00     0.333 C 
HETATM    4  O   UNL     1     -42.973  54.248 -56.044  1.00  0.00    -0.246 OA
HETATM    5  N   UNL     1     -41.935  55.178 -54.143  1.00  0.00    -0.232 N 
HETATM    6  C   UNL     1     -41.979  56.447 -53.598  1.00  0.00     0.256 C 
HETATM    7  O   UNL     1     -41.369  56.898 -52.637  1.00  0.00    -0.270 OA
ENDROOT
BRANCH   1   8
HETATM    8  C   UNL     1     -44.351  57.273 -53.616  1.00  0.00     0.138 C 
BRANCH   8   9
HETATM    9  C   UNL     1     -44.693  58.623 -53.022  1.00  0.00     0.224 C 
HETATM   10  N   UNL     1     -44.349  58.740 -51.686  1.00  0.00    -0.327 N 
HETATM   11  H   UNL     1     -44.006  57.915 -51.213  1.00  0.00     0.169 HD
HETATM   12  O   UNL     1     -45.195  59.495 -53.720  1.00  0.00    -0.273 OA
BRANCH  10  13
HETATM   13  C   UNL     1     -44.353  59.922 -50.908  1.00  0.00     0.034 A 
HETATM   14  C   UNL     1     -43.308  60.847 -50.883  1.00  0.00     0.030 A 
HETATM   15  C   UNL     1     -43.363  61.973 -50.048  1.00  0.00     0.020 A 
HETATM   16  C   UNL     1     -44.474  62.190 -49.226  1.00  0.00     0.039 A 
HETATM   17  C   UNL     1     -45.529  61.271 -49.255  1.00  0.00     0.020 A 
HETATM   18  C   UNL     1     -45.467  60.146 -50.087  1.00  0.00     0.030 A 
BRANCH  16  19
HETATM   19  C   UNL     1     -44.586  63.368 -48.322  1.00  0.00     0.293 C 
HETATM   20  O   UNL     1     -44.457  64.520 -48.705  1.00  0.00    -0.259 OA
BRANCH  19  21
HETATM   21  O   UNL     1     -44.861  62.973 -47.054  1.00  0.00    -0.318 OA
BRANCH  21  22
HETATM   22  C   UNL     1     -45.967  63.631 -46.420  1.00  0.00     0.174 C 
HETATM   23  C   UNL     1     -47.067  62.638 -46.092  1.00  0.00     0.034 C 
ENDBRANCH  21  22
ENDBRANCH  19  21
ENDBRANCH  16  19
ENDBRANCH  10  13
ENDBRANCH   8   9
ENDBRANCH   1   8
BRANCH   2  24
HETATM   24  C   UNL     1     -43.915  56.853 -56.697  1.00  0.00     0.168 C 
BRANCH  24  25
HETATM   25  C   UNL     1     -43.178  57.219 -57.961  1.00  0.00    -0.023 A 
HETATM   26  C   UNL     1     -43.035  56.260 -58.962  1.00  0.00     0.125 A 
HETATM   27  N   UNL     1     -42.401  56.465 -60.139  1.00  0.00    -0.273 NA
HETATM   28  C   UNL     1     -41.866  57.688 -60.333  1.00  0.00     0.116 A 
HETATM   29  C   UNL     1     -41.964  58.720 -59.417  1.00  0.00     0.020 A 
HETATM   30  C   UNL     1     -42.644  58.485 -58.223  1.00  0.00     0.012 A 
ENDBRANCH  24  25
ENDBRANCH   2  24
BRANCH   5  31
HETATM   31  C   UNL     1     -41.187  54.067 -53.635  1.00  0.00     0.047 A 
HETATM   32  C   UNL     1     -41.137  53.773 -52.260  1.00  0.00     0.037 A 
HETATM   33  C   UNL     1     -40.430  52.668 -51.750  1.00  0.00    -0.060 A 
HETATM   34  C   UNL     1     -40.377  52.411 -50.272  1.00  0.00     0.048 C 
HETATM   35  C   UNL     1     -39.737  51.838 -52.629  1.00  0.00     0.007 A 
HETATM   36  C   UNL     1     -39.762  52.105 -53.993  1.00  0.00     0.003 A 
HETATM   37  C   UNL     1     -40.474  53.205 -54.486  1.00  0.00     0.030 A 
ENDBRANCH   5  31
TORSDOF 9
ENDMDL
MODEL 6
REMARK VINA RESULT:      -8.5      2.330      9.703
REMARK  9 active torsions:
REMARK  status: ('A' for Active; 'I' for Inactive)
REMARK    1  A    between atoms: C_2  and  O_3 
REMARK    2  A    between atoms: O_3  and  C_4 
REMARK    3  A    between atoms: C_4  and  C_5 
REMARK    4  A    between atoms: C_8  and  N_9 
REMARK       I    between atoms: N_9  and  C_10 
REMARK    5  A    between atoms: C_10  and  C_11 
REMARK    6  A    between atoms: C_11  and  C_12 
REMARK    7  A    between atoms: N_13  and  C_14 
REMARK    8  A    between atoms: C_14  and  C_15 
REMARK    9  A    between atoms: N_23  and  C_24 
ROOT
HETATM    1  C   UNL     1     -44.126  57.782 -58.136  1.00  0.00     0.191 C 
HETATM    2  N   UNL     1     -45.281  58.171 -57.350  1.00  0.00    -0.315 N 
HETATM    3  C   UNL     1     -46.455  57.976 -58.080  1.00  0.00     0.333 C 
HETATM    4  O   UNL     1     -47.549  57.885 -57.545  1.00  0.00    -0.246 OA
HETATM    5  N   UNL     1     -46.120  57.926 -59.420  1.00  0.00    -0.232 N 
HETATM    6  C   UNL     1     -44.743  57.950 -59.527  1.00  0.00     0.256 C 
HETATM    7  O   UNL     1     -44.046  58.033 -60.531  1.00  0.00    -0.270 OA
ENDROOT
BRANCH   1   8
HETATM    8  C   UNL     1     -43.756  56.321 -57.888  1.00  0.00     0.138 C 
BRANCH   8   9
HETATM    9  C   UNL     1     -42.834  56.154 -56.700  1.00  0.00     0.224 C 
HETATM   10  N   UNL     1     -43.009  54.955 -56.029  1.00  0.00    -0.327 N 
HETATM   11  H   UNL     1     -43.777  54.362 -56.317  1.00  0.00     0.169 HD
HETATM   12  O   UNL     1     -42.011  57.020 -56.431  1.00  0.00    -0.273 OA
BRANCH  10  13
HETATM   13  C   UNL     1     -42.180  54.418 -55.016  1.00  0.00     0.034 A 
HETATM   14  C   UNL     1     -40.857  54.020 -55.216  1.00  0.00     0.030 A 
HETATM   15  C   UNL     1     -40.112  53.450 -54.173  1.00  0.00     0.020 A 
HETATM   16  C   UNL     1     -40.685  53.276 -52.908  1.00  0.00     0.039 A 
HETATM   17  C   UNL     1     -42.007  53.683 -52.701  1.00  0.00     0.020 A 
HETATM   18  C   UNL     1     -42.748  54.247 -53.746  1.00  0.00     0.030 A 
BRANCH  16  19
HETATM   19  C   UNL     1     -39.940  52.678 -51.765  1.00  0.00     0.293 C 
HETATM   20  O   UNL     1     -40.096  53.032 -50.607  1.00  0.00    -0.259 OA
BRANCH  19  21
HETATM   21  O   UNL     1     -39.104  51.703 -52.197  1.00  0.00    -0.318 OA
BRANCH  21  22
HETATM   22  C   UNL     1     -39.634  50.369 -52.175  1.00  0.00     0.174 C 
HETATM   23  C   UNL     1     -39.675  49.784 -53.575  1.00  0.00     0.034 C 
ENDBRANCH  21  22
ENDBRANCH  19  21
ENDBRANCH  16  19
ENDBRANCH  10  13
ENDBRANCH   8   9
ENDBRANCH   1   8
BRANCH   2  24
HETATM   24  C   UNL     1     -45.254  58.231 -55.897  1.00  0.00     0.168 C 
BRANCH  24  25
HETATM   25  C   UNL     1     -44.386  59.313 -55.307  1.00  0.00    -0.023 A 
HETATM   26  C   UNL     1     -43.757  59.084 -54.084  1.00  0.00     0.125 A 
HETATM   27  N   UNL     1     -42.952  59.971 -53.454  1.00  0.00    -0.273 NA
HETATM   28  C   UNL     1     -42.769  61.161 -54.064  1.00  0.00     0.116 A 
HETATM   29  C   UNL     1     -43.330  61.489 -55.285  1.00  0.00     0.020 A 
HETATM   30  C   UNL     1     -44.135  60.545 -55.921  1.00  0.00     0.012 A 
ENDBRANCH  24  25
ENDBRANCH   2  24
BRANCH   5  31
HETATM   31  C   UNL     1     -47.052  57.926 -60.507  1.00  0.00     0.047 A 
HETATM   32  C   UNL     1     -47.630  59.116 -60.987  1.00  0.00     0.037 A 
HETATM   33  C   UNL     1     -48.525  59.135 -62.074  1.00  0.00    -0.060 A 
HETATM   34  C   UNL     1     -49.143  60.424 -62.532  1.00  0.00     0.048 C 
HETATM   35  C   UNL     1     -48.869  57.935 -62.693  1.00  0.00     0.007 A 
HETATM   36  C   UNL     1     -48.319  56.743 -62.239  1.00  0.00     0.003 A 
HETATM   37  C   UNL     1     -47.427  56.739 -61.160  1.00  0.00     0.030 A 
ENDBRANCH   5  31
TORSDOF 9
ENDMDL
MODEL 7
REMARK VINA RESULT:      -8.5      3.821      9.773
REMARK  9 active torsions:
REMARK  status: ('A' for Active; 'I' for Inactive)
REMARK    1  A    between atoms: C_2  and  O_3 
REMARK    2  A    between atoms: O_3  and  C_4 
REMARK    3  A    between atoms: C_4  and  C_5 
REMARK    4  A    between atoms: C_8  and  N_9 
REMARK       I    between atoms: N_9  and  C_10 
REMARK    5  A    between atoms: C_10  and  C_11 
REMARK    6  A    between atoms: C_11  and  C_12 
REMARK    7  A    between atoms: N_13  and  C_14 
REMARK    8  A    between atoms: C_14  and  C_15 
REMARK    9  A    between atoms: N_23  and  C_24 
ROOT
HETATM    1  C   UNL     1     -42.030  59.605 -57.042  1.00  0.00     0.191 C 
HETATM    2  N   UNL     1     -42.546  60.583 -57.982  1.00  0.00    -0.315 N 
HETATM    3  C   UNL     1     -43.747  60.139 -58.537  1.00  0.00     0.333 C 
HETATM    4  O   UNL     1     -44.544  60.900 -59.063  1.00  0.00    -0.246 OA
HETATM    5  N   UNL     1     -43.810  58.767 -58.375  1.00  0.00    -0.232 N 
HETATM    6  C   UNL     1     -42.732  58.368 -57.608  1.00  0.00     0.256 C 
HETATM    7  O   UNL     1     -42.359  57.236 -57.328  1.00  0.00    -0.270 OA
ENDROOT
BRANCH   1   8
HETATM    8  C   UNL     1     -42.518  59.894 -55.624  1.00  0.00     0.138 C 
BRANCH   8   9
HETATM    9  C   UNL     1     -41.789  59.069 -54.584  1.00  0.00     0.224 C 
HETATM   10  N   UNL     1     -42.321  57.803 -54.411  1.00  0.00    -0.327 N 
HETATM   11  H   UNL     1     -43.179  57.582 -54.899  1.00  0.00     0.169 HD
HETATM   12  O   UNL     1     -40.807  59.527 -54.012  1.00  0.00    -0.273 OA
BRANCH  10  13
HETATM   13  C   UNL     1     -41.756  56.737 -53.672  1.00  0.00     0.034 A 
HETATM   14  C   UNL     1     -41.093  55.652 -54.247  1.00  0.00     0.030 A 
HETATM   15  C   UNL     1     -40.600  54.606 -53.451  1.00  0.00     0.020 A 
HETATM   16  C   UNL     1     -40.764  54.637 -52.062  1.00  0.00     0.039 A 
HETATM   17  C   UNL     1     -41.419  55.729 -51.481  1.00  0.00     0.020 A 
HETATM   18  C   UNL     1     -41.913  56.767 -52.280  1.00  0.00     0.030 A 
BRANCH  16  19
HETATM   19  C   UNL     1     -40.261  53.557 -51.170  1.00  0.00     0.293 C 
HETATM   20  O   UNL     1     -39.654  53.773 -50.133  1.00  0.00    -0.259 OA
BRANCH  19  21
HETATM   21  O   UNL     1     -40.587  52.337 -51.665  1.00  0.00    -0.318 OA
BRANCH  21  22
HETATM   22  C   UNL     1     -39.483  51.474 -51.979  1.00  0.00     0.174 C 
HETATM   23  C   UNL     1     -39.504  51.087 -53.446  1.00  0.00     0.034 C 
ENDBRANCH  21  22
ENDBRANCH  19  21
ENDBRANCH  16  19
ENDBRANCH  10  13
ENDBRANCH   8   9
ENDBRANCH   1   8
BRANCH   2  24
HETATM   24  C   UNL     1     -42.165  61.986 -57.938  1.00  0.00     0.168 C 
BRANCH  24  25
HETATM   25  C   UNL     1     -41.173  62.424 -58.985  1.00  0.00    -0.023 A 
HETATM   26  C   UNL     1     -41.440  62.152 -60.326  1.00  0.00     0.125 A 
HETATM   27  N   UNL     1     -40.633  62.495 -61.357  1.00  0.00    -0.273 NA
HETATM   28  C   UNL     1     -39.488  63.135 -61.041  1.00  0.00     0.116 A 
HETATM   29  C   UNL     1     -39.131  63.471 -59.748  1.00  0.00     0.020 A 
HETATM   30  C   UNL     1     -39.994  63.125 -58.710  1.00  0.00     0.012 A 
ENDBRANCH  24  25
ENDBRANCH   2  24
BRANCH   5  31
HETATM   31  C   UNL     1     -44.789  57.907 -58.969  1.00  0.00     0.047 A 
HETATM   32  C   UNL     1     -44.429  56.884 -59.867  1.00  0.00     0.037 A 
HETATM   33  C   UNL     1     -45.377  56.013 -60.435  1.00  0.00    -0.060 A 
HETATM   34  C   UNL     1     -44.952  54.956 -61.413  1.00  0.00     0.048 C 
HETATM   35  C   UNL     1     -46.724  56.170 -60.117  1.00  0.00     0.007 A 
HETATM   36  C   UNL     1     -47.111  57.174 -59.238  1.00  0.00     0.003 A 
HETATM   37  C   UNL     1     -46.157  58.031 -58.676  1.00  0.00     0.030 A 
ENDBRANCH   5  31
TORSDOF 9
ENDMDL
MODEL 8
REMARK VINA RESULT:      -8.4      4.978      6.817
REMARK  9 active torsions:
REMARK  status: ('A' for Active; 'I' for Inactive)
REMARK    1  A    between atoms: C_2  and  O_3 
REMARK    2  A    between atoms: O_3  and  C_4 
REMARK    3  A    between atoms: C_4  and  C_5 
REMARK    4  A    between atoms: C_8  and  N_9 
REMARK       I    between atoms: N_9  and  C_10 
REMARK    5  A    between atoms: C_10  and  C_11 
REMARK    6  A    between atoms: C_11  and  C_12 
REMARK    7  A    between atoms: N_13  and  C_14 
REMARK    8  A    between atoms: C_14  and  C_15 
REMARK    9  A    between atoms: N_23  and  C_24 
ROOT
HETATM    1  C   UNL     1     -42.527  55.602 -52.809  1.00  0.00     0.191 C 
HETATM    2  N   UNL     1     -41.279  55.938 -53.467  1.00  0.00    -0.315 N 
HETATM    3  C   UNL     1     -40.638  54.782 -53.917  1.00  0.00     0.333 C 
HETATM    4  O   UNL     1     -39.782  54.806 -54.788  1.00  0.00    -0.246 OA
HETATM    5  N   UNL     1     -41.144  53.711 -53.205  1.00  0.00    -0.232 N 
HETATM    6  C   UNL     1     -42.185  54.162 -52.416  1.00  0.00     0.256 C 
HETATM    7  O   UNL     1     -42.824  53.563 -51.561  1.00  0.00    -0.270 OA
ENDROOT
BRANCH   1   8
HETATM    8  C   UNL     1     -43.693  55.625 -53.795  1.00  0.00     0.138 C 
BRANCH   8   9
HETATM    9  C   UNL     1     -44.433  56.945 -53.782  1.00  0.00     0.224 C 
HETATM   10  N   UNL     1     -44.635  57.452 -52.510  1.00  0.00    -0.327 N 
HETATM   11  H   UNL     1     -44.373  56.872 -51.724  1.00  0.00     0.169 HD
HETATM   12  O   UNL     1     -44.765  57.477 -54.835  1.00  0.00    -0.273 OA
BRANCH  10  13
HETATM   13  C   UNL     1     -45.110  58.742 -52.174  1.00  0.00     0.034 A 
HETATM   14  C   UNL     1     -45.318  59.184 -50.867  1.00  0.00     0.030 A 
HETATM   15  C   UNL     1     -45.837  60.463 -50.614  1.00  0.00     0.020 A 
HETATM   16  C   UNL     1     -46.152  61.321 -51.673  1.00  0.00     0.039 A 
HETATM   17  C   UNL     1     -45.934  60.886 -52.985  1.00  0.00     0.020 A 
HETATM   18  C   UNL     1     -45.421  59.607 -53.233  1.00  0.00     0.030 A 
BRANCH  16  19
HETATM   19  C   UNL     1     -46.704  62.688 -51.463  1.00  0.00     0.293 C 
HETATM   20  O   UNL     1     -47.773  62.900 -50.913  1.00  0.00    -0.259 OA
BRANCH  19  21
HETATM   21  O   UNL     1     -45.853  63.627 -51.946  1.00  0.00    -0.318 OA
BRANCH  21  22
HETATM   22  C   UNL     1     -44.615  63.775 -51.234  1.00  0.00     0.174 C 
HETATM   23  C   UNL     1     -44.849  64.412 -49.876  1.00  0.00     0.034 C 
ENDBRANCH  21  22
ENDBRANCH  19  21
ENDBRANCH  16  19
ENDBRANCH  10  13
ENDBRANCH   8   9
ENDBRANCH   1   8
BRANCH   2  24
HETATM   24  C   UNL     1     -41.020  57.255 -54.029  1.00  0.00     0.168 C 
BRANCH  24  25
HETATM   25  C   UNL     1     -41.341  58.421 -53.129  1.00  0.00    -0.023 A 
HETATM   26  C   UNL     1     -41.762  59.621 -53.701  1.00  0.00     0.125 A 
HETATM   27  N   UNL     1     -42.083  60.735 -53.003  1.00  0.00    -0.273 NA
HETATM   28  C   UNL     1     -41.969  60.662 -51.661  1.00  0.00     0.116 A 
HETATM   29  C   UNL     1     -41.579  59.518 -50.987  1.00  0.00     0.020 A 
HETATM   30  C   UNL     1     -41.278  58.379 -51.732  1.00  0.00     0.012 A 
ENDBRANCH  24  25
ENDBRANCH   2  24
BRANCH   5  31
HETATM   31  C   UNL     1     -40.622  52.378 -53.231  1.00  0.00     0.047 A 
HETATM   32  C   UNL     1     -40.173  51.735 -52.061  1.00  0.00     0.037 A 
HETATM   33  C   UNL     1     -39.684  50.415 -52.067  1.00  0.00    -0.060 A 
HETATM   34  C   UNL     1     -39.186  49.780 -50.802  1.00  0.00     0.048 C 
HETATM   35  C   UNL     1     -39.623  49.716 -53.271  1.00  0.00     0.007 A 
HETATM   36  C   UNL     1     -40.053  50.326 -54.444  1.00  0.00     0.003 A 
HETATM   37  C   UNL     1     -40.542  51.638 -54.423  1.00  0.00     0.030 A 
ENDBRANCH   5  31
TORSDOF 9
ENDMDL
MODEL 9
REMARK VINA RESULT:      -8.3      5.039     10.291
REMARK  9 active torsions:
REMARK  status: ('A' for Active; 'I' for Inactive)
REMARK    1  A    between atoms: C_2  and  O_3 
REMARK    2  A    between atoms: O_3  and  C_4 
REMARK    3  A    between atoms: C_4  and  C_5 
REMARK    4  A    between atoms: C_8  and  N_9 
REMARK       I    between atoms: N_9  and  C_10 
REMARK    5  A    between atoms: C_10  and  C_11 
REMARK    6  A    between atoms: C_11  and  C_12 
REMARK    7  A    between atoms: N_13  and  C_14 
REMARK    8  A    between atoms: C_14  and  C_15 
REMARK    9  A    between atoms: N_23  and  C_24 
ROOT
HETATM    1  C   UNL     1     -43.483  58.987 -51.696  1.00  0.00     0.191 C 
HETATM    2  N   UNL     1     -43.238  60.014 -52.692  1.00  0.00    -0.315 N 
HETATM    3  C   UNL     1     -43.871  61.204 -52.330  1.00  0.00     0.333 C 
HETATM    4  O   UNL     1     -43.540  62.286 -52.791  1.00  0.00    -0.246 OA
HETATM    5  N   UNL     1     -44.869  60.898 -51.425  1.00  0.00    -0.232 N 
HETATM    6  C   UNL     1     -44.780  59.555 -51.113  1.00  0.00     0.256 C 
HETATM    7  O   UNL     1     -45.536  58.864 -50.442  1.00  0.00    -0.270 OA
ENDROOT
BRANCH   1   8
HETATM    8  C   UNL     1     -42.382  58.974 -50.637  1.00  0.00     0.138 C 
BRANCH   8   9
HETATM    9  C   UNL     1     -41.412  57.828 -50.829  1.00  0.00     0.224 C 
HETATM   10  N   UNL     1     -41.944  56.593 -50.499  1.00  0.00    -0.327 N 
HETATM   11  H   UNL     1     -42.864  56.573 -50.079  1.00  0.00     0.169 HD
HETATM   12  O   UNL     1     -40.288  58.038 -51.268  1.00  0.00    -0.273 OA
BRANCH  10  13
HETATM   13  C   UNL     1     -41.371  55.325 -50.753  1.00  0.00     0.034 A 
HETATM   14  C   UNL     1     -40.743  54.541 -49.783  1.00  0.00     0.030 A 
HETATM   15  C   UNL     1     -40.154  53.313 -50.121  1.00  0.00     0.020 A 
HETATM   16  C   UNL     1     -40.191  52.851 -51.441  1.00  0.00     0.039 A 
HETATM   17  C   UNL     1     -40.829  53.628 -52.414  1.00  0.00     0.020 A 
HETATM   18  C   UNL     1     -41.411  54.855 -52.073  1.00  0.00     0.030 A 
BRANCH  16  19
HETATM   19  C   UNL     1     -39.583  51.556 -51.855  1.00  0.00     0.293 C 
HETATM   20  O   UNL     1     -39.483  50.595 -51.108  1.00  0.00    -0.259 OA
BRANCH  19  21
HETATM   21  O   UNL     1     -39.188  51.606 -53.151  1.00  0.00    -0.318 OA
BRANCH  21  22
HETATM   22  C   UNL     1     -39.377  50.401 -53.909  1.00  0.00     0.174 C 
HETATM   23  C   UNL     1     -40.811  50.289 -54.391  1.00  0.00     0.034 C 
ENDBRANCH  21  22
ENDBRANCH  19  21
ENDBRANCH  16  19
ENDBRANCH  10  13
ENDBRANCH   8   9
ENDBRANCH   1   8
BRANCH   2  24
HETATM   24  C   UNL     1     -42.105  59.965 -53.603  1.00  0.00     0.168 C 
BRANCH  24  25
HETATM   25  C   UNL     1     -42.216  58.964 -54.726  1.00  0.00    -0.023 A 
HETATM   26  C   UNL     1     -42.479  59.422 -56.016  1.00  0.00     0.125 A 
HETATM   27  N   UNL     1     -42.597  58.627 -57.105  1.00  0.00    -0.273 NA
HETATM   28  C   UNL     1     -42.459  57.301 -56.904  1.00  0.00     0.116 A 
HETATM   29  C   UNL     1     -42.179  56.739 -55.671  1.00  0.00     0.020 A 
HETATM   30  C   UNL     1     -42.039  57.585 -54.572  1.00  0.00     0.012 A 
ENDBRANCH  24  25
ENDBRANCH   2  24
BRANCH   5  31
HETATM   31  C   UNL     1     -45.869  61.809 -50.954  1.00  0.00     0.047 A 
HETATM   32  C   UNL     1     -46.911  62.260 -51.786  1.00  0.00     0.037 A 
HETATM   33  C   UNL     1     -47.917  63.132 -51.328  1.00  0.00    -0.060 A 
HETATM   34  C   UNL     1     -48.991  63.613 -52.259  1.00  0.00     0.048 C 
HETATM   35  C   UNL     1     -47.879  63.584 -50.011  1.00  0.00     0.007 A 
HETATM   36  C   UNL     1     -46.859  63.161 -49.167  1.00  0.00     0.003 A 
HETATM   37  C   UNL     1     -45.868  62.289 -49.634  1.00  0.00     0.030 A 
ENDBRANCH   5  31
TORSDOF 9
ENDMDL
MODEL 10
REMARK VINA RESULT:      -8.3     17.525     22.332
REMARK  9 active torsions:
REMARK  status: ('A' for Active; 'I' for Inactive)
REMARK    1  A    between atoms: C_2  and  O_3 
REMARK    2  A    between atoms: O_3  and  C_4 
REMARK    3  A    between atoms: C_4  and  C_5 
REMARK    4  A    between atoms: C_8  and  N_9 
REMARK       I    between atoms: N_9  and  C_10 
REMARK    5  A    between atoms: C_10  and  C_11 
REMARK    6  A    between atoms: C_11  and  C_12 
REMARK    7  A    between atoms: N_13  and  C_14 
REMARK    8  A    between atoms: C_14  and  C_15 
REMARK    9  A    between atoms: N_23  and  C_24 
ROOT
HETATM    1  C   UNL     1     -34.927  40.016 -53.973  1.00  0.00     0.191 C 
HETATM    2  N   UNL     1     -33.754  40.145 -54.817  1.00  0.00    -0.315 N 
HETATM    3  C   UNL     1     -34.110  40.634 -56.075  1.00  0.00     0.333 C 
HETATM    4  O   UNL     1     -33.301  41.156 -56.826  1.00  0.00    -0.246 OA
HETATM    5  N   UNL     1     -35.460  40.399 -56.257  1.00  0.00    -0.232 N 
HETATM    6  C   UNL     1     -35.979  39.896 -55.079  1.00  0.00     0.256 C 
HETATM    7  O   UNL     1     -37.099  39.457 -54.852  1.00  0.00    -0.270 OA
ENDROOT
BRANCH   1   8
HETATM    8  C   UNL     1     -35.157  41.284 -53.154  1.00  0.00     0.138 C 
BRANCH   8   9
HETATM    9  C   UNL     1     -34.683  41.139 -51.723  1.00  0.00     0.224 C 
HETATM   10  N   UNL     1     -34.289  39.852 -51.400  1.00  0.00    -0.327 N 
HETATM   11  H   UNL     1     -34.440  39.126 -52.088  1.00  0.00     0.169 HD
HETATM   12  O   UNL     1     -34.647  42.116 -50.984  1.00  0.00    -0.273 OA
BRANCH  10  13
HETATM   13  C   UNL     1     -33.619  39.438 -50.224  1.00  0.00     0.034 A 
HETATM   14  C   UNL     1     -34.191  38.628 -49.241  1.00  0.00     0.030 A 
HETATM   15  C   UNL     1     -33.480  38.298 -48.078  1.00  0.00     0.020 A 
HETATM   16  C   UNL     1     -32.178  38.775 -47.885  1.00  0.00     0.039 A 
HETATM   17  C   UNL     1     -31.598  39.578 -48.873  1.00  0.00     0.020 A 
HETATM   18  C   UNL     1     -32.313  39.908 -50.031  1.00  0.00     0.030 A 
BRANCH  16  19
HETATM   19  C   UNL     1     -31.378  38.455 -46.671  1.00  0.00     0.293 C 
HETATM   20  O   UNL     1     -31.874  38.057 -45.629  1.00  0.00    -0.259 OA
BRANCH  19  21
HETATM   21  O   UNL     1     -30.057  38.654 -46.903  1.00  0.00    -0.318 OA
BRANCH  21  22
HETATM   22  C   UNL     1     -29.360  39.434 -45.920  1.00  0.00     0.174 C 
HETATM   23  C   UNL     1     -29.734  40.900 -46.032  1.00  0.00     0.034 C 
ENDBRANCH  21  22
ENDBRANCH  19  21
ENDBRANCH  16  19
ENDBRANCH  10  13
ENDBRANCH   8   9
ENDBRANCH   1   8
BRANCH   2  24
HETATM   24  C   UNL     1     -32.409  40.260 -54.275  1.00  0.00     0.168 C 
BRANCH  24  25
HETATM   25  C   UNL     1     -31.496  39.092 -54.547  1.00  0.00    -0.023 A 
HETATM   26  C   UNL     1     -31.534  37.991 -53.693  1.00  0.00     0.125 A 
HETATM   27  N   UNL     1     -30.770  36.882 -53.831  1.00  0.00    -0.273 NA
HETATM   28  C   UNL     1     -29.908  36.868 -54.868  1.00  0.00     0.116 A 
HETATM   29  C   UNL     1     -29.798  37.897 -55.787  1.00  0.00     0.020 A 
HETATM   30  C   UNL     1     -30.616  39.015 -55.632  1.00  0.00     0.012 A 
ENDBRANCH  24  25
ENDBRANCH   2  24
BRANCH   5  31
HETATM   31  C   UNL     1     -36.175  40.579 -57.485  1.00  0.00     0.047 A 
HETATM   32  C   UNL     1     -36.724  39.491 -58.190  1.00  0.00     0.037 A 
HETATM   33  C   UNL     1     -37.453  39.657 -59.382  1.00  0.00    -0.060 A 
HETATM   34  C   UNL     1     -37.993  38.465 -60.117  1.00  0.00     0.048 C 
HETATM   35  C   UNL     1     -37.630  40.937 -59.901  1.00  0.00     0.007 A 
HETATM   36  C   UNL     1     -37.095  42.031 -59.231  1.00  0.00     0.003 A 
HETATM   37  C   UNL     1     -36.376  41.853 -58.043  1.00  0.00     0.030 A 
ENDBRANCH   5  31
TORSDOF 9
ENDMDL
