MODEL 1
REMARK VINA RESULT:      -8.9      0.000      0.000
REMARK  3 active torsions:
REMARK  status: ('A' for Active; 'I' for Inactive)
REMARK    1  A    between atoms: C_6  and  N_7 
REMARK       I    between atoms: N_7  and  C_8 
REMARK    2  A    between atoms: C_8  and  C_9 
REMARK    3  A    between atoms: C_9  and  C_10 
ROOT
HETATM    1  C   UNL     1     -43.075  56.051 -56.456  1.00  0.00     0.286 C 
HETATM    2  N   UNL     1     -42.360  55.765 -57.783  1.00  0.00    -0.056 N 
HETATM    3  H   UNL     1     -41.563  56.436 -57.844  1.00  0.00     0.278 HD
HETATM    4  H   UNL     1     -41.919  54.837 -57.762  1.00  0.00     0.278 HD
HETATM    5  C   UNL     1     -43.162  55.960 -59.035  1.00  0.00     0.209 C 
HETATM    6  C   UNL     1     -43.890  57.323 -58.979  1.00  0.00     0.115 C 
HETATM    7  N   UNL     1     -44.665  57.479 -57.754  1.00  0.00    -0.353 N 
HETATM    8  C   UNL     1     -44.201  57.104 -56.523  1.00  0.00     0.249 C 
HETATM    9  O   UNL     1     -44.716  57.562 -55.506  1.00  0.00    -0.271 OA
HETATM   10  C   UNL     1     -44.115  54.784 -59.238  1.00  0.00     0.035 C 
HETATM   11  C   UNL     1     -44.974  54.999 -60.484  1.00  0.00     0.002 C 
HETATM   12  C   UNL     1     -45.725  56.329 -60.433  1.00  0.00     0.002 C 
HETATM   13  C   UNL     1     -44.780  57.511 -60.211  1.00  0.00     0.027 C 
HETATM   14  H   UNL     1     -45.346  58.235 -57.704  1.00  0.00     0.163 HD
ENDROOT
BRANCH   1  15
HETATM   15  C   UNL     1     -42.057  56.485 -55.387  1.00  0.00     0.146 C 
BRANCH  15  16
HETATM   16  C   UNL     1     -42.010  55.375 -54.364  1.00  0.00     0.224 C 
HETATM   17  N   UNL     1     -40.766  54.859 -54.111  1.00  0.00    -0.327 N 
HETATM   18  H   UNL     1     -39.951  55.382 -54.421  1.00  0.00     0.169 HD
HETATM   19  O   UNL     1     -43.093  54.955 -53.949  1.00  0.00    -0.273 OA
BRANCH  17  20
HETATM   20  C   UNL     1     -40.481  53.618 -53.498  1.00  0.00     0.035 A 
HETATM   21  C   UNL     1     -40.263  52.432 -54.205  1.00  0.00     0.037 A 
HETATM   22  C   UNL     1     -39.896  51.243 -53.548  1.00  0.00    -0.054 A 
HETATM   23  C   UNL     1     -39.794  51.233 -52.145  1.00  0.00    -0.056 A 
HETATM   24  C   UNL     1     -39.648  50.003 -54.364  1.00  0.00     0.049 C 
HETATM   25  C   UNL     1     -39.404  49.992 -51.390  1.00  0.00     0.049 C 
HETATM   26  C   UNL     1     -40.017  52.423 -51.439  1.00  0.00     0.009 A 
HETATM   27  C   UNL     1     -40.351  53.603 -52.108  1.00  0.00     0.030 A 
ENDBRANCH  17  20
ENDBRANCH  15  16
ENDBRANCH   1  15
TORSDOF 3
ENDMDL
MODEL 2
REMARK VINA RESULT:      -8.9      2.477      3.739
REMARK  3 active torsions:
REMARK  status: ('A' for Active; 'I' for Inactive)
REMARK    1  A    between atoms: C_6  and  N_7 
REMARK       I    between atoms: N_7  and  C_8 
REMARK    2  A    between atoms: C_8  and  C_9 
REMARK    3  A    between atoms: C_9  and  C_10 
ROOT
HETATM    1  C   UNL     1     -42.982  57.231 -52.312  1.00  0.00     0.286 C 
HETATM    2  N   UNL     1     -44.207  56.516 -52.898  1.00  0.00    -0.056 N 
HETATM    3  H   UNL     1     -44.125  55.512 -52.628  1.00  0.00     0.278 HD
HETATM    4  H   UNL     1     -45.067  56.841 -52.441  1.00  0.00     0.278 HD
HETATM    5  C   UNL     1     -44.344  56.533 -54.392  1.00  0.00     0.209 C 
HETATM    6  C   UNL     1     -42.999  56.138 -55.043  1.00  0.00     0.115 C 
HETATM    7  N   UNL     1     -41.892  56.947 -54.545  1.00  0.00    -0.353 N 
HETATM    8  C   UNL     1     -41.739  57.272 -53.225  1.00  0.00     0.249 C 
HETATM    9  O   UNL     1     -40.644  57.638 -52.805  1.00  0.00    -0.271 OA
HETATM   10  C   UNL     1     -44.854  57.895 -54.858  1.00  0.00     0.035 C 
HETATM   11  C   UNL     1     -44.947  57.939 -56.383  1.00  0.00     0.002 C 
HETATM   12  C   UNL     1     -43.617  57.580 -57.044  1.00  0.00     0.002 C 
HETATM   13  C   UNL     1     -43.090  56.225 -56.569  1.00  0.00     0.027 C 
HETATM   14  H   UNL     1     -41.007  56.921 -55.049  1.00  0.00     0.163 HD
ENDROOT
BRANCH   1  15
HETATM   15  C   UNL     1     -42.588  56.591 -50.969  1.00  0.00     0.146 C 
BRANCH  15  16
HETATM   16  C   UNL     1     -42.336  55.128 -51.249  1.00  0.00     0.224 C 
HETATM   17  N   UNL     1     -41.039  54.801 -51.547  1.00  0.00    -0.327 N 
HETATM   18  H   UNL     1     -40.308  55.474 -51.336  1.00  0.00     0.169 HD
HETATM   19  O   UNL     1     -43.326  54.394 -51.307  1.00  0.00    -0.273 OA
BRANCH  17  20
HETATM   20  C   UNL     1     -40.597  53.619 -52.184  1.00  0.00     0.035 A 
HETATM   21  C   UNL     1     -40.160  52.482 -51.499  1.00  0.00     0.037 A 
HETATM   22  C   UNL     1     -39.813  51.302 -52.182  1.00  0.00    -0.054 A 
HETATM   23  C   UNL     1     -39.861  51.278 -53.587  1.00  0.00    -0.056 A 
HETATM   24  C   UNL     1     -39.375  50.100 -51.389  1.00  0.00     0.049 C 
HETATM   25  C   UNL     1     -39.504  50.044 -54.370  1.00  0.00     0.049 C 
HETATM   26  C   UNL     1     -40.297  52.421 -54.272  1.00  0.00     0.009 A 
HETATM   27  C   UNL     1     -40.666  53.577 -53.578  1.00  0.00     0.030 A 
ENDBRANCH  17  20
ENDBRANCH  15  16
ENDBRANCH   1  15
TORSDOF 3
ENDMDL
MODEL 3
REMARK VINA RESULT:      -8.2      4.620      5.581
REMARK  3 active torsions:
REMARK  status: ('A' for Active; 'I' for Inactive)
REMARK    1  A    between atoms: C_6  and  N_7 
REMARK       I    between atoms: N_7  and  C_8 
REMARK    2  A    between atoms: C_8  and  C_9 
REMARK    3  A    between atoms: C_9  and  C_10 
ROOT
HETATM    1  C   UNL     1     -42.233  56.786 -50.954  1.00  0.00     0.286 C 
HETATM    2  N   UNL     1     -42.002  58.302 -50.902  1.00  0.00    -0.056 N 
HETATM    3  H   UNL     1     -41.977  58.566 -49.893  1.00  0.00     0.278 HD
HETATM    4  H   UNL     1     -41.068  58.537 -51.257  1.00  0.00     0.278 HD
HETATM    5  C   UNL     1     -43.058  59.165 -51.528  1.00  0.00     0.209 C 
HETATM    6  C   UNL     1     -44.454  58.711 -51.046  1.00  0.00     0.115 C 
HETATM    7  N   UNL     1     -44.666  57.283 -51.249  1.00  0.00    -0.353 N 
HETATM    8  C   UNL     1     -43.710  56.341 -50.984  1.00  0.00     0.249 C 
HETATM    9  O   UNL     1     -44.031  55.165 -50.831  1.00  0.00    -0.271 OA
HETATM   10  C   UNL     1     -42.918  59.145 -53.049  1.00  0.00     0.035 C 
HETATM   11  C   UNL     1     -44.021  59.980 -53.699  1.00  0.00     0.002 C 
HETATM   12  C   UNL     1     -45.411  59.527 -53.257  1.00  0.00     0.002 C 
HETATM   13  C   UNL     1     -45.554  59.525 -51.734  1.00  0.00     0.027 C 
HETATM   14  H   UNL     1     -45.613  56.916 -51.166  1.00  0.00     0.163 HD
ENDROOT
BRANCH   1  15
HETATM   15  C   UNL     1     -41.536  56.103 -49.764  1.00  0.00     0.146 C 
BRANCH  15  16
HETATM   16  C   UNL     1     -40.622  55.052 -50.350  1.00  0.00     0.224 C 
HETATM   17  N   UNL     1     -40.960  54.608 -51.600  1.00  0.00    -0.327 N 
HETATM   18  H   UNL     1     -41.625  55.151 -52.145  1.00  0.00     0.169 HD
HETATM   19  O   UNL     1     -39.742  54.605 -49.609  1.00  0.00    -0.273 OA
BRANCH  17  20
HETATM   20  C   UNL     1     -40.517  53.415 -52.217  1.00  0.00     0.035 A 
HETATM   21  C   UNL     1     -40.086  52.289 -51.511  1.00  0.00     0.037 A 
HETATM   22  C   UNL     1     -39.738  51.097 -52.174  1.00  0.00    -0.054 A 
HETATM   23  C   UNL     1     -39.777  51.052 -53.578  1.00  0.00    -0.056 A 
HETATM   24  C   UNL     1     -39.306  49.907 -51.359  1.00  0.00     0.049 C 
HETATM   25  C   UNL     1     -39.418  49.805 -54.340  1.00  0.00     0.049 C 
HETATM   26  C   UNL     1     -40.207  52.184 -54.283  1.00  0.00     0.009 A 
HETATM   27  C   UNL     1     -40.577  53.352 -53.610  1.00  0.00     0.030 A 
ENDBRANCH  17  20
ENDBRANCH  15  16
ENDBRANCH   1  15
TORSDOF 3
ENDMDL
MODEL 4
REMARK VINA RESULT:      -7.9      2.423      3.569
REMARK  3 active torsions:
REMARK  status: ('A' for Active; 'I' for Inactive)
REMARK    1  A    between atoms: C_6  and  N_7 
REMARK       I    between atoms: N_7  and  C_8 
REMARK    2  A    between atoms: C_8  and  C_9 
REMARK    3  A    between atoms: C_9  and  C_10 
ROOT
HETATM    1  C   UNL     1     -43.022  58.144 -52.877  1.00  0.00     0.286 C 
HETATM    2  N   UNL     1     -44.248  57.363 -53.371  1.00  0.00    -0.056 N 
HETATM    3  H   UNL     1     -44.310  56.502 -52.785  1.00  0.00     0.278 HD
HETATM    4  H   UNL     1     -45.112  57.881 -53.167  1.00  0.00     0.278 HD
HETATM    5  C   UNL     1     -44.217  56.893 -54.795  1.00  0.00     0.209 C 
HETATM    6  C   UNL     1     -42.861  56.212 -55.089  1.00  0.00     0.115 C 
HETATM    7  N   UNL     1     -41.732  57.061 -54.725  1.00  0.00    -0.353 N 
HETATM    8  C   UNL     1     -41.689  57.794 -53.571  1.00  0.00     0.249 C 
HETATM    9  O   UNL     1     -40.614  58.201 -53.140  1.00  0.00    -0.271 OA
HETATM   10  C   UNL     1     -44.516  58.057 -55.739  1.00  0.00     0.035 C 
HETATM   11  C   UNL     1     -44.435  57.598 -57.195  1.00  0.00     0.002 C 
HETATM   12  C   UNL     1     -43.089  56.949 -57.512  1.00  0.00     0.002 C 
HETATM   13  C   UNL     1     -42.773  55.795 -56.560  1.00  0.00     0.027 C 
HETATM   14  H   UNL     1     -40.806  56.808 -55.064  1.00  0.00     0.163 HD
ENDROOT
BRANCH   1  15
HETATM   15  C   UNL     1     -42.853  57.960 -51.359  1.00  0.00     0.146 C 
BRANCH  15  16
HETATM   16  C   UNL     1     -42.698  56.476 -51.122  1.00  0.00     0.224 C 
HETATM   17  N   UNL     1     -41.409  56.014 -51.108  1.00  0.00    -0.327 N 
HETATM   18  H   UNL     1     -40.653  56.686 -51.016  1.00  0.00     0.169 HD
HETATM   19  O   UNL     1     -43.735  55.807 -51.089  1.00  0.00    -0.273 OA
BRANCH  17  20
HETATM   20  C   UNL     1     -40.997  54.670 -51.267  1.00  0.00     0.035 A 
HETATM   21  C   UNL     1     -40.767  54.068 -52.507  1.00  0.00     0.037 A 
HETATM   22  C   UNL     1     -40.274  52.754 -52.604  1.00  0.00    -0.054 A 
HETATM   23  C   UNL     1     -40.053  52.011 -51.431  1.00  0.00    -0.056 A 
HETATM   24  C   UNL     1     -40.020  52.167 -53.967  1.00  0.00     0.049 C 
HETATM   25  C   UNL     1     -39.526  50.603 -51.474  1.00  0.00     0.049 C 
HETATM   26  C   UNL     1     -40.288  52.617 -50.189  1.00  0.00     0.009 A 
HETATM   27  C   UNL     1     -40.750  53.934 -50.107  1.00  0.00     0.030 A 
ENDBRANCH  17  20
ENDBRANCH  15  16
ENDBRANCH   1  15
TORSDOF 3
ENDMDL
MODEL 5
REMARK VINA RESULT:      -7.8      2.781      3.789
REMARK  3 active torsions:
REMARK  status: ('A' for Active; 'I' for Inactive)
REMARK    1  A    between atoms: C_6  and  N_7 
REMARK       I    between atoms: N_7  and  C_8 
REMARK    2  A    between atoms: C_8  and  C_9 
REMARK    3  A    between atoms: C_9  and  C_10 
ROOT
HETATM    1  C   UNL     1     -42.341  57.494 -58.215  1.00  0.00     0.286 C 
HETATM    2  N   UNL     1     -43.000  58.758 -57.644  1.00  0.00    -0.056 N 
HETATM    3  H   UNL     1     -44.029  58.584 -57.644  1.00  0.00     0.278 HD
HETATM    4  H   UNL     1     -42.755  58.877 -56.654  1.00  0.00     0.278 HD
HETATM    5  C   UNL     1     -42.796  60.029 -58.415  1.00  0.00     0.209 C 
HETATM    6  C   UNL     1     -43.077  59.779 -59.914  1.00  0.00     0.115 C 
HETATM    7  N   UNL     1     -42.315  58.649 -60.433  1.00  0.00    -0.353 N 
HETATM    8  C   UNL     1     -42.158  57.476 -59.747  1.00  0.00     0.249 C 
HETATM    9  O   UNL     1     -41.826  56.455 -60.343  1.00  0.00    -0.271 OA
HETATM   10  C   UNL     1     -41.396  60.582 -58.155  1.00  0.00     0.035 C 
HETATM   11  C   UNL     1     -41.161  61.849 -58.976  1.00  0.00     0.002 C 
HETATM   12  C   UNL     1     -41.405  61.614 -60.466  1.00  0.00     0.002 C 
HETATM   13  C   UNL     1     -42.798  61.042 -60.734  1.00  0.00     0.027 C 
HETATM   14  H   UNL     1     -42.258  58.525 -61.442  1.00  0.00     0.163 HD
ENDROOT
BRANCH   1  15
HETATM   15  C   UNL     1     -43.139  56.246 -57.797  1.00  0.00     0.146 C 
BRANCH  15  16
HETATM   16  C   UNL     1     -42.797  55.985 -56.349  1.00  0.00     0.224 C 
HETATM   17  N   UNL     1     -41.630  55.301 -56.133  1.00  0.00    -0.327 N 
HETATM   18  H   UNL     1     -40.965  55.223 -56.897  1.00  0.00     0.169 HD
HETATM   19  O   UNL     1     -43.649  56.295 -55.512  1.00  0.00    -0.273 OA
BRANCH  17  20
HETATM   20  C   UNL     1     -41.261  54.624 -54.948  1.00  0.00     0.035 A 
HETATM   21  C   UNL     1     -40.757  53.321 -54.921  1.00  0.00     0.037 A 
HETATM   22  C   UNL     1     -40.323  52.727 -53.721  1.00  0.00    -0.054 A 
HETATM   23  C   UNL     1     -40.442  53.441 -52.515  1.00  0.00    -0.056 A 
HETATM   24  C   UNL     1     -39.765  51.330 -53.757  1.00  0.00     0.049 C 
HETATM   25  C   UNL     1     -39.993  52.858 -51.204  1.00  0.00     0.049 C 
HETATM   26  C   UNL     1     -40.950  54.747 -52.546  1.00  0.00     0.009 A 
HETATM   27  C   UNL     1     -41.351  55.334 -53.749  1.00  0.00     0.030 A 
ENDBRANCH  17  20
ENDBRANCH  15  16
ENDBRANCH   1  15
TORSDOF 3
ENDMDL
MODEL 6
REMARK VINA RESULT:      -7.7      2.229      3.411
REMARK  3 active torsions:
REMARK  status: ('A' for Active; 'I' for Inactive)
REMARK    1  A    between atoms: C_6  and  N_7 
REMARK       I    between atoms: N_7  and  C_8 
REMARK    2  A    between atoms: C_8  and  C_9 
REMARK    3  A    between atoms: C_9  and  C_10 
ROOT
HETATM    1  C   UNL     1     -43.390  58.837 -53.682  1.00  0.00     0.286 C 
HETATM    2  N   UNL     1     -44.535  57.874 -54.024  1.00  0.00    -0.056 N 
HETATM    3  H   UNL     1     -44.314  56.968 -53.557  1.00  0.00     0.278 HD
HETATM    4  H   UNL     1     -45.411  58.187 -53.589  1.00  0.00     0.278 HD
HETATM    5  C   UNL     1     -44.732  57.553 -55.476  1.00  0.00     0.209 C 
HETATM    6  C   UNL     1     -43.374  57.188 -56.118  1.00  0.00     0.115 C 
HETATM    7  N   UNL     1     -42.362  58.209 -55.874  1.00  0.00    -0.353 N 
HETATM    8  C   UNL     1     -42.199  58.826 -54.664  1.00  0.00     0.249 C 
HETATM    9  O   UNL     1     -41.145  59.400 -54.403  1.00  0.00    -0.271 OA
HETATM   10  C   UNL     1     -45.431  58.714 -56.182  1.00  0.00     0.035 C 
HETATM   11  C   UNL     1     -45.590  58.417 -57.673  1.00  0.00     0.002 C 
HETATM   12  C   UNL     1     -44.252  58.083 -58.331  1.00  0.00     0.002 C 
HETATM   13  C   UNL     1     -43.536  56.933 -57.619  1.00  0.00     0.027 C 
HETATM   14  H   UNL     1     -41.502  58.179 -56.419  1.00  0.00     0.163 HD
ENDROOT
BRANCH   1  15
HETATM   15  C   UNL     1     -42.864  58.552 -52.265  1.00  0.00     0.146 C 
BRANCH  15  16
HETATM   16  C   UNL     1     -42.628  57.061 -52.187  1.00  0.00     0.224 C 
HETATM   17  N   UNL     1     -41.380  56.643 -52.563  1.00  0.00    -0.327 N 
HETATM   18  H   UNL     1     -40.637  57.333 -52.636  1.00  0.00     0.169 HD
HETATM   19  O   UNL     1     -43.605  56.358 -51.916  1.00  0.00    -0.273 OA
BRANCH  17  20
HETATM   20  C   UNL     1     -41.009  55.327 -52.926  1.00  0.00     0.035 A 
HETATM   21  C   UNL     1     -40.666  54.334 -52.005  1.00  0.00     0.037 A 
HETATM   22  C   UNL     1     -40.390  53.016 -52.416  1.00  0.00    -0.054 A 
HETATM   23  C   UNL     1     -40.414  52.701 -53.786  1.00  0.00    -0.056 A 
HETATM   24  C   UNL     1     -40.051  51.982 -51.376  1.00  0.00     0.049 C 
HETATM   25  C   UNL     1     -40.129  51.310 -54.283  1.00  0.00     0.049 C 
HETATM   26  C   UNL     1     -40.756  53.701 -54.707  1.00  0.00     0.009 A 
HETATM   27  C   UNL     1     -41.055  54.998 -54.282  1.00  0.00     0.030 A 
ENDBRANCH  17  20
ENDBRANCH  15  16
ENDBRANCH   1  15
TORSDOF 3
ENDMDL
MODEL 7
REMARK VINA RESULT:      -7.7     14.049     17.309
REMARK  3 active torsions:
REMARK  status: ('A' for Active; 'I' for Inactive)
REMARK    1  A    between atoms: C_6  and  N_7 
REMARK       I    between atoms: N_7  and  C_8 
REMARK    2  A    between atoms: C_8  and  C_9 
REMARK    3  A    between atoms: C_9  and  C_10 
ROOT
HETATM    1  C   UNL     1     -35.972  41.029 -52.042  1.00  0.00     0.286 C 
HETATM    2  N   UNL     1     -34.696  41.863 -51.865  1.00  0.00    -0.056 N 
HETATM    3  H   UNL     1     -34.639  42.501 -52.689  1.00  0.00     0.278 HD
HETATM    4  H   UNL     1     -34.783  42.489 -51.056  1.00  0.00     0.278 HD
HETATM    5  C   UNL     1     -33.399  41.109 -51.835  1.00  0.00     0.209 C 
HETATM    6  C   UNL     1     -33.353  40.106 -53.010  1.00  0.00     0.115 C 
HETATM    7  N   UNL     1     -34.532  39.248 -53.044  1.00  0.00    -0.353 N 
HETATM    8  C   UNL     1     -35.800  39.711 -52.825  1.00  0.00     0.249 C 
HETATM    9  O   UNL     1     -36.768  39.055 -53.201  1.00  0.00    -0.271 OA
HETATM   10  C   UNL     1     -33.211  40.441 -50.474  1.00  0.00     0.035 C 
HETATM   11  C   UNL     1     -31.917  39.628 -50.451  1.00  0.00     0.002 C 
HETATM   12  C   UNL     1     -31.867  38.609 -51.590  1.00  0.00     0.002 C 
HETATM   13  C   UNL     1     -32.073  39.267 -52.955  1.00  0.00     0.027 C 
HETATM   14  H   UNL     1     -34.512  38.420 -53.637  1.00  0.00     0.163 HD
ENDROOT
BRANCH   1  15
HETATM   15  C   UNL     1     -37.064  41.871 -52.726  1.00  0.00     0.146 C 
BRANCH  15  16
HETATM   16  C   UNL     1     -36.720  41.905 -54.197  1.00  0.00     0.224 C 
HETATM   17  N   UNL     1     -37.718  41.504 -55.045  1.00  0.00    -0.327 N 
HETATM   18  H   UNL     1     -38.666  41.442 -54.684  1.00  0.00     0.169 HD
HETATM   19  O   UNL     1     -35.550  42.167 -54.488  1.00  0.00    -0.273 OA
BRANCH  17  20
HETATM   20  C   UNL     1     -37.564  41.101 -56.391  1.00  0.00     0.035 A 
HETATM   21  C   UNL     1     -37.519  41.991 -57.469  1.00  0.00     0.037 A 
HETATM   22  C   UNL     1     -37.276  41.541 -58.780  1.00  0.00    -0.054 A 
HETATM   23  C   UNL     1     -37.124  40.164 -59.021  1.00  0.00    -0.056 A 
HETATM   24  C   UNL     1     -37.212  42.548 -59.898  1.00  0.00     0.049 C 
HETATM   25  C   UNL     1     -36.861  39.628 -60.402  1.00  0.00     0.049 C 
HETATM   26  C   UNL     1     -37.173  39.275 -57.939  1.00  0.00     0.009 A 
HETATM   27  C   UNL     1     -37.386  39.739 -56.638  1.00  0.00     0.030 A 
ENDBRANCH  17  20
ENDBRANCH  15  16
ENDBRANCH   1  15
TORSDOF 3
ENDMDL
MODEL 8
REMARK VINA RESULT:      -7.7      2.031      3.120
REMARK  3 active torsions:
REMARK  status: ('A' for Active; 'I' for Inactive)
REMARK    1  A    between atoms: C_6  and  N_7 
REMARK       I    between atoms: N_7  and  C_8 
REMARK    2  A    between atoms: C_8  and  C_9 
REMARK    3  A    between atoms: C_9  and  C_10 
ROOT
HETATM    1  C   UNL     1     -43.137  56.892 -56.535  1.00  0.00     0.286 C 
HETATM    2  N   UNL     1     -44.462  56.872 -55.761  1.00  0.00    -0.056 N 
HETATM    3  H   UNL     1     -45.040  56.110 -56.178  1.00  0.00     0.278 HD
HETATM    4  H   UNL     1     -44.308  56.582 -54.788  1.00  0.00     0.278 HD
HETATM    5  C   UNL     1     -45.302  58.113 -55.834  1.00  0.00     0.209 C 
HETATM    6  C   UNL     1     -45.423  58.574 -57.305  1.00  0.00     0.115 C 
HETATM    7  N   UNL     1     -44.120  58.707 -57.946  1.00  0.00    -0.353 N 
HETATM    8  C   UNL     1     -43.111  57.798 -57.783  1.00  0.00     0.249 C 
HETATM    9  O   UNL     1     -42.186  57.754 -58.591  1.00  0.00    -0.271 OA
HETATM   10  C   UNL     1     -44.726  59.192 -54.918  1.00  0.00     0.035 C 
HETATM   11  C   UNL     1     -45.545  60.478 -55.025  1.00  0.00     0.002 C 
HETATM   12  C   UNL     1     -45.651  60.965 -56.469  1.00  0.00     0.002 C 
HETATM   13  C   UNL     1     -46.209  59.885 -57.397  1.00  0.00     0.027 C 
HETATM   14  H   UNL     1     -44.065  59.200 -58.835  1.00  0.00     0.163 HD
ENDROOT
BRANCH   1  15
HETATM   15  C   UNL     1     -42.746  55.464 -56.952  1.00  0.00     0.146 C 
BRANCH  15  16
HETATM   16  C   UNL     1     -42.604  54.668 -55.676  1.00  0.00     0.224 C 
HETATM   17  N   UNL     1     -41.322  54.508 -55.222  1.00  0.00    -0.327 N 
HETATM   18  H   UNL     1     -40.593  55.104 -55.604  1.00  0.00     0.169 HD
HETATM   19  O   UNL     1     -43.627  54.137 -55.236  1.00  0.00    -0.273 OA
BRANCH  17  20
HETATM   20  C   UNL     1     -40.876  53.540 -54.292  1.00  0.00     0.035 A 
HETATM   21  C   UNL     1     -40.496  52.242 -54.642  1.00  0.00     0.037 A 
HETATM   22  C   UNL     1     -39.976  51.347 -53.688  1.00  0.00    -0.054 A 
HETATM   23  C   UNL     1     -39.881  51.750 -52.344  1.00  0.00    -0.056 A 
HETATM   24  C   UNL     1     -39.558  49.970 -54.128  1.00  0.00     0.049 C 
HETATM   25  C   UNL     1     -39.332  50.838 -51.282  1.00  0.00     0.049 C 
HETATM   26  C   UNL     1     -40.266  53.052 -51.996  1.00  0.00     0.009 A 
HETATM   27  C   UNL     1     -40.753  53.939 -52.959  1.00  0.00     0.030 A 
ENDBRANCH  17  20
ENDBRANCH  15  16
ENDBRANCH   1  15
TORSDOF 3
ENDMDL
MODEL 9
REMARK VINA RESULT:      -7.7     14.443     17.053
REMARK  3 active torsions:
REMARK  status: ('A' for Active; 'I' for Inactive)
REMARK    1  A    between atoms: C_6  and  N_7 
REMARK       I    between atoms: N_7  and  C_8 
REMARK    2  A    between atoms: C_8  and  C_9 
REMARK    3  A    between atoms: C_9  and  C_10 
ROOT
HETATM    1  C   UNL     1     -35.814  41.318 -55.729  1.00  0.00     0.286 C 
HETATM    2  N   UNL     1     -36.791  42.104 -54.845  1.00  0.00    -0.056 N 
HETATM    3  H   UNL     1     -36.588  43.116 -55.001  1.00  0.00     0.278 HD
HETATM    4  H   UNL     1     -37.756  41.978 -55.172  1.00  0.00     0.278 HD
HETATM    5  C   UNL     1     -36.684  41.884 -53.365  1.00  0.00     0.209 C 
HETATM    6  C   UNL     1     -35.204  41.981 -52.930  1.00  0.00     0.115 C 
HETATM    7  N   UNL     1     -34.344  41.106 -53.718  1.00  0.00    -0.353 N 
HETATM    8  C   UNL     1     -34.463  40.964 -55.073  1.00  0.00     0.249 C 
HETATM    9  O   UNL     1     -33.528  40.512 -55.729  1.00  0.00    -0.271 OA
HETATM   10  C   UNL     1     -37.331  40.554 -52.983  1.00  0.00     0.035 C 
HETATM   11  C   UNL     1     -37.181  40.297 -51.483  1.00  0.00     0.002 C 
HETATM   12  C   UNL     1     -35.720  40.359 -51.040  1.00  0.00     0.002 C 
HETATM   13  C   UNL     1     -35.059  41.680 -51.435  1.00  0.00     0.027 C 
HETATM   14  H   UNL     1     -33.397  40.930 -53.387  1.00  0.00     0.163 HD
ENDROOT
BRANCH   1  15
HETATM   15  C   UNL     1     -35.543  42.088 -57.033  1.00  0.00     0.146 C 
BRANCH  15  16
HETATM   16  C   UNL     1     -36.581  41.625 -58.029  1.00  0.00     0.224 C 
HETATM   17  N   UNL     1     -36.672  40.268 -58.194  1.00  0.00    -0.327 N 
HETATM   18  H   UNL     1     -36.238  39.664 -57.502  1.00  0.00     0.169 HD
HETATM   19  O   UNL     1     -37.154  42.499 -58.683  1.00  0.00    -0.273 OA
BRANCH  17  20
HETATM   20  C   UNL     1     -37.275  39.594 -59.281  1.00  0.00     0.035 A 
HETATM   21  C   UNL     1     -38.551  39.027 -59.235  1.00  0.00     0.037 A 
HETATM   22  C   UNL     1     -39.137  38.444 -60.374  1.00  0.00    -0.054 A 
HETATM   23  C   UNL     1     -38.405  38.386 -61.574  1.00  0.00    -0.056 A 
HETATM   24  C   UNL     1     -40.525  37.873 -60.271  1.00  0.00     0.049 C 
HETATM   25  C   UNL     1     -38.980  37.777 -62.823  1.00  0.00     0.049 C 
HETATM   26  C   UNL     1     -37.124  38.953 -61.616  1.00  0.00     0.009 A 
HETATM   27  C   UNL     1     -36.566  39.555 -60.484  1.00  0.00     0.030 A 
ENDBRANCH  17  20
ENDBRANCH  15  16
ENDBRANCH   1  15
TORSDOF 3
ENDMDL
MODEL 10
REMARK VINA RESULT:      -7.6      1.846      7.279
REMARK  3 active torsions:
REMARK  status: ('A' for Active; 'I' for Inactive)
REMARK    1  A    between atoms: C_6  and  N_7 
REMARK       I    between atoms: N_7  and  C_8 
REMARK    2  A    between atoms: C_8  and  C_9 
REMARK    3  A    between atoms: C_9  and  C_10 
ROOT
HETATM    1  C   UNL     1     -42.697  55.358 -52.502  1.00  0.00     0.286 C 
HETATM    2  N   UNL     1     -41.206  55.375 -52.139  1.00  0.00    -0.056 N 
HETATM    3  H   UNL     1     -40.789  56.197 -52.629  1.00  0.00     0.278 HD
HETATM    4  H   UNL     1     -41.080  55.575 -51.140  1.00  0.00     0.278 HD
HETATM    5  C   UNL     1     -40.397  54.186 -52.564  1.00  0.00     0.209 C 
HETATM    6  C   UNL     1     -40.693  53.857 -54.045  1.00  0.00     0.115 C 
HETATM    7  N   UNL     1     -42.123  53.717 -54.299  1.00  0.00    -0.353 N 
HETATM    8  C   UNL     1     -43.062  54.560 -53.771  1.00  0.00     0.249 C 
HETATM    9  O   UNL     1     -44.180  54.628 -54.275  1.00  0.00    -0.271 OA
HETATM   10  C   UNL     1     -40.662  53.008 -51.628  1.00  0.00     0.035 C 
HETATM   11  C   UNL     1     -39.881  51.776 -52.084  1.00  0.00     0.002 C 
HETATM   12  C   UNL     1     -40.185  51.417 -53.538  1.00  0.00     0.002 C 
HETATM   13  C   UNL     1     -39.940  52.597 -54.480  1.00  0.00     0.027 C 
HETATM   14  H   UNL     1     -42.420  53.298 -55.179  1.00  0.00     0.163 HD
ENDROOT
BRANCH   1  15
HETATM   15  C   UNL     1     -43.222  56.796 -52.655  1.00  0.00     0.146 C 
BRANCH  15  16
HETATM   16  C   UNL     1     -42.570  57.360 -53.896  1.00  0.00     0.224 C 
HETATM   17  N   UNL     1     -43.393  57.496 -54.983  1.00  0.00    -0.327 N 
HETATM   18  H   UNL     1     -44.398  57.447 -54.840  1.00  0.00     0.169 HD
HETATM   19  O   UNL     1     -41.348  57.526 -53.856  1.00  0.00    -0.273 OA
BRANCH  17  20
HETATM   20  C   UNL     1     -42.988  57.646 -56.329  1.00  0.00     0.035 A 
HETATM   21  C   UNL     1     -43.121  56.648 -57.298  1.00  0.00     0.037 A 
HETATM   22  C   UNL     1     -42.781  56.882 -58.644  1.00  0.00    -0.054 A 
HETATM   23  C   UNL     1     -42.251  58.131 -59.014  1.00  0.00    -0.056 A 
HETATM   24  C   UNL     1     -42.971  55.778 -59.648  1.00  0.00     0.049 C 
HETATM   25  C   UNL     1     -41.872  58.438 -60.437  1.00  0.00     0.049 C 
HETATM   26  C   UNL     1     -42.116  59.128 -58.039  1.00  0.00     0.009 A 
HETATM   27  C   UNL     1     -42.484  58.891 -56.712  1.00  0.00     0.030 A 
ENDBRANCH  17  20
ENDBRANCH  15  16
ENDBRANCH   1  15
TORSDOF 3
ENDMDL
