MODEL 1
REMARK VINA RESULT:      -8.7      0.000      0.000
REMARK  2 active torsions:
REMARK  status: ('A' for Active; 'I' for Inactive)
REMARK    1  A    between atoms: C_2  and  C_3 
REMARK    2  A    between atoms: N_9  and  C_10 
ROOT
HETATM    1  C   UNL     1     -42.646  57.430 -56.907  1.00  0.00     0.047 A 
HETATM    2  N   UNL     1     -41.714  56.436 -56.670  1.00  0.00    -0.344 N 
HETATM    3  C   UNL     1     -41.803  55.617 -55.576  1.00  0.00     0.119 A 
HETATM    4  C   UNL     1     -42.847  55.692 -54.735  1.00  0.00     0.123 A 
HETATM    5  C   UNL     1     -42.674  54.625 -53.737  1.00  0.00     0.280 A 
HETATM    6  O   UNL     1     -43.446  54.385 -52.827  1.00  0.00    -0.265 OA
HETATM    7  N   UNL     1     -41.474  53.985 -54.087  1.00  0.00    -0.236 N 
HETATM    8  N   UNL     1     -40.911  54.625 -55.212  1.00  0.00    -0.179 NA
HETATM    9  C   UNL     1     -43.910  56.676 -54.952  1.00  0.00     0.193 A 
HETATM   10  O   UNL     1     -44.899  56.784 -54.240  1.00  0.00    -0.287 OA
HETATM   11  C   UNL     1     -43.731  57.585 -56.124  1.00  0.00     0.086 A 
HETATM   12  H   UNL     1     -40.814  56.505 -57.134  1.00  0.00     0.167 HD
HETATM   13  H   UNL     1     -40.761  53.981 -55.990  1.00  0.00     0.155 HD
ENDROOT
BRANCH   1  14
HETATM   14  C   UNL     1     -42.428  58.310 -58.071  1.00  0.00    -0.009 A 
HETATM   15  C   UNL     1     -42.340  59.703 -57.922  1.00  0.00     0.015 A 
HETATM   16  C   UNL     1     -42.125  60.525 -59.033  1.00  0.00     0.024 A 
HETATM   17  C   UNL     1     -41.994  59.960 -60.298  1.00  0.00     0.034 A 
HETATM   18  C   UNL     1     -42.074  58.579 -60.465  1.00  0.00     0.024 A 
HETATM   19 CL   UNL     1     -41.730  60.970 -61.664  1.00  0.00    -0.084 Cl
HETATM   20  C   UNL     1     -42.290  57.757 -59.354  1.00  0.00     0.015 A 
ENDBRANCH   1  14
BRANCH   7  21
HETATM   21  C   UNL     1     -40.813  52.904 -53.465  1.00  0.00     0.055 A 
HETATM   22  C   UNL     1     -40.448  52.956 -52.111  1.00  0.00     0.034 A 
HETATM   23  C   UNL     1     -39.805  51.875 -51.497  1.00  0.00     0.044 A 
HETATM   24  C   UNL     1     -39.520  50.736 -52.235  1.00  0.00     0.116 A 
HETATM   25  F   UNL     1     -38.906  49.702 -51.648  1.00  0.00    -0.206 F 
HETATM   26  C   UNL     1     -39.861  50.658 -53.577  1.00  0.00     0.044 A 
HETATM   27  C   UNL     1     -40.505  51.739 -54.190  1.00  0.00     0.034 A 
ENDBRANCH   7  21
TORSDOF 2
ENDMDL
MODEL 2
REMARK VINA RESULT:      -8.6      2.858      3.265
REMARK  2 active torsions:
REMARK  status: ('A' for Active; 'I' for Inactive)
REMARK    1  A    between atoms: C_2  and  C_3 
REMARK    2  A    between atoms: N_9  and  C_10 
ROOT
HETATM    1  C   UNL     1     -43.942  56.633 -57.721  1.00  0.00     0.047 A 
HETATM    2  N   UNL     1     -43.623  55.416 -57.148  1.00  0.00    -0.344 N 
HETATM    3  C   UNL     1     -42.678  55.312 -56.162  1.00  0.00     0.119 A 
HETATM    4  C   UNL     1     -42.083  56.404 -55.653  1.00  0.00     0.123 A 
HETATM    5  C   UNL     1     -41.203  55.948 -54.566  1.00  0.00     0.280 A 
HETATM    6  O   UNL     1     -40.518  56.673 -53.869  1.00  0.00    -0.265 OA
HETATM    7  N   UNL     1     -41.353  54.552 -54.532  1.00  0.00    -0.236 N 
HETATM    8  N   UNL     1     -42.246  54.150 -55.550  1.00  0.00    -0.179 NA
HETATM    9  C   UNL     1     -42.412  57.737 -56.162  1.00  0.00     0.193 A 
HETATM   10  O   UNL     1     -41.926  58.774 -55.731  1.00  0.00    -0.287 OA
HETATM   11  C   UNL     1     -43.403  57.786 -57.279  1.00  0.00     0.086 A 
HETATM   12  H   UNL     1     -43.869  54.571 -57.654  1.00  0.00     0.167 HD
HETATM   13  H   UNL     1     -43.042  53.627 -55.183  1.00  0.00     0.155 HD
ENDROOT
BRANCH   1  14
HETATM   14  C   UNL     1     -44.919  56.636 -58.825  1.00  0.00    -0.009 A 
HETATM   15  C   UNL     1     -44.864  55.675 -59.847  1.00  0.00     0.015 A 
HETATM   16  C   UNL     1     -45.802  55.684 -60.884  1.00  0.00     0.024 A 
HETATM   17  C   UNL     1     -46.803  56.651 -60.905  1.00  0.00     0.034 A 
HETATM   18  C   UNL     1     -46.877  57.610 -59.896  1.00  0.00     0.024 A 
HETATM   19 CL   UNL     1     -47.957  56.663 -62.180  1.00  0.00    -0.084 Cl
HETATM   20  C   UNL     1     -45.938  57.601 -58.860  1.00  0.00     0.015 A 
ENDBRANCH   1  14
BRANCH   7  21
HETATM   21  C   UNL     1     -40.732  53.597 -53.699  1.00  0.00     0.055 A 
HETATM   22  C   UNL     1     -40.636  53.793 -52.313  1.00  0.00     0.034 A 
HETATM   23  C   UNL     1     -40.031  52.835 -51.491  1.00  0.00     0.044 A 
HETATM   24  C   UNL     1     -39.516  51.676 -52.051  1.00  0.00     0.116 A 
HETATM   25  F   UNL     1     -38.938  50.759 -51.265  1.00  0.00    -0.206 F 
HETATM   26  C   UNL     1     -39.589  51.458 -53.419  1.00  0.00     0.044 A 
HETATM   27  C   UNL     1     -40.195  52.416 -54.240  1.00  0.00     0.034 A 
ENDBRANCH   7  21
TORSDOF 2
ENDMDL
MODEL 3
REMARK VINA RESULT:      -8.5      4.635      8.667
REMARK  2 active torsions:
REMARK  status: ('A' for Active; 'I' for Inactive)
REMARK    1  A    between atoms: C_2  and  C_3 
REMARK    2  A    between atoms: N_9  and  C_10 
ROOT
HETATM    1  C   UNL     1     -41.125  54.983 -53.508  1.00  0.00     0.047 A 
HETATM    2  N   UNL     1     -41.310  55.075 -54.875  1.00  0.00    -0.344 N 
HETATM    3  C   UNL     1     -41.811  56.209 -55.456  1.00  0.00     0.119 A 
HETATM    4  C   UNL     1     -42.066  57.308 -54.728  1.00  0.00     0.123 A 
HETATM    5  C   UNL     1     -42.501  58.355 -55.665  1.00  0.00     0.280 A 
HETATM    6  O   UNL     1     -42.798  59.494 -55.354  1.00  0.00    -0.265 OA
HETATM    7  N   UNL     1     -42.476  57.749 -56.931  1.00  0.00    -0.236 N 
HETATM    8  N   UNL     1     -42.081  56.400 -56.799  1.00  0.00    -0.179 NA
HETATM    9  C   UNL     1     -41.836  57.313 -53.281  1.00  0.00     0.193 A 
HETATM   10  O   UNL     1     -42.024  58.284 -52.561  1.00  0.00    -0.287 OA
HETATM   11  C   UNL     1     -41.347  56.030 -52.692  1.00  0.00     0.086 A 
HETATM   12  H   UNL     1     -41.354  54.213 -55.410  1.00  0.00     0.167 HD
HETATM   13  H   UNL     1     -41.257  56.181 -57.360  1.00  0.00     0.155 HD
ENDROOT
BRANCH   1  14
HETATM   14  C   UNL     1     -40.648  53.696 -52.966  1.00  0.00    -0.009 A 
HETATM   15  C   UNL     1     -40.263  52.648 -53.817  1.00  0.00     0.015 A 
HETATM   16  C   UNL     1     -39.805  51.436 -53.290  1.00  0.00     0.024 A 
HETATM   17  C   UNL     1     -39.725  51.266 -51.910  1.00  0.00     0.034 A 
HETATM   18  C   UNL     1     -40.098  52.297 -51.051  1.00  0.00     0.024 A 
HETATM   19 CL   UNL     1     -39.161  49.777 -51.262  1.00  0.00    -0.084 Cl
HETATM   20  C   UNL     1     -40.557  53.508 -51.578  1.00  0.00     0.015 A 
ENDBRANCH   1  14
BRANCH   7  21
HETATM   21  C   UNL     1     -42.816  58.281 -58.194  1.00  0.00     0.055 A 
HETATM   22  C   UNL     1     -43.971  57.863 -58.872  1.00  0.00     0.034 A 
HETATM   23  C   UNL     1     -44.310  58.404 -60.117  1.00  0.00     0.044 A 
HETATM   24  C   UNL     1     -43.494  59.366 -60.693  1.00  0.00     0.116 A 
HETATM   25  F   UNL     1     -43.819  59.885 -61.884  1.00  0.00    -0.206 F 
HETATM   26  C   UNL     1     -42.342  59.794 -60.050  1.00  0.00     0.044 A 
HETATM   27  C   UNL     1     -42.004  59.252 -58.805  1.00  0.00     0.034 A 
ENDBRANCH   7  21
TORSDOF 2
ENDMDL
MODEL 4
REMARK VINA RESULT:      -8.3      4.872      8.621
REMARK  2 active torsions:
REMARK  status: ('A' for Active; 'I' for Inactive)
REMARK    1  A    between atoms: C_2  and  C_3 
REMARK    2  A    between atoms: N_9  and  C_10 
ROOT
HETATM    1  C   UNL     1     -41.265  54.895 -53.818  1.00  0.00     0.047 A 
HETATM    2  N   UNL     1     -42.118  54.740 -54.895  1.00  0.00    -0.344 N 
HETATM    3  C   UNL     1     -42.709  55.816 -55.502  1.00  0.00     0.119 A 
HETATM    4  C   UNL     1     -42.416  57.072 -55.127  1.00  0.00     0.123 A 
HETATM    5  C   UNL     1     -43.146  57.973 -56.033  1.00  0.00     0.280 A 
HETATM    6  O   UNL     1     -43.102  59.189 -55.996  1.00  0.00    -0.265 OA
HETATM    7  N   UNL     1     -43.853  57.127 -56.903  1.00  0.00    -0.236 N 
HETATM    8  N   UNL     1     -43.609  55.782 -56.551  1.00  0.00    -0.179 NA
HETATM    9  C   UNL     1     -41.472  57.323 -54.036  1.00  0.00     0.193 A 
HETATM   10  O   UNL     1     -41.144  58.439 -53.658  1.00  0.00    -0.287 OA
HETATM   11  C   UNL     1     -40.905  56.112 -53.369  1.00  0.00     0.086 A 
HETATM   12  H   UNL     1     -42.535  53.827 -55.046  1.00  0.00     0.167 HD
HETATM   13  H   UNL     1     -43.228  55.241 -57.328  1.00  0.00     0.155 HD
ENDROOT
BRANCH   1  14
HETATM   14  C   UNL     1     -40.732  53.674 -53.184  1.00  0.00    -0.009 A 
HETATM   15  C   UNL     1     -40.611  53.573 -51.789  1.00  0.00     0.015 A 
HETATM   16  C   UNL     1     -40.112  52.407 -51.201  1.00  0.00     0.024 A 
HETATM   17  C   UNL     1     -39.736  51.332 -52.003  1.00  0.00     0.034 A 
HETATM   18  C   UNL     1     -39.854  51.412 -53.388  1.00  0.00     0.024 A 
HETATM   19 CL   UNL     1     -39.123  49.898 -51.279  1.00  0.00    -0.084 Cl
HETATM   20  C   UNL     1     -40.351  52.579 -53.976  1.00  0.00     0.015 A 
ENDBRANCH   1  14
BRANCH   7  21
HETATM   21  C   UNL     1     -44.732  57.449 -57.959  1.00  0.00     0.055 A 
HETATM   22  C   UNL     1     -44.387  57.194 -59.296  1.00  0.00     0.034 A 
HETATM   23  C   UNL     1     -45.269  57.503 -60.338  1.00  0.00     0.044 A 
HETATM   24  C   UNL     1     -46.500  58.071 -60.049  1.00  0.00     0.116 A 
HETATM   25  F   UNL     1     -47.345  58.365 -61.046  1.00  0.00    -0.206 F 
HETATM   26  C   UNL     1     -46.866  58.342 -58.739  1.00  0.00     0.044 A 
HETATM   27  C   UNL     1     -45.984  58.033 -57.698  1.00  0.00     0.034 A 
ENDBRANCH   7  21
TORSDOF 2
ENDMDL
MODEL 5
REMARK VINA RESULT:      -7.9      4.765      5.979
REMARK  2 active torsions:
REMARK  status: ('A' for Active; 'I' for Inactive)
REMARK    1  A    between atoms: C_2  and  C_3 
REMARK    2  A    between atoms: N_9  and  C_10 
ROOT
HETATM    1  C   UNL     1     -43.935  59.026 -51.772  1.00  0.00     0.047 A 
HETATM    2  N   UNL     1     -42.958  58.098 -51.458  1.00  0.00    -0.344 N 
HETATM    3  C   UNL     1     -42.833  56.926 -52.154  1.00  0.00     0.119 A 
HETATM    4  C   UNL     1     -43.602  56.668 -53.225  1.00  0.00     0.123 A 
HETATM    5  C   UNL     1     -43.150  55.383 -53.780  1.00  0.00     0.280 A 
HETATM    6  O   UNL     1     -43.613  54.847 -54.770  1.00  0.00    -0.265 OA
HETATM    7  N   UNL     1     -42.106  54.965 -52.940  1.00  0.00    -0.236 N 
HETATM    8  N   UNL     1     -41.930  55.909 -51.903  1.00  0.00    -0.179 NA
HETATM    9  C   UNL     1     -44.618  57.629 -53.661  1.00  0.00     0.193 A 
HETATM   10  O   UNL     1     -45.335  57.470 -54.639  1.00  0.00    -0.287 OA
HETATM   11  C   UNL     1     -44.752  58.862 -52.829  1.00  0.00     0.086 A 
HETATM   12  H   UNL     1     -42.531  58.147 -50.538  1.00  0.00     0.167 HD
HETATM   13  H   UNL     1     -40.980  56.279 -51.873  1.00  0.00     0.155 HD
ENDROOT
BRANCH   1  14
HETATM   14  C   UNL     1     -44.039  60.227 -50.920  1.00  0.00    -0.009 A 
HETATM   15  C   UNL     1     -45.097  60.383 -50.011  1.00  0.00     0.015 A 
HETATM   16  C   UNL     1     -45.179  61.522 -49.205  1.00  0.00     0.024 A 
HETATM   17  C   UNL     1     -44.203  62.510 -49.299  1.00  0.00     0.034 A 
HETATM   18  C   UNL     1     -43.142  62.370 -50.191  1.00  0.00     0.024 A 
HETATM   19 CL   UNL     1     -44.303  63.911 -48.307  1.00  0.00    -0.084 Cl
HETATM   20  C   UNL     1     -43.061  61.231 -50.999  1.00  0.00     0.015 A 
ENDBRANCH   1  14
BRANCH   7  21
HETATM   21  C   UNL     1     -41.321  53.793 -52.989  1.00  0.00     0.055 A 
HETATM   22  C   UNL     1     -40.651  53.318 -51.851  1.00  0.00     0.034 A 
HETATM   23  C   UNL     1     -39.885  52.148 -51.903  1.00  0.00     0.044 A 
HETATM   24  C   UNL     1     -39.784  51.446 -53.095  1.00  0.00     0.116 A 
HETATM   25  F   UNL     1     -39.053  50.326 -53.145  1.00  0.00    -0.206 F 
HETATM   26  C   UNL     1     -40.428  51.895 -54.239  1.00  0.00     0.044 A 
HETATM   27  C   UNL     1     -41.194  53.065 -54.185  1.00  0.00     0.034 A 
ENDBRANCH   7  21
TORSDOF 2
ENDMDL
MODEL 6
REMARK VINA RESULT:      -7.9      5.745      6.823
REMARK  2 active torsions:
REMARK  status: ('A' for Active; 'I' for Inactive)
REMARK    1  A    between atoms: C_2  and  C_3 
REMARK    2  A    between atoms: N_9  and  C_10 
ROOT
HETATM    1  C   UNL     1     -42.625  60.325 -51.152  1.00  0.00     0.047 A 
HETATM    2  N   UNL     1     -42.424  59.109 -50.524  1.00  0.00    -0.344 N 
HETATM    3  C   UNL     1     -41.961  58.017 -51.208  1.00  0.00     0.119 A 
HETATM    4  C   UNL     1     -41.605  58.107 -52.500  1.00  0.00     0.123 A 
HETATM    5  C   UNL     1     -41.074  56.792 -52.893  1.00  0.00     0.280 A 
HETATM    6  O   UNL     1     -40.639  56.514 -53.995  1.00  0.00    -0.265 OA
HETATM    7  N   UNL     1     -41.180  55.994 -51.743  1.00  0.00    -0.236 N 
HETATM    8  N   UNL     1     -41.765  56.746 -50.701  1.00  0.00    -0.179 NA
HETATM    9  C   UNL     1     -41.728  59.376 -53.220  1.00  0.00     0.193 A 
HETATM   10  O   UNL     1     -41.401  59.535 -54.389  1.00  0.00    -0.287 OA
HETATM   11  C   UNL     1     -42.296  60.518 -52.443  1.00  0.00     0.086 A 
HETATM   12  H   UNL     1     -42.893  58.946 -49.639  1.00  0.00     0.167 HD
HETATM   13  H   UNL     1     -41.174  56.784 -49.870  1.00  0.00     0.155 HD
ENDROOT
BRANCH   1  14
HETATM   14  C   UNL     1     -43.195  61.425 -50.349  1.00  0.00    -0.009 A 
HETATM   15  C   UNL     1     -42.800  62.756 -50.558  1.00  0.00     0.015 A 
HETATM   16  C   UNL     1     -43.353  63.789 -49.796  1.00  0.00     0.024 A 
HETATM   17  C   UNL     1     -44.307  63.500 -48.823  1.00  0.00     0.034 A 
HETATM   18  C   UNL     1     -44.715  62.185 -48.606  1.00  0.00     0.024 A 
HETATM   19 CL   UNL     1     -44.988  64.771 -47.887  1.00  0.00    -0.084 Cl
HETATM   20  C   UNL     1     -44.160  61.152 -49.368  1.00  0.00     0.015 A 
ENDBRANCH   1  14
BRANCH   7  21
HETATM   21  C   UNL     1     -40.838  54.638 -51.550  1.00  0.00     0.055 A 
HETATM   22  C   UNL     1     -40.617  53.781 -52.639  1.00  0.00     0.034 A 
HETATM   23  C   UNL     1     -40.264  52.442 -52.441  1.00  0.00     0.044 A 
HETATM   24  C   UNL     1     -40.133  51.950 -51.151  1.00  0.00     0.116 A 
HETATM   25  F   UNL     1     -39.794  50.669 -50.961  1.00  0.00    -0.206 F 
HETATM   26  C   UNL     1     -40.352  52.771 -50.054  1.00  0.00     0.044 A 
HETATM   27  C   UNL     1     -40.704  54.110 -50.254  1.00  0.00     0.034 A 
ENDBRANCH   7  21
TORSDOF 2
ENDMDL
MODEL 7
REMARK VINA RESULT:      -7.8      3.299      3.770
REMARK  2 active torsions:
REMARK  status: ('A' for Active; 'I' for Inactive)
REMARK    1  A    between atoms: C_2  and  C_3 
REMARK    2  A    between atoms: N_9  and  C_10 
ROOT
HETATM    1  C   UNL     1     -44.097  57.486 -57.523  1.00  0.00     0.047 A 
HETATM    2  N   UNL     1     -43.959  56.474 -56.591  1.00  0.00    -0.344 N 
HETATM    3  C   UNL     1     -43.040  56.552 -55.579  1.00  0.00     0.119 A 
HETATM    4  C   UNL     1     -42.293  57.654 -55.402  1.00  0.00     0.123 A 
HETATM    5  C   UNL     1     -41.490  57.440 -54.188  1.00  0.00     0.280 A 
HETATM    6  O   UNL     1     -40.708  58.245 -53.715  1.00  0.00    -0.265 OA
HETATM    7  N   UNL     1     -41.840  56.158 -53.736  1.00  0.00    -0.236 N 
HETATM    8  N   UNL     1     -42.781  55.588 -54.622  1.00  0.00    -0.179 NA
HETATM    9  C   UNL     1     -42.426  58.797 -56.309  1.00  0.00     0.193 A 
HETATM   10  O   UNL     1     -41.795  59.839 -56.193  1.00  0.00    -0.287 OA
HETATM   11  C   UNL     1     -43.398  58.633 -57.431  1.00  0.00     0.086 A 
HETATM   12  H   UNL     1     -44.323  55.556 -56.826  1.00  0.00     0.167 HD
HETATM   13  H   UNL     1     -43.644  55.318 -54.149  1.00  0.00     0.155 HD
ENDROOT
BRANCH   1  14
HETATM   14  C   UNL     1     -45.063  57.281 -58.619  1.00  0.00    -0.009 A 
HETATM   15  C   UNL     1     -46.085  58.211 -58.870  1.00  0.00     0.015 A 
HETATM   16  C   UNL     1     -46.989  58.009 -59.917  1.00  0.00     0.024 A 
HETATM   17  C   UNL     1     -46.876  56.878 -60.722  1.00  0.00     0.034 A 
HETATM   18  C   UNL     1     -45.865  55.948 -60.492  1.00  0.00     0.024 A 
HETATM   19 CL   UNL     1     -47.987  56.630 -62.011  1.00  0.00    -0.084 Cl
HETATM   20  C   UNL     1     -44.962  56.150 -59.443  1.00  0.00     0.015 A 
ENDBRANCH   1  14
BRANCH   7  21
HETATM   21  C   UNL     1     -41.364  55.432 -52.624  1.00  0.00     0.055 A 
HETATM   22  C   UNL     1     -41.419  55.967 -51.327  1.00  0.00     0.034 A 
HETATM   23  C   UNL     1     -40.959  55.235 -50.227  1.00  0.00     0.044 A 
HETATM   24  C   UNL     1     -40.437  53.964 -50.416  1.00  0.00     0.116 A 
HETATM   25  F   UNL     1     -39.998  53.264 -49.364  1.00  0.00    -0.206 F 
HETATM   26  C   UNL     1     -40.363  53.412 -51.687  1.00  0.00     0.044 A 
HETATM   27  C   UNL     1     -40.824  54.144 -52.786  1.00  0.00     0.034 A 
ENDBRANCH   7  21
TORSDOF 2
ENDMDL
MODEL 8
REMARK VINA RESULT:      -7.7      1.685      2.130
REMARK  2 active torsions:
REMARK  status: ('A' for Active; 'I' for Inactive)
REMARK    1  A    between atoms: C_2  and  C_3 
REMARK    2  A    between atoms: N_9  and  C_10 
ROOT
HETATM    1  C   UNL     1     -42.518  58.445 -56.996  1.00  0.00     0.047 A 
HETATM    2  N   UNL     1     -42.157  57.113 -56.906  1.00  0.00    -0.344 N 
HETATM    3  C   UNL     1     -41.736  56.563 -55.725  1.00  0.00     0.119 A 
HETATM    4  C   UNL     1     -41.737  57.276 -54.587  1.00  0.00     0.123 A 
HETATM    5  C   UNL     1     -41.319  56.368 -53.509  1.00  0.00     0.280 A 
HETATM    6  O   UNL     1     -41.223  56.672 -52.334  1.00  0.00    -0.265 OA
HETATM    7  N   UNL     1     -41.083  55.134 -54.137  1.00  0.00    -0.236 N 
HETATM    8  N   UNL     1     -41.309  55.263 -55.525  1.00  0.00    -0.179 NA
HETATM    9  C   UNL     1     -42.165  58.677 -54.587  1.00  0.00     0.193 A 
HETATM   10  O   UNL     1     -42.212  59.378 -53.585  1.00  0.00    -0.287 OA
HETATM   11  C   UNL     1     -42.555  59.243 -55.913  1.00  0.00     0.086 A 
HETATM   12  H   UNL     1     -41.923  56.623 -57.764  1.00  0.00     0.167 HD
HETATM   13  H   UNL     1     -42.009  54.604 -55.867  1.00  0.00     0.155 HD
ENDROOT
BRANCH   1  14
HETATM   14  C   UNL     1     -42.889  58.966 -58.326  1.00  0.00    -0.009 A 
HETATM   15  C   UNL     1     -43.820  58.295 -59.135  1.00  0.00     0.015 A 
HETATM   16  C   UNL     1     -44.169  58.804 -60.389  1.00  0.00     0.024 A 
HETATM   17  C   UNL     1     -43.594  59.988 -60.842  1.00  0.00     0.034 A 
HETATM   18  C   UNL     1     -42.673  60.671 -60.050  1.00  0.00     0.024 A 
HETATM   19 CL   UNL     1     -44.024  60.614 -62.384  1.00  0.00    -0.084 Cl
HETATM   20  C   UNL     1     -42.323  60.161 -58.796  1.00  0.00     0.015 A 
ENDBRANCH   1  14
BRANCH   7  21
HETATM   21  C   UNL     1     -40.644  53.910 -53.588  1.00  0.00     0.055 A 
HETATM   22  C   UNL     1     -40.273  52.835 -54.410  1.00  0.00     0.034 A 
HETATM   23  C   UNL     1     -39.825  51.629 -53.860  1.00  0.00     0.044 A 
HETATM   24  C   UNL     1     -39.747  51.490 -52.483  1.00  0.00     0.116 A 
HETATM   25  F   UNL     1     -39.317  50.337 -51.955  1.00  0.00    -0.206 F 
HETATM   26  C   UNL     1     -40.114  52.532 -51.643  1.00  0.00     0.044 A 
HETATM   27  C   UNL     1     -40.562  53.738 -52.195  1.00  0.00     0.034 A 
ENDBRANCH   7  21
TORSDOF 2
ENDMDL
MODEL 9
REMARK VINA RESULT:      -7.6     16.082     18.191
REMARK  2 active torsions:
REMARK  status: ('A' for Active; 'I' for Inactive)
REMARK    1  A    between atoms: C_2  and  C_3 
REMARK    2  A    between atoms: N_9  and  C_10 
ROOT
HETATM    1  C   UNL     1     -35.630  40.326 -52.020  1.00  0.00     0.047 A 
HETATM    2  N   UNL     1     -35.299  40.097 -53.343  1.00  0.00    -0.344 N 
HETATM    3  C   UNL     1     -36.211  40.267 -54.350  1.00  0.00     0.119 A 
HETATM    4  C   UNL     1     -37.441  40.745 -54.100  1.00  0.00     0.123 A 
HETATM    5  C   UNL     1     -38.120  40.887 -55.397  1.00  0.00     0.280 A 
HETATM    6  O   UNL     1     -39.250  41.312 -55.553  1.00  0.00    -0.265 OA
HETATM    7  N   UNL     1     -37.188  40.447 -56.351  1.00  0.00    -0.236 N 
HETATM    8  N   UNL     1     -36.009  40.026 -55.697  1.00  0.00    -0.179 NA
HETATM    9  C   UNL     1     -37.849  41.073 -52.732  1.00  0.00     0.193 A 
HETATM   10  O   UNL     1     -38.943  41.533 -52.436  1.00  0.00    -0.287 OA
HETATM   11  C   UNL     1     -36.836  40.810 -51.666  1.00  0.00     0.086 A 
HETATM   12  H   UNL     1     -34.483  39.526 -53.538  1.00  0.00     0.167 HD
HETATM   13  H   UNL     1     -35.183  40.527 -56.026  1.00  0.00     0.155 HD
ENDROOT
BRANCH   1  14
HETATM   14  C   UNL     1     -34.604  40.047 -50.998  1.00  0.00    -0.009 A 
HETATM   15  C   UNL     1     -34.850  39.149 -49.947  1.00  0.00     0.015 A 
HETATM   16  C   UNL     1     -33.865  38.887 -48.990  1.00  0.00     0.024 A 
HETATM   17  C   UNL     1     -32.627  39.518 -49.078  1.00  0.00     0.034 A 
HETATM   18  C   UNL     1     -32.363  40.409 -50.116  1.00  0.00     0.024 A 
HETATM   19 CL   UNL     1     -31.416  39.196 -47.900  1.00  0.00    -0.084 Cl
HETATM   20  C   UNL     1     -33.349  40.671 -51.073  1.00  0.00     0.015 A 
ENDBRANCH   1  14
BRANCH   7  21
HETATM   21  C   UNL     1     -37.310  40.347 -57.753  1.00  0.00     0.055 A 
HETATM   22  C   UNL     1     -37.126  41.465 -58.581  1.00  0.00     0.034 A 
HETATM   23  C   UNL     1     -37.234  41.355 -59.972  1.00  0.00     0.044 A 
HETATM   24  C   UNL     1     -37.529  40.127 -60.544  1.00  0.00     0.116 A 
HETATM   25  F   UNL     1     -37.632  40.021 -61.875  1.00  0.00    -0.206 F 
HETATM   26  C   UNL     1     -37.724  39.005 -59.751  1.00  0.00     0.044 A 
HETATM   27  C   UNL     1     -37.615  39.115 -58.360  1.00  0.00     0.034 A 
ENDBRANCH   7  21
TORSDOF 2
ENDMDL
MODEL 10
REMARK VINA RESULT:      -7.6      5.902      7.097
REMARK  2 active torsions:
REMARK  status: ('A' for Active; 'I' for Inactive)
REMARK    1  A    between atoms: C_2  and  C_3 
REMARK    2  A    between atoms: N_9  and  C_10 
ROOT
HETATM    1  C   UNL     1     -44.072  60.418 -51.024  1.00  0.00     0.047 A 
HETATM    2  N   UNL     1     -43.833  59.148 -50.531  1.00  0.00    -0.344 N 
HETATM    3  C   UNL     1     -42.961  58.292 -51.150  1.00  0.00     0.119 A 
HETATM    4  C   UNL     1     -42.241  58.683 -52.214  1.00  0.00     0.123 A 
HETATM    5  C   UNL     1     -41.353  57.565 -52.568  1.00  0.00     0.280 A 
HETATM    6  O   UNL     1     -40.544  57.574 -53.478  1.00  0.00    -0.265 OA
HETATM    7  N   UNL     1     -41.649  56.552 -51.642  1.00  0.00    -0.236 N 
HETATM    8  N   UNL     1     -42.677  56.991 -50.778  1.00  0.00    -0.179 NA
HETATM    9  C   UNL     1     -42.390  60.035 -52.758  1.00  0.00     0.193 A 
HETATM   10  O   UNL     1     -41.750  60.464 -53.709  1.00  0.00    -0.287 OA
HETATM   11  C   UNL     1     -43.398  60.905 -52.083  1.00  0.00     0.086 A 
HETATM   12  H   UNL     1     -44.513  58.747 -49.894  1.00  0.00     0.167 HD
HETATM   13  H   UNL     1     -42.400  56.955 -49.797  1.00  0.00     0.155 HD
ENDROOT
BRANCH   1  14
HETATM   14  C   UNL     1     -45.081  61.242 -50.331  1.00  0.00    -0.009 A 
HETATM   15  C   UNL     1     -45.156  61.274 -48.930  1.00  0.00     0.015 A 
HETATM   16  C   UNL     1     -46.111  62.066 -48.286  1.00  0.00     0.024 A 
HETATM   17  C   UNL     1     -46.996  62.834 -49.039  1.00  0.00     0.034 A 
HETATM   18  C   UNL     1     -46.933  62.819 -50.430  1.00  0.00     0.024 A 
HETATM   19 CL   UNL     1     -48.171  63.808 -48.247  1.00  0.00    -0.084 Cl
HETATM   20  C   UNL     1     -45.978  62.026 -51.074  1.00  0.00     0.015 A 
ENDBRANCH   1  14
BRANCH   7  21
HETATM   21  C   UNL     1     -41.113  55.252 -51.523  1.00  0.00     0.055 A 
HETATM   22  C   UNL     1     -40.552  54.804 -50.317  1.00  0.00     0.034 A 
HETATM   23  C   UNL     1     -40.035  53.509 -50.202  1.00  0.00     0.044 A 
HETATM   24  C   UNL     1     -40.073  52.654 -51.293  1.00  0.00     0.116 A 
HETATM   25  F   UNL     1     -39.579  51.414 -51.183  1.00  0.00    -0.206 F 
HETATM   26  C   UNL     1     -40.614  53.071 -52.501  1.00  0.00     0.044 A 
HETATM   27  C   UNL     1     -41.132  54.366 -52.615  1.00  0.00     0.034 A 
ENDBRANCH   7  21
TORSDOF 2
ENDMDL
