MODEL 1
REMARK VINA RESULT:      -8.5      0.000      0.000
REMARK  5 active torsions:
REMARK  status: ('A' for Active; 'I' for Inactive)
REMARK    1  A    between atoms: C_6  and  N_7 
REMARK       I    between atoms: N_7  and  C_8 
REMARK       I    between atoms: C_8  and  N_9 
REMARK    2  A    between atoms: N_9  and  C_10 
REMARK    3  A    between atoms: C_10  and  C_11 
REMARK    4  A    between atoms: C_13  and  N_14 
REMARK       I    between atoms: N_14  and  C_15 
REMARK    5  A    between atoms: C_15  and  C_16 
ROOT
HETATM    1  C   UNL     1     -44.323  57.089 -52.121  1.00  0.00    -0.038 A 
HETATM    2  C   UNL     1     -44.210  56.686 -53.465  1.00  0.00     0.038 A 
HETATM    3  C   UNL     1     -44.530  57.559 -54.508  1.00  0.00     0.035 A 
HETATM    4  C   UNL     1     -44.942  58.860 -54.201  1.00  0.00     0.029 A 
HETATM    5  C   UNL     1     -45.052  59.276 -52.872  1.00  0.00     0.003 A 
HETATM    6  C   UNL     1     -44.747  58.394 -51.838  1.00  0.00     0.009 A 
ENDROOT
BRANCH   1   7
HETATM    7  C   UNL     1     -43.934  56.157 -51.001  1.00  0.00     0.163 C 
BRANCH   7   8
HETATM    8  N   UNL     1     -42.793  55.331 -51.330  1.00  0.00    -0.339 N 
HETATM    9  C   UNL     1     -41.566  55.690 -50.865  1.00  0.00     0.320 C 
HETATM   10  N   UNL     1     -40.487  54.998 -51.321  1.00  0.00    -0.309 N 
HETATM   11  O   UNL     1     -41.389  56.644 -50.110  1.00  0.00    -0.247 OA
HETATM   12  H   UNL     1     -39.630  55.484 -51.089  1.00  0.00     0.170 HD
HETATM   13  H   UNL     1     -42.775  54.952 -52.265  1.00  0.00     0.164 HD
BRANCH  10  14
HETATM   14  C   UNL     1     -40.347  53.766 -51.983  1.00  0.00     0.037 A 
HETATM   15  C   UNL     1     -40.041  52.559 -51.355  1.00  0.00     0.049 A 
HETATM   16  C   UNL     1     -39.898  51.383 -52.106  1.00  0.00     0.019 A 
HETATM   17  C   UNL     1     -40.053  51.393 -53.500  1.00  0.00    -0.044 A 
HETATM   18 BR   UNL     1     -39.463  49.791 -51.161  1.00  0.00    -0.051 Br
HETATM   19  C   UNL     1     -39.896  50.158 -54.344  1.00  0.00     0.049 C 
HETATM   20  C   UNL     1     -40.331  52.614 -54.127  1.00  0.00     0.010 A 
HETATM   21  C   UNL     1     -40.469  53.785 -53.377  1.00  0.00     0.030 A 
ENDBRANCH  10  14
ENDBRANCH   7   8
ENDBRANCH   1   7
BRANCH   3  22
HETATM   22  N   UNL     1     -44.458  57.214 -55.869  1.00  0.00    -0.321 N 
HETATM   23  C   UNL     1     -43.333  56.965 -56.635  1.00  0.00     0.279 C 
HETATM   24  O   UNL     1     -42.174  56.999 -56.232  1.00  0.00    -0.265 OA
HETATM   25  H   UNL     1     -45.337  57.095 -56.362  1.00  0.00     0.169 HD
BRANCH  23  26
HETATM   26  C   UNL     1     -43.660  56.631 -58.011  1.00  0.00     0.142 A 
HETATM   27  O   UNL     1     -44.821  57.109 -58.564  1.00  0.00    -0.317 OA
HETATM   28  C   UNL     1     -44.872  56.655 -59.843  1.00  0.00     0.143 A 
HETATM   29  C   UNL     1     -43.768  55.887 -60.127  1.00  0.00     0.027 A 
HETATM   30  C   UNL     1     -42.985  55.871 -58.948  1.00  0.00     0.045 A 
ENDBRANCH  23  26
ENDBRANCH   3  22
TORSDOF 5
ENDMDL
MODEL 2
REMARK VINA RESULT:      -8.5      2.192      2.694
REMARK  5 active torsions:
REMARK  status: ('A' for Active; 'I' for Inactive)
REMARK    1  A    between atoms: C_6  and  N_7 
REMARK       I    between atoms: N_7  and  C_8 
REMARK       I    between atoms: C_8  and  N_9 
REMARK    2  A    between atoms: N_9  and  C_10 
REMARK    3  A    between atoms: C_10  and  C_11 
REMARK    4  A    between atoms: C_13  and  N_14 
REMARK       I    between atoms: N_14  and  C_15 
REMARK    5  A    between atoms: C_15  and  C_16 
ROOT
HETATM    1  C   UNL     1     -41.397  57.431 -50.916  1.00  0.00    -0.038 A 
HETATM    2  C   UNL     1     -41.720  56.940 -52.195  1.00  0.00     0.038 A 
HETATM    3  C   UNL     1     -41.838  57.801 -53.289  1.00  0.00     0.035 A 
HETATM    4  C   UNL     1     -41.601  59.167 -53.105  1.00  0.00     0.029 A 
HETATM    5  C   UNL     1     -41.272  59.668 -51.844  1.00  0.00     0.003 A 
HETATM    6  C   UNL     1     -41.174  58.805 -50.754  1.00  0.00     0.009 A 
ENDROOT
BRANCH   1   7
HETATM    7  C   UNL     1     -41.228  56.492 -49.749  1.00  0.00     0.163 C 
BRANCH   7   8
HETATM    8  N   UNL     1     -40.907  55.142 -50.156  1.00  0.00    -0.339 N 
HETATM    9  C   UNL     1     -40.847  54.167 -49.210  1.00  0.00     0.320 C 
HETATM   10  N   UNL     1     -40.381  52.945 -49.587  1.00  0.00    -0.309 N 
HETATM   11  O   UNL     1     -41.130  54.361 -48.030  1.00  0.00    -0.247 OA
HETATM   12  H   UNL     1     -40.173  52.379 -48.773  1.00  0.00     0.170 HD
HETATM   13  H   UNL     1     -40.202  55.052 -50.874  1.00  0.00     0.164 HD
BRANCH  10  14
HETATM   14  C   UNL     1     -40.188  52.335 -50.838  1.00  0.00     0.037 A 
HETATM   15  C   UNL     1     -40.351  52.976 -52.065  1.00  0.00     0.049 A 
HETATM   16  C   UNL     1     -40.159  52.276 -53.265  1.00  0.00     0.019 A 
HETATM   17  C   UNL     1     -39.806  50.918 -53.260  1.00  0.00    -0.044 A 
HETATM   18 BR   UNL     1     -40.421  53.232 -54.887  1.00  0.00    -0.051 Br
HETATM   19  C   UNL     1     -39.603  50.127 -54.522  1.00  0.00     0.049 C 
HETATM   20  C   UNL     1     -39.673  50.273 -52.024  1.00  0.00     0.010 A 
HETATM   21  C   UNL     1     -39.869  50.972 -50.830  1.00  0.00     0.030 A 
ENDBRANCH  10  14
ENDBRANCH   7   8
ENDBRANCH   1   7
BRANCH   3  22
HETATM   22  N   UNL     1     -42.177  57.378 -54.587  1.00  0.00    -0.321 N 
HETATM   23  C   UNL     1     -43.422  57.029 -55.081  1.00  0.00     0.279 C 
HETATM   24  O   UNL     1     -44.470  57.041 -54.443  1.00  0.00    -0.265 OA
HETATM   25  H   UNL     1     -41.430  57.351 -55.273  1.00  0.00     0.169 HD
BRANCH  23  26
HETATM   26  C   UNL     1     -43.376  56.647 -56.482  1.00  0.00     0.142 A 
HETATM   27  O   UNL     1     -43.874  57.504 -57.432  1.00  0.00    -0.317 OA
HETATM   28  C   UNL     1     -43.700  56.906 -58.639  1.00  0.00     0.143 A 
HETATM   29  C   UNL     1     -43.105  55.676 -58.489  1.00  0.00     0.027 A 
HETATM   30  C   UNL     1     -42.895  55.508 -57.099  1.00  0.00     0.045 A 
ENDBRANCH  23  26
ENDBRANCH   3  22
TORSDOF 5
ENDMDL
MODEL 3
REMARK VINA RESULT:      -8.3      3.367      7.319
REMARK  5 active torsions:
REMARK  status: ('A' for Active; 'I' for Inactive)
REMARK    1  A    between atoms: C_6  and  N_7 
REMARK       I    between atoms: N_7  and  C_8 
REMARK       I    between atoms: C_8  and  N_9 
REMARK    2  A    between atoms: N_9  and  C_10 
REMARK    3  A    between atoms: C_10  and  C_11 
REMARK    4  A    between atoms: C_13  and  N_14 
REMARK       I    between atoms: N_14  and  C_15 
REMARK    5  A    between atoms: C_15  and  C_16 
ROOT
HETATM    1  C   UNL     1     -42.857  57.101 -52.756  1.00  0.00    -0.038 A 
HETATM    2  C   UNL     1     -42.208  55.934 -53.200  1.00  0.00     0.038 A 
HETATM    3  C   UNL     1     -42.326  54.731 -52.499  1.00  0.00     0.035 A 
HETATM    4  C   UNL     1     -43.129  54.691 -51.354  1.00  0.00     0.029 A 
HETATM    5  C   UNL     1     -43.786  55.839 -50.906  1.00  0.00     0.003 A 
HETATM    6  C   UNL     1     -43.647  57.038 -51.601  1.00  0.00     0.009 A 
ENDROOT
BRANCH   1   7
HETATM    7  C   UNL     1     -42.760  58.384 -53.541  1.00  0.00     0.163 C 
BRANCH   7   8
HETATM    8  N   UNL     1     -42.923  58.185 -54.964  1.00  0.00    -0.339 N 
HETATM    9  C   UNL     1     -42.328  59.058 -55.822  1.00  0.00     0.320 C 
HETATM   10  N   UNL     1     -42.630  58.953 -57.145  1.00  0.00    -0.309 N 
HETATM   11  O   UNL     1     -41.591  59.967 -55.447  1.00  0.00    -0.247 OA
HETATM   12  H   UNL     1     -42.314  59.774 -57.647  1.00  0.00     0.170 HD
HETATM   13  H   UNL     1     -43.836  57.880 -55.268  1.00  0.00     0.164 HD
BRANCH  10  14
HETATM   14  C   UNL     1     -43.228  57.941 -57.915  1.00  0.00     0.037 A 
HETATM   15  C   UNL     1     -44.535  57.982 -58.400  1.00  0.00     0.049 A 
HETATM   16  C   UNL     1     -45.052  56.910 -59.142  1.00  0.00     0.019 A 
HETATM   17  C   UNL     1     -44.274  55.774 -59.408  1.00  0.00    -0.044 A 
HETATM   18 BR   UNL     1     -46.850  57.052 -59.745  1.00  0.00    -0.051 Br
HETATM   19  C   UNL     1     -44.794  54.598 -60.188  1.00  0.00     0.049 C 
HETATM   20  C   UNL     1     -42.973  55.727 -58.893  1.00  0.00     0.010 A 
HETATM   21  C   UNL     1     -42.461  56.794 -58.150  1.00  0.00     0.030 A 
ENDBRANCH  10  14
ENDBRANCH   7   8
ENDBRANCH   1   7
BRANCH   3  22
HETATM   22  N   UNL     1     -41.689  53.536 -52.878  1.00  0.00    -0.321 N 
HETATM   23  C   UNL     1     -40.510  52.999 -52.393  1.00  0.00     0.279 C 
HETATM   24  O   UNL     1     -39.809  53.494 -51.516  1.00  0.00    -0.265 OA
HETATM   25  H   UNL     1     -42.158  52.964 -53.572  1.00  0.00     0.169 HD
BRANCH  23  26
HETATM   26  C   UNL     1     -40.171  51.738 -53.030  1.00  0.00     0.142 A 
HETATM   27  O   UNL     1     -39.721  50.693 -52.263  1.00  0.00    -0.317 OA
HETATM   28  C   UNL     1     -39.488  49.651 -53.103  1.00  0.00     0.143 A 
HETATM   29  C   UNL     1     -39.773  50.003 -54.400  1.00  0.00     0.027 A 
HETATM   30  C   UNL     1     -40.214  51.347 -54.355  1.00  0.00     0.045 A 
ENDBRANCH  23  26
ENDBRANCH   3  22
TORSDOF 5
ENDMDL
MODEL 4
REMARK VINA RESULT:      -7.9      3.563      7.384
REMARK  5 active torsions:
REMARK  status: ('A' for Active; 'I' for Inactive)
REMARK    1  A    between atoms: C_6  and  N_7 
REMARK       I    between atoms: N_7  and  C_8 
REMARK       I    between atoms: C_8  and  N_9 
REMARK    2  A    between atoms: N_9  and  C_10 
REMARK    3  A    between atoms: C_10  and  C_11 
REMARK    4  A    between atoms: C_13  and  N_14 
REMARK       I    between atoms: N_14  and  C_15 
REMARK    5  A    between atoms: C_15  and  C_16 
ROOT
HETATM    1  C   UNL     1     -41.986  59.055 -54.016  1.00  0.00    -0.038 A 
HETATM    2  C   UNL     1     -41.524  57.734 -54.171  1.00  0.00     0.038 A 
HETATM    3  C   UNL     1     -41.551  56.831 -53.105  1.00  0.00     0.035 A 
HETATM    4  C   UNL     1     -42.073  57.249 -51.876  1.00  0.00     0.029 A 
HETATM    5  C   UNL     1     -42.541  58.553 -51.710  1.00  0.00     0.003 A 
HETATM    6  C   UNL     1     -42.494  59.453 -52.773  1.00  0.00     0.009 A 
ENDROOT
BRANCH   1   7
HETATM    7  C   UNL     1     -41.995  60.011 -55.182  1.00  0.00     0.163 C 
BRANCH   7   8
HETATM    8  N   UNL     1     -42.318  59.365 -56.435  1.00  0.00    -0.339 N 
HETATM    9  C   UNL     1     -41.802  59.871 -57.587  1.00  0.00     0.320 C 
HETATM   10  N   UNL     1     -42.250  59.355 -58.764  1.00  0.00    -0.309 N 
HETATM   11  O   UNL     1     -41.006  60.808 -57.609  1.00  0.00    -0.247 OA
HETATM   12  H   UNL     1     -41.972  59.945 -59.538  1.00  0.00     0.170 HD
HETATM   13  H   UNL     1     -43.267  59.032 -56.530  1.00  0.00     0.164 HD
BRANCH  10  14
HETATM   14  C   UNL     1     -42.953  58.183 -59.092  1.00  0.00     0.037 A 
HETATM   15  C   UNL     1     -44.337  58.107 -59.247  1.00  0.00     0.049 A 
HETATM   16  C   UNL     1     -44.952  56.883 -59.553  1.00  0.00     0.019 A 
HETATM   17  C   UNL     1     -44.195  55.712 -59.703  1.00  0.00    -0.044 A 
HETATM   18 BR   UNL     1     -46.845  56.878 -59.729  1.00  0.00    -0.051 Br
HETATM   19  C   UNL     1     -44.815  54.379 -60.017  1.00  0.00     0.049 C 
HETATM   20  C   UNL     1     -42.809  55.791 -59.515  1.00  0.00     0.010 A 
HETATM   21  C   UNL     1     -42.199  57.010 -59.207  1.00  0.00     0.030 A 
ENDBRANCH  10  14
ENDBRANCH   7   8
ENDBRANCH   1   7
BRANCH   3  22
HETATM   22  N   UNL     1     -41.088  55.506 -53.188  1.00  0.00    -0.321 N 
HETATM   23  C   UNL     1     -41.825  54.345 -53.343  1.00  0.00     0.279 C 
HETATM   24  O   UNL     1     -43.046  54.284 -53.445  1.00  0.00    -0.265 OA
HETATM   25  H   UNL     1     -40.083  55.366 -53.167  1.00  0.00     0.169 HD
BRANCH  23  26
HETATM   26  C   UNL     1     -40.988  53.159 -53.392  1.00  0.00     0.142 A 
HETATM   27  O   UNL     1     -40.246  52.809 -52.291  1.00  0.00    -0.317 OA
HETATM   28  C   UNL     1     -39.572  51.673 -52.608  1.00  0.00     0.143 A 
HETATM   29  C   UNL     1     -39.859  51.283 -53.894  1.00  0.00     0.027 A 
HETATM   30  C   UNL     1     -40.771  52.239 -54.401  1.00  0.00     0.045 A 
ENDBRANCH  23  26
ENDBRANCH   3  22
TORSDOF 5
ENDMDL
MODEL 5
REMARK VINA RESULT:      -7.9      1.504      1.863
REMARK  5 active torsions:
REMARK  status: ('A' for Active; 'I' for Inactive)
REMARK    1  A    between atoms: C_6  and  N_7 
REMARK       I    between atoms: N_7  and  C_8 
REMARK       I    between atoms: C_8  and  N_9 
REMARK    2  A    between atoms: N_9  and  C_10 
REMARK    3  A    between atoms: C_10  and  C_11 
REMARK    4  A    between atoms: C_13  and  N_14 
REMARK       I    between atoms: N_14  and  C_15 
REMARK    5  A    between atoms: C_15  and  C_16 
ROOT
HETATM    1  C   UNL     1     -44.719  58.104 -53.688  1.00  0.00    -0.038 A 
HETATM    2  C   UNL     1     -44.788  57.408 -54.909  1.00  0.00     0.038 A 
HETATM    3  C   UNL     1     -45.193  58.049 -56.083  1.00  0.00     0.035 A 
HETATM    4  C   UNL     1     -45.507  59.411 -56.037  1.00  0.00     0.029 A 
HETATM    5  C   UNL     1     -45.436  60.117 -54.834  1.00  0.00     0.003 A 
HETATM    6  C   UNL     1     -45.048  59.466 -53.665  1.00  0.00     0.009 A 
ENDROOT
BRANCH   1   7
HETATM    7  C   UNL     1     -44.238  57.418 -52.434  1.00  0.00     0.163 C 
BRANCH   7   8
HETATM    8  N   UNL     1     -43.088  56.572 -52.663  1.00  0.00    -0.339 N 
HETATM    9  C   UNL     1     -41.848  57.131 -52.651  1.00  0.00     0.320 C 
HETATM   10  N   UNL     1     -40.798  56.355 -53.033  1.00  0.00    -0.309 N 
HETATM   11  O   UNL     1     -41.650  58.313 -52.377  1.00  0.00    -0.247 OA
HETATM   12  H   UNL     1     -39.977  56.925 -53.198  1.00  0.00     0.170 HD
HETATM   13  H   UNL     1     -43.199  55.852 -53.363  1.00  0.00     0.164 HD
BRANCH  10  14
HETATM   14  C   UNL     1     -40.637  54.967 -53.189  1.00  0.00     0.037 A 
HETATM   15  C   UNL     1     -40.489  54.064 -52.136  1.00  0.00     0.049 A 
HETATM   16  C   UNL     1     -40.310  52.697 -52.393  1.00  0.00     0.019 A 
HETATM   17  C   UNL     1     -40.269  52.208 -53.707  1.00  0.00    -0.044 A 
HETATM   18 BR   UNL     1     -40.102  51.547 -50.893  1.00  0.00    -0.051 Br
HETATM   19  C   UNL     1     -40.066  50.753 -54.026  1.00  0.00     0.049 C 
HETATM   20  C   UNL     1     -40.387  53.125 -54.759  1.00  0.00     0.010 A 
HETATM   21  C   UNL     1     -40.562  54.487 -54.501  1.00  0.00     0.030 A 
ENDBRANCH  10  14
ENDBRANCH   7   8
ENDBRANCH   1   7
BRANCH   3  22
HETATM   22  N   UNL     1     -45.302  57.407 -57.329  1.00  0.00    -0.321 N 
HETATM   23  C   UNL     1     -44.334  57.256 -58.307  1.00  0.00     0.279 C 
HETATM   24  O   UNL     1     -43.180  57.667 -58.236  1.00  0.00    -0.265 OA
HETATM   25  H   UNL     1     -46.188  56.962 -57.543  1.00  0.00     0.169 HD
BRANCH  23  26
HETATM   26  C   UNL     1     -44.822  56.526 -59.463  1.00  0.00     0.142 A 
HETATM   27  O   UNL     1     -46.088  56.771 -59.933  1.00  0.00    -0.317 OA
HETATM   28  C   UNL     1     -46.278  55.965 -61.010  1.00  0.00     0.143 A 
HETATM   29  C   UNL     1     -45.162  55.198 -61.243  1.00  0.00     0.027 A 
HETATM   30  C   UNL     1     -44.222  55.558 -60.248  1.00  0.00     0.045 A 
ENDBRANCH  23  26
ENDBRANCH   3  22
TORSDOF 5
ENDMDL
MODEL 6
REMARK VINA RESULT:      -7.9      3.662      7.567
REMARK  5 active torsions:
REMARK  status: ('A' for Active; 'I' for Inactive)
REMARK    1  A    between atoms: C_6  and  N_7 
REMARK       I    between atoms: N_7  and  C_8 
REMARK       I    between atoms: C_8  and  N_9 
REMARK    2  A    between atoms: N_9  and  C_10 
REMARK    3  A    between atoms: C_10  and  C_11 
REMARK    4  A    between atoms: C_13  and  N_14 
REMARK       I    between atoms: N_14  and  C_15 
REMARK    5  A    between atoms: C_15  and  C_16 
ROOT
HETATM    1  C   UNL     1     -40.899  54.722 -53.454  1.00  0.00    -0.038 A 
HETATM    2  C   UNL     1     -41.330  56.051 -53.285  1.00  0.00     0.038 A 
HETATM    3  C   UNL     1     -41.470  56.608 -52.011  1.00  0.00     0.035 A 
HETATM    4  C   UNL     1     -41.146  55.831 -50.893  1.00  0.00     0.029 A 
HETATM    5  C   UNL     1     -40.710  54.514 -51.046  1.00  0.00     0.003 A 
HETATM    6  C   UNL     1     -40.590  53.961 -52.319  1.00  0.00     0.009 A 
ENDROOT
BRANCH   1   7
HETATM    7  C   UNL     1     -40.709  54.142 -54.832  1.00  0.00     0.163 C 
BRANCH   7   8
HETATM    8  N   UNL     1     -41.395  54.896 -55.859  1.00  0.00    -0.339 N 
HETATM    9  C   UNL     1     -42.718  54.661 -56.072  1.00  0.00     0.320 C 
HETATM   10  N   UNL     1     -43.302  55.256 -57.147  1.00  0.00    -0.309 N 
HETATM   11  O   UNL     1     -43.381  53.892 -55.379  1.00  0.00    -0.247 OA
HETATM   12  H   UNL     1     -44.208  54.842 -57.332  1.00  0.00     0.170 HD
HETATM   13  H   UNL     1     -40.874  55.067 -56.706  1.00  0.00     0.164 HD
BRANCH  10  14
HETATM   14  C   UNL     1     -42.920  56.320 -57.981  1.00  0.00     0.037 A 
HETATM   15  C   UNL     1     -42.634  57.611 -57.538  1.00  0.00     0.049 A 
HETATM   16  C   UNL     1     -42.282  58.615 -58.452  1.00  0.00     0.019 A 
HETATM   17  C   UNL     1     -42.216  58.349 -59.828  1.00  0.00    -0.044 A 
HETATM   18 BR   UNL     1     -41.927  60.347 -57.752  1.00  0.00    -0.051 Br
HETATM   19  C   UNL     1     -41.856  59.398 -60.842  1.00  0.00     0.049 C 
HETATM   20  C   UNL     1     -42.533  57.058 -60.268  1.00  0.00     0.010 A 
HETATM   21  C   UNL     1     -42.887  56.060 -59.356  1.00  0.00     0.030 A 
ENDBRANCH  10  14
ENDBRANCH   7   8
ENDBRANCH   1   7
BRANCH   3  22
HETATM   22  N   UNL     1     -41.914  57.920 -51.773  1.00  0.00    -0.321 N 
HETATM   23  C   UNL     1     -41.226  59.108 -51.954  1.00  0.00     0.279 C 
HETATM   24  O   UNL     1     -40.078  59.209 -52.375  1.00  0.00    -0.265 OA
HETATM   25  H   UNL     1     -42.872  58.033 -51.459  1.00  0.00     0.169 HD
BRANCH  23  26
HETATM   26  C   UNL     1     -42.023  60.270 -51.602  1.00  0.00     0.142 A 
HETATM   27  O   UNL     1     -42.634  60.997 -52.593  1.00  0.00    -0.317 OA
HETATM   28  C   UNL     1     -43.308  62.010 -51.989  1.00  0.00     0.143 A 
HETATM   29  C   UNL     1     -43.141  61.957 -50.626  1.00  0.00     0.027 A 
HETATM   30  C   UNL     1     -42.314  60.836 -50.374  1.00  0.00     0.045 A 
ENDBRANCH  23  26
ENDBRANCH   3  22
TORSDOF 5
ENDMDL
MODEL 7
REMARK VINA RESULT:      -7.6      2.038      2.828
REMARK  5 active torsions:
REMARK  status: ('A' for Active; 'I' for Inactive)
REMARK    1  A    between atoms: C_6  and  N_7 
REMARK       I    between atoms: N_7  and  C_8 
REMARK       I    between atoms: C_8  and  N_9 
REMARK    2  A    between atoms: N_9  and  C_10 
REMARK    3  A    between atoms: C_10  and  C_11 
REMARK    4  A    between atoms: C_13  and  N_14 
REMARK       I    between atoms: N_14  and  C_15 
REMARK    5  A    between atoms: C_15  and  C_16 
ROOT
HETATM    1  C   UNL     1     -44.393  59.444 -53.429  1.00  0.00    -0.038 A 
HETATM    2  C   UNL     1     -44.314  58.468 -54.441  1.00  0.00     0.038 A 
HETATM    3  C   UNL     1     -44.920  58.668 -55.685  1.00  0.00     0.035 A 
HETATM    4  C   UNL     1     -45.589  59.873 -55.926  1.00  0.00     0.029 A 
HETATM    5  C   UNL     1     -45.668  60.853 -54.935  1.00  0.00     0.003 A 
HETATM    6  C   UNL     1     -45.077  60.638 -53.692  1.00  0.00     0.009 A 
ENDROOT
BRANCH   1   7
HETATM    7  C   UNL     1     -43.700  59.240 -52.106  1.00  0.00     0.163 C 
BRANCH   7   8
HETATM    8  N   UNL     1     -43.433  57.848 -51.821  1.00  0.00    -0.339 N 
HETATM    9  C   UNL     1     -44.391  57.109 -51.199  1.00  0.00     0.320 C 
HETATM   10  N   UNL     1     -44.060  55.854 -50.790  1.00  0.00    -0.309 N 
HETATM   11  O   UNL     1     -45.509  57.548 -50.935  1.00  0.00    -0.247 OA
HETATM   12  H   UNL     1     -44.761  55.491 -50.156  1.00  0.00     0.170 HD
HETATM   13  H   UNL     1     -42.495  57.629 -51.518  1.00  0.00     0.164 HD
BRANCH  10  14
HETATM   14  C   UNL     1     -42.997  54.991 -51.108  1.00  0.00     0.037 A 
HETATM   15  C   UNL     1     -42.743  54.482 -52.381  1.00  0.00     0.049 A 
HETATM   16  C   UNL     1     -41.669  53.606 -52.596  1.00  0.00     0.019 A 
HETATM   17  C   UNL     1     -40.833  53.217 -51.539  1.00  0.00    -0.044 A 
HETATM   18 BR   UNL     1     -41.414  52.954 -54.363  1.00  0.00    -0.051 Br
HETATM   19  C   UNL     1     -39.679  52.270 -51.723  1.00  0.00     0.049 C 
HETATM   20  C   UNL     1     -41.112  53.707 -50.258  1.00  0.00     0.010 A 
HETATM   21  C   UNL     1     -42.185  54.578 -50.046  1.00  0.00     0.030 A 
ENDBRANCH  10  14
ENDBRANCH   7   8
ENDBRANCH   1   7
BRANCH   3  22
HETATM   22  N   UNL     1     -44.896  57.728 -56.730  1.00  0.00    -0.321 N 
HETATM   23  C   UNL     1     -44.050  57.679 -57.824  1.00  0.00     0.279 C 
HETATM   24  O   UNL     1     -43.148  58.475 -58.063  1.00  0.00    -0.265 OA
HETATM   25  H   UNL     1     -45.555  56.958 -56.673  1.00  0.00     0.169 HD
BRANCH  23  26
HETATM   26  C   UNL     1     -44.329  56.548 -58.691  1.00  0.00     0.142 A 
HETATM   27  O   UNL     1     -45.502  56.515 -59.404  1.00  0.00    -0.317 OA
HETATM   28  C   UNL     1     -45.500  55.364 -60.125  1.00  0.00     0.143 A 
HETATM   29  C   UNL     1     -44.351  54.647 -59.889  1.00  0.00     0.027 A 
HETATM   30  C   UNL     1     -43.595  55.409 -58.965  1.00  0.00     0.045 A 
ENDBRANCH  23  26
ENDBRANCH   3  22
TORSDOF 5
ENDMDL
MODEL 8
REMARK VINA RESULT:      -7.6     15.205     19.253
REMARK  5 active torsions:
REMARK  status: ('A' for Active; 'I' for Inactive)
REMARK    1  A    between atoms: C_6  and  N_7 
REMARK       I    between atoms: N_7  and  C_8 
REMARK       I    between atoms: C_8  and  N_9 
REMARK    2  A    between atoms: N_9  and  C_10 
REMARK    3  A    between atoms: C_10  and  C_11 
REMARK    4  A    between atoms: C_13  and  N_14 
REMARK       I    between atoms: N_14  and  C_15 
REMARK    5  A    between atoms: C_15  and  C_16 
ROOT
HETATM    1  C   UNL     1     -34.473  39.993 -52.014  1.00  0.00    -0.038 A 
HETATM    2  C   UNL     1     -33.963  40.021 -50.702  1.00  0.00     0.038 A 
HETATM    3  C   UNL     1     -32.593  40.160 -50.464  1.00  0.00     0.035 A 
HETATM    4  C   UNL     1     -31.727  40.300 -51.553  1.00  0.00     0.029 A 
HETATM    5  C   UNL     1     -32.219  40.282 -52.860  1.00  0.00     0.003 A 
HETATM    6  C   UNL     1     -33.584  40.125 -53.089  1.00  0.00     0.009 A 
ENDROOT
BRANCH   1   7
HETATM    7  C   UNL     1     -35.956  39.888 -52.263  1.00  0.00     0.163 C 
BRANCH   7   8
HETATM    8  N   UNL     1     -36.341  40.368 -53.572  1.00  0.00    -0.339 N 
HETATM    9  C   UNL     1     -36.674  41.679 -53.719  1.00  0.00     0.320 C 
HETATM   10  N   UNL     1     -37.191  42.072 -54.914  1.00  0.00    -0.309 N 
HETATM   11  O   UNL     1     -36.588  42.498 -52.805  1.00  0.00    -0.247 OA
HETATM   12  H   UNL     1     -37.602  42.995 -54.836  1.00  0.00     0.170 HD
HETATM   13  H   UNL     1     -36.910  39.743 -54.124  1.00  0.00     0.164 HD
BRANCH  10  14
HETATM   14  C   UNL     1     -37.219  41.482 -56.189  1.00  0.00     0.037 A 
HETATM   15  C   UNL     1     -37.447  40.128 -56.430  1.00  0.00     0.049 A 
HETATM   16  C   UNL     1     -37.432  39.626 -57.740  1.00  0.00     0.019 A 
HETATM   17  C   UNL     1     -37.181  40.469 -58.833  1.00  0.00    -0.044 A 
HETATM   18 BR   UNL     1     -37.738  37.763 -57.966  1.00  0.00    -0.051 Br
HETATM   19  C   UNL     1     -37.143  39.970 -60.251  1.00  0.00     0.049 C 
HETATM   20  C   UNL     1     -36.923  41.822 -58.581  1.00  0.00     0.010 A 
HETATM   21  C   UNL     1     -36.935  42.319 -57.274  1.00  0.00     0.030 A 
ENDBRANCH  10  14
ENDBRANCH   7   8
ENDBRANCH   1   7
BRANCH   3  22
HETATM   22  N   UNL     1     -32.018  40.176 -49.181  1.00  0.00    -0.321 N 
HETATM   23  C   UNL     1     -31.683  39.102 -48.374  1.00  0.00     0.279 C 
HETATM   24  O   UNL     1     -31.833  37.919 -48.664  1.00  0.00    -0.265 OA
HETATM   25  H   UNL     1     -31.779  41.083 -48.794  1.00  0.00     0.169 HD
BRANCH  23  26
HETATM   26  C   UNL     1     -31.100  39.518 -47.110  1.00  0.00     0.142 A 
HETATM   27  O   UNL     1     -30.327  40.650 -47.062  1.00  0.00    -0.317 OA
HETATM   28  C   UNL     1     -29.922  40.804 -45.775  1.00  0.00     0.143 A 
HETATM   29  C   UNL     1     -30.414  39.790 -44.989  1.00  0.00     0.027 A 
HETATM   30  C   UNL     1     -31.174  38.960 -45.847  1.00  0.00     0.045 A 
ENDBRANCH  23  26
ENDBRANCH   3  22
TORSDOF 5
ENDMDL
MODEL 9
REMARK VINA RESULT:      -7.6      3.002      7.309
REMARK  5 active torsions:
REMARK  status: ('A' for Active; 'I' for Inactive)
REMARK    1  A    between atoms: C_6  and  N_7 
REMARK       I    between atoms: N_7  and  C_8 
REMARK       I    between atoms: C_8  and  N_9 
REMARK    2  A    between atoms: N_9  and  C_10 
REMARK    3  A    between atoms: C_10  and  C_11 
REMARK    4  A    between atoms: C_13  and  N_14 
REMARK       I    between atoms: N_14  and  C_15 
REMARK    5  A    between atoms: C_15  and  C_16 
ROOT
HETATM    1  C   UNL     1     -43.519  57.192 -52.213  1.00  0.00    -0.038 A 
HETATM    2  C   UNL     1     -43.079  55.892 -52.527  1.00  0.00     0.038 A 
HETATM    3  C   UNL     1     -41.845  55.419 -52.074  1.00  0.00     0.035 A 
HETATM    4  C   UNL     1     -41.054  56.250 -51.273  1.00  0.00     0.029 A 
HETATM    5  C   UNL     1     -41.480  57.539 -50.948  1.00  0.00     0.003 A 
HETATM    6  C   UNL     1     -42.704  58.009 -51.419  1.00  0.00     0.009 A 
ENDROOT
BRANCH   1   7
HETATM    7  C   UNL     1     -44.871  57.680 -52.668  1.00  0.00     0.163 C 
BRANCH   7   8
HETATM    8  N   UNL     1     -44.940  57.891 -54.097  1.00  0.00    -0.339 N 
HETATM    9  C   UNL     1     -44.653  59.125 -54.593  1.00  0.00     0.320 C 
HETATM   10  N   UNL     1     -44.885  59.348 -55.915  1.00  0.00    -0.309 N 
HETATM   11  O   UNL     1     -44.261  60.055 -53.890  1.00  0.00    -0.247 OA
HETATM   12  H   UNL     1     -44.850  60.339 -56.119  1.00  0.00     0.170 HD
HETATM   13  H   UNL     1     -45.698  57.430 -54.578  1.00  0.00     0.164 HD
BRANCH  10  14
HETATM   14  C   UNL     1     -45.107  58.492 -57.008  1.00  0.00     0.037 A 
HETATM   15  C   UNL     1     -44.112  57.766 -57.661  1.00  0.00     0.049 A 
HETATM   16  C   UNL     1     -44.429  56.954 -58.760  1.00  0.00     0.019 A 
HETATM   17  C   UNL     1     -45.747  56.858 -59.230  1.00  0.00    -0.044 A 
HETATM   18 BR   UNL     1     -43.001  56.017 -59.594  1.00  0.00    -0.051 Br
HETATM   19  C   UNL     1     -46.128  56.011 -60.412  1.00  0.00     0.049 C 
HETATM   20  C   UNL     1     -46.736  57.614 -58.588  1.00  0.00     0.010 A 
HETATM   21  C   UNL     1     -46.417  58.425 -57.496  1.00  0.00     0.030 A 
ENDBRANCH  10  14
ENDBRANCH   7   8
ENDBRANCH   1   7
BRANCH   3  22
HETATM   22  N   UNL     1     -41.339  54.140 -52.367  1.00  0.00    -0.321 N 
HETATM   23  C   UNL     1     -40.585  53.742 -53.457  1.00  0.00     0.279 C 
HETATM   24  O   UNL     1     -40.217  54.470 -54.373  1.00  0.00    -0.265 OA
HETATM   25  H   UNL     1     -41.511  53.409 -51.685  1.00  0.00     0.169 HD
BRANCH  23  26
HETATM   26  C   UNL     1     -40.242  52.331 -53.409  1.00  0.00     0.142 A 
HETATM   27  O   UNL     1     -39.799  51.782 -52.232  1.00  0.00    -0.317 OA
HETATM   28  C   UNL     1     -39.561  50.467 -52.469  1.00  0.00     0.143 A 
HETATM   29  C   UNL     1     -39.836  50.153 -53.778  1.00  0.00     0.027 A 
HETATM   30  C   UNL     1     -40.276  51.353 -54.386  1.00  0.00     0.045 A 
ENDBRANCH  23  26
ENDBRANCH   3  22
TORSDOF 5
ENDMDL
MODEL 10
REMARK VINA RESULT:      -7.2      3.687      7.413
REMARK  5 active torsions:
REMARK  status: ('A' for Active; 'I' for Inactive)
REMARK    1  A    between atoms: C_6  and  N_7 
REMARK       I    between atoms: N_7  and  C_8 
REMARK       I    between atoms: C_8  and  N_9 
REMARK    2  A    between atoms: N_9  and  C_10 
REMARK    3  A    between atoms: C_10  and  C_11 
REMARK    4  A    between atoms: C_13  and  N_14 
REMARK       I    between atoms: N_14  and  C_15 
REMARK    5  A    between atoms: C_15  and  C_16 
ROOT
HETATM    1  C   UNL     1     -42.131  54.867 -52.251  1.00  0.00    -0.038 A 
HETATM    2  C   UNL     1     -42.577  56.199 -52.158  1.00  0.00     0.038 A 
HETATM    3  C   UNL     1     -42.147  57.033 -51.122  1.00  0.00     0.035 A 
HETATM    4  C   UNL     1     -41.236  56.533 -50.184  1.00  0.00     0.029 A 
HETATM    5  C   UNL     1     -40.779  55.217 -50.269  1.00  0.00     0.003 A 
HETATM    6  C   UNL     1     -41.227  54.387 -51.294  1.00  0.00     0.009 A 
ENDROOT
BRANCH   1   7
HETATM    7  C   UNL     1     -42.565  53.987 -53.395  1.00  0.00     0.163 C 
BRANCH   7   8
HETATM    8  N   UNL     1     -42.725  54.715 -54.634  1.00  0.00    -0.339 N 
HETATM    9  C   UNL     1     -41.626  54.966 -55.396  1.00  0.00     0.320 C 
HETATM   10  N   UNL     1     -41.771  55.792 -56.467  1.00  0.00    -0.309 N 
HETATM   11  O   UNL     1     -40.508  54.534 -55.120  1.00  0.00    -0.247 OA
HETATM   12  H   UNL     1     -40.865  56.079 -56.818  1.00  0.00     0.170 HD
HETATM   13  H   UNL     1     -43.387  55.478 -54.618  1.00  0.00     0.164 HD
BRANCH  10  14
HETATM   14  C   UNL     1     -42.892  56.262 -57.172  1.00  0.00     0.037 A 
HETATM   15  C   UNL     1     -43.339  55.744 -58.387  1.00  0.00     0.049 A 
HETATM   16  C   UNL     1     -44.458  56.296 -59.027  1.00  0.00     0.019 A 
HETATM   17  C   UNL     1     -45.147  57.382 -58.468  1.00  0.00    -0.044 A 
HETATM   18 BR   UNL     1     -44.979  55.531 -60.688  1.00  0.00    -0.051 Br
HETATM   19  C   UNL     1     -46.342  58.012 -59.128  1.00  0.00     0.049 C 
HETATM   20  C   UNL     1     -44.675  57.917 -57.263  1.00  0.00     0.010 A 
HETATM   21  C   UNL     1     -43.558  57.367 -56.628  1.00  0.00     0.030 A 
ENDBRANCH  10  14
ENDBRANCH   7   8
ENDBRANCH   1   7
BRANCH   3  22
HETATM   22  N   UNL     1     -42.568  58.364 -50.960  1.00  0.00    -0.321 N 
HETATM   23  C   UNL     1     -41.988  59.517 -51.461  1.00  0.00     0.279 C 
HETATM   24  O   UNL     1     -40.980  59.563 -52.158  1.00  0.00    -0.265 OA
HETATM   25  H   UNL     1     -43.425  58.517 -50.440  1.00  0.00     0.169 HD
BRANCH  23  26
HETATM   26  C   UNL     1     -42.719  60.715 -51.083  1.00  0.00     0.142 A 
HETATM   27  O   UNL     1     -42.918  61.706 -52.012  1.00  0.00    -0.317 OA
HETATM   28  C   UNL     1     -43.624  62.691 -51.400  1.00  0.00     0.143 A 
HETATM   29  C   UNL     1     -43.881  62.360 -50.091  1.00  0.00     0.027 A 
HETATM   30  C   UNL     1     -43.299  61.087 -49.885  1.00  0.00     0.045 A 
ENDBRANCH  23  26
ENDBRANCH   3  22
TORSDOF 5
ENDMDL
