MODEL 1
REMARK VINA RESULT:      -9.1      0.000      0.000
REMARK  3 active torsions:
REMARK  status: ('A' for Active; 'I' for Inactive)
REMARK    1  A    between atoms: C_8  and  C_9 
REMARK    2  A    between atoms: C_14  and  C_15 
REMARK    3  A    between atoms: C_17  and  O_18 
ROOT
HETATM    1  C   UNL     1     -42.890  56.344 -57.125  1.00  0.00     0.143 A 
HETATM    2  N   UNL     1     -42.184  57.064 -56.284  1.00  0.00    -0.223 NA
HETATM    3  C   UNL     1     -42.276  56.454 -55.041  1.00  0.00     0.149 A 
HETATM    4  C   UNL     1     -43.051  55.308 -55.151  1.00  0.00     0.046 A 
HETATM    5  C   UNL     1     -43.530  54.260 -54.206  1.00  0.00     0.070 C 
HETATM    6  C   UNL     1     -43.174  54.434 -52.718  1.00  0.00     0.042 C 
HETATM    7  C   UNL     1     -43.202  55.900 -52.259  1.00  0.00     0.132 C 
HETATM    8  N   UNL     1     -42.028  56.662 -52.617  1.00  0.00    -0.355 N 
HETATM    9  C   UNL     1     -41.603  57.023 -53.869  1.00  0.00     0.272 C 
HETATM   10  O   UNL     1     -40.669  57.819 -53.955  1.00  0.00    -0.266 OA
HETATM   11  N   UNL     1     -43.404  55.254 -56.483  1.00  0.00    -0.341 N 
HETATM   12  H   UNL     1     -43.975  54.544 -56.914  1.00  0.00     0.167 HD
HETATM   13  H   UNL     1     -41.492  57.110 -51.883  1.00  0.00     0.162 HD
ENDROOT
BRANCH   1  14
HETATM   14  C   UNL     1     -43.097  56.697 -58.555  1.00  0.00     0.059 A 
HETATM   15  C   UNL     1     -42.732  57.860 -59.208  1.00  0.00     0.040 A 
HETATM   16  C   UNL     1     -42.063  59.110 -58.786  1.00  0.00     0.071 C 
HETATM   17  N   UNL     1     -43.135  57.678 -60.505  1.00  0.00    -0.281 N 
HETATM   18  H   UNL     1     -43.038  58.320 -61.286  1.00  0.00     0.189 HD
HETATM   19  N   UNL     1     -43.723  56.500 -60.740  1.00  0.00    -0.179 NA
HETATM   20  C   UNL     1     -43.708  55.887 -59.547  1.00  0.00     0.067 A 
HETATM   21  C   UNL     1     -44.280  54.524 -59.403  1.00  0.00     0.073 C 
ENDBRANCH   1  14
BRANCH   6  22
HETATM   22  C   UNL     1     -41.928  53.698 -52.235  1.00  0.00    -0.049 A 
HETATM   23  C   UNL     1     -41.168  52.964 -53.170  1.00  0.00     0.044 A 
HETATM   24  C   UNL     1     -40.028  52.257 -52.781  1.00  0.00     0.068 A 
HETATM   25  C   UNL     1     -39.639  52.281 -51.443  1.00  0.00     0.037 A 
HETATM   26  C   UNL     1     -40.382  52.994 -50.502  1.00  0.00     0.003 A 
HETATM   27  C   UNL     1     -41.521  53.696 -50.894  1.00  0.00     0.007 A 
BRANCH  24  28
HETATM   28  O   UNL     1     -39.221  51.516 -53.600  1.00  0.00    -0.356 OA
HETATM   29  C   UNL     1     -39.795  50.362 -54.199  1.00  0.00     0.210 C 
ENDBRANCH  24  28
ENDBRANCH   6  22
TORSDOF 3
ENDMDL
MODEL 2
REMARK VINA RESULT:      -8.8      1.144      1.974
REMARK  3 active torsions:
REMARK  status: ('A' for Active; 'I' for Inactive)
REMARK    1  A    between atoms: C_8  and  C_9 
REMARK    2  A    between atoms: C_14  and  C_15 
REMARK    3  A    between atoms: C_17  and  O_18 
ROOT
HETATM    1  C   UNL     1     -42.885  56.629 -57.083  1.00  0.00     0.143 A 
HETATM    2  N   UNL     1     -42.203  57.322 -56.200  1.00  0.00    -0.223 NA
HETATM    3  C   UNL     1     -42.333  56.676 -54.980  1.00  0.00     0.149 A 
HETATM    4  C   UNL     1     -43.107  55.536 -55.146  1.00  0.00     0.046 A 
HETATM    5  C   UNL     1     -43.617  54.461 -54.247  1.00  0.00     0.070 C 
HETATM    6  C   UNL     1     -43.305  54.590 -52.745  1.00  0.00     0.042 C 
HETATM    7  C   UNL     1     -43.343  56.042 -52.243  1.00  0.00     0.132 C 
HETATM    8  N   UNL     1     -42.157  56.811 -52.544  1.00  0.00    -0.355 N 
HETATM    9  C   UNL     1     -41.694  57.208 -53.771  1.00  0.00     0.272 C 
HETATM   10  O   UNL     1     -40.756  58.003 -53.807  1.00  0.00    -0.266 OA
HETATM   11  N   UNL     1     -43.421  55.521 -56.489  1.00  0.00    -0.341 N 
HETATM   12  H   UNL     1     -43.980  54.826 -56.957  1.00  0.00     0.167 HD
HETATM   13  H   UNL     1     -41.642  57.236 -51.782  1.00  0.00     0.162 HD
ENDROOT
BRANCH   1  14
HETATM   14  C   UNL     1     -43.050  57.025 -58.508  1.00  0.00     0.059 A 
HETATM   15  C   UNL     1     -42.681  58.213 -59.110  1.00  0.00     0.040 A 
HETATM   16  C   UNL     1     -42.046  59.458 -58.626  1.00  0.00     0.071 C 
HETATM   17  N   UNL     1     -43.037  58.067 -60.426  1.00  0.00    -0.281 N 
HETATM   18  H   UNL     1     -42.923  58.735 -61.182  1.00  0.00     0.189 HD
HETATM   19  N   UNL     1     -43.598  56.888 -60.718  1.00  0.00    -0.179 NA
HETATM   20  C   UNL     1     -43.613  56.237 -59.546  1.00  0.00     0.067 A 
HETATM   21  C   UNL     1     -44.169  54.862 -59.464  1.00  0.00     0.073 C 
ENDBRANCH   1  14
BRANCH   6  22
HETATM   22  C   UNL     1     -42.075  53.837 -52.247  1.00  0.00    -0.049 A 
HETATM   23  C   UNL     1     -41.802  53.825 -50.862  1.00  0.00     0.044 A 
HETATM   24  C   UNL     1     -40.681  53.167 -50.352  1.00  0.00     0.068 A 
HETATM   25  C   UNL     1     -39.819  52.513 -51.230  1.00  0.00     0.037 A 
HETATM   26  C   UNL     1     -40.067  52.521 -52.603  1.00  0.00     0.003 A 
HETATM   27  C   UNL     1     -41.186  53.182 -53.109  1.00  0.00     0.007 A 
BRANCH  24  28
HETATM   28  O   UNL     1     -40.322  53.091 -49.034  1.00  0.00    -0.356 OA
HETATM   29  C   UNL     1     -40.600  54.225 -48.223  1.00  0.00     0.210 C 
ENDBRANCH  24  28
ENDBRANCH   6  22
TORSDOF 3
ENDMDL
MODEL 3
REMARK VINA RESULT:      -8.6      1.380      2.517
REMARK  3 active torsions:
REMARK  status: ('A' for Active; 'I' for Inactive)
REMARK    1  A    between atoms: C_8  and  C_9 
REMARK    2  A    between atoms: C_14  and  C_15 
REMARK    3  A    between atoms: C_17  and  O_18 
ROOT
HETATM    1  C   UNL     1     -43.053  57.408 -56.893  1.00  0.00     0.143 A 
HETATM    2  N   UNL     1     -42.285  57.941 -55.970  1.00  0.00    -0.223 NA
HETATM    3  C   UNL     1     -42.385  57.142 -54.840  1.00  0.00     0.149 A 
HETATM    4  C   UNL     1     -43.231  56.074 -55.109  1.00  0.00     0.046 A 
HETATM    5  C   UNL     1     -43.751  54.914 -54.330  1.00  0.00     0.070 C 
HETATM    6  C   UNL     1     -43.351  54.823 -52.847  1.00  0.00     0.042 C 
HETATM    7  C   UNL     1     -43.280  56.193 -52.155  1.00  0.00     0.132 C 
HETATM    8  N   UNL     1     -42.070  56.936 -52.423  1.00  0.00    -0.355 N 
HETATM    9  C   UNL     1     -41.653  57.473 -53.613  1.00  0.00     0.272 C 
HETATM   10  O   UNL     1     -40.674  58.219 -53.600  1.00  0.00    -0.266 OA
HETATM   11  N   UNL     1     -43.617  56.258 -56.419  1.00  0.00    -0.341 N 
HETATM   12  H   UNL     1     -44.240  55.661 -56.941  1.00  0.00     0.167 HD
HETATM   13  H   UNL     1     -41.492  57.228 -51.645  1.00  0.00     0.162 HD
ENDROOT
BRANCH   1  14
HETATM   14  C   UNL     1     -43.271  58.001 -58.240  1.00  0.00     0.059 A 
HETATM   15  C   UNL     1     -43.011  57.434 -59.474  1.00  0.00     0.040 A 
HETATM   16  C   UNL     1     -42.453  56.137 -59.912  1.00  0.00     0.071 C 
HETATM   17  N   UNL     1     -43.400  58.380 -60.386  1.00  0.00    -0.281 N 
HETATM   18  H   UNL     1     -43.361  58.325 -61.399  1.00  0.00     0.189 HD
HETATM   19  N   UNL     1     -43.888  59.501 -59.844  1.00  0.00    -0.179 NA
HETATM   20  C   UNL     1     -43.813  59.282 -58.523  1.00  0.00     0.067 A 
HETATM   21  C   UNL     1     -44.277  60.320 -57.567  1.00  0.00     0.073 C 
ENDBRANCH   1  14
BRANCH   6  22
HETATM   22  C   UNL     1     -42.141  53.950 -52.529  1.00  0.00    -0.049 A 
HETATM   23  C   UNL     1     -41.794  53.736 -51.178  1.00  0.00     0.044 A 
HETATM   24  C   UNL     1     -40.686  52.961 -50.829  1.00  0.00     0.068 A 
HETATM   25  C   UNL     1     -39.912  52.390 -51.838  1.00  0.00     0.037 A 
HETATM   26  C   UNL     1     -40.234  52.596 -53.179  1.00  0.00     0.003 A 
HETATM   27  C   UNL     1     -41.340  53.373 -53.524  1.00  0.00     0.007 A 
BRANCH  24  28
HETATM   28  O   UNL     1     -40.260  52.691 -49.557  1.00  0.00    -0.356 OA
HETATM   29  C   UNL     1     -40.583  53.643 -48.552  1.00  0.00     0.210 C 
ENDBRANCH  24  28
ENDBRANCH   6  22
TORSDOF 3
ENDMDL
MODEL 4
REMARK VINA RESULT:      -8.5      3.998      5.229
REMARK  3 active torsions:
REMARK  status: ('A' for Active; 'I' for Inactive)
REMARK    1  A    between atoms: C_8  and  C_9 
REMARK    2  A    between atoms: C_14  and  C_15 
REMARK    3  A    between atoms: C_17  and  O_18 
ROOT
HETATM    1  C   UNL     1     -44.200  58.351 -51.890  1.00  0.00     0.143 A 
HETATM    2  N   UNL     1     -42.924  58.527 -51.634  1.00  0.00    -0.223 NA
HETATM    3  C   UNL     1     -42.432  57.324 -51.150  1.00  0.00     0.149 A 
HETATM    4  C   UNL     1     -43.453  56.384 -51.139  1.00  0.00     0.046 A 
HETATM    5  C   UNL     1     -43.573  54.957 -50.724  1.00  0.00     0.070 C 
HETATM    6  C   UNL     1     -42.333  54.297 -50.096  1.00  0.00     0.042 C 
HETATM    7  C   UNL     1     -41.529  55.252 -49.200  1.00  0.00     0.132 C 
HETATM    8  N   UNL     1     -40.666  56.162 -49.918  1.00  0.00    -0.355 N 
HETATM    9  C   UNL     1     -41.026  57.187 -50.754  1.00  0.00     0.272 C 
HETATM   10  O   UNL     1     -40.146  57.958 -51.136  1.00  0.00    -0.266 OA
HETATM   11  N   UNL     1     -44.550  57.056 -51.634  1.00  0.00    -0.341 N 
HETATM   12  H   UNL     1     -45.472  56.670 -51.760  1.00  0.00     0.167 HD
HETATM   13  H   UNL     1     -39.675  56.161 -49.714  1.00  0.00     0.162 HD
ENDROOT
BRANCH   1  14
HETATM   14  C   UNL     1     -45.110  59.426 -52.370  1.00  0.00     0.059 A 
HETATM   15  C   UNL     1     -45.475  59.717 -53.671  1.00  0.00     0.040 A 
HETATM   16  C   UNL     1     -45.132  59.139 -54.989  1.00  0.00     0.071 C 
HETATM   17  N   UNL     1     -46.334  60.780 -53.568  1.00  0.00    -0.281 N 
HETATM   18  H   UNL     1     -46.811  61.273 -54.317  1.00  0.00     0.189 HD
HETATM   19  N   UNL     1     -46.552  61.192 -52.315  1.00  0.00    -0.179 NA
HETATM   20  C   UNL     1     -45.804  60.369 -51.567  1.00  0.00     0.067 A 
HETATM   21  C   UNL     1     -45.787  60.513 -50.089  1.00  0.00     0.073 C 
ENDBRANCH   1  14
BRANCH   6  22
HETATM   22  C   UNL     1     -41.439  53.503 -51.045  1.00  0.00    -0.049 A 
HETATM   23  C   UNL     1     -41.586  53.697 -52.435  1.00  0.00     0.044 A 
HETATM   24  C   UNL     1     -40.808  52.985 -53.351  1.00  0.00     0.068 A 
HETATM   25  C   UNL     1     -39.871  52.068 -52.878  1.00  0.00     0.037 A 
HETATM   26  C   UNL     1     -39.718  51.856 -51.508  1.00  0.00     0.003 A 
HETATM   27  C   UNL     1     -40.498  52.567 -50.596  1.00  0.00     0.007 A 
BRANCH  24  28
HETATM   28  O   UNL     1     -40.867  53.093 -54.714  1.00  0.00    -0.356 OA
HETATM   29  C   UNL     1     -40.186  54.193 -55.304  1.00  0.00     0.210 C 
ENDBRANCH  24  28
ENDBRANCH   6  22
TORSDOF 3
ENDMDL
MODEL 5
REMARK VINA RESULT:      -8.4      4.145      5.272
REMARK  3 active torsions:
REMARK  status: ('A' for Active; 'I' for Inactive)
REMARK    1  A    between atoms: C_8  and  C_9 
REMARK    2  A    between atoms: C_14  and  C_15 
REMARK    3  A    between atoms: C_17  and  O_18 
ROOT
HETATM    1  C   UNL     1     -44.274  58.494 -51.931  1.00  0.00     0.143 A 
HETATM    2  N   UNL     1     -42.986  58.653 -51.732  1.00  0.00    -0.223 NA
HETATM    3  C   UNL     1     -42.483  57.436 -51.295  1.00  0.00     0.149 A 
HETATM    4  C   UNL     1     -43.512  56.505 -51.253  1.00  0.00     0.046 A 
HETATM    5  C   UNL     1     -43.627  55.072 -50.860  1.00  0.00     0.070 C 
HETATM    6  C   UNL     1     -42.365  54.388 -50.304  1.00  0.00     0.042 C 
HETATM    7  C   UNL     1     -41.510  55.319 -49.430  1.00  0.00     0.132 C 
HETATM    8  N   UNL     1     -40.673  56.235 -50.171  1.00  0.00    -0.355 N 
HETATM    9  C   UNL     1     -41.062  57.279 -50.969  1.00  0.00     0.272 C 
HETATM   10  O   UNL     1     -40.194  58.049 -51.378  1.00  0.00    -0.266 OA
HETATM   11  N   UNL     1     -44.625  57.197 -51.683  1.00  0.00    -0.341 N 
HETATM   12  H   UNL     1     -45.556  56.822 -51.771  1.00  0.00     0.167 HD
HETATM   13  H   UNL     1     -39.673  56.221 -50.014  1.00  0.00     0.162 HD
ENDROOT
BRANCH   1  14
HETATM   14  C   UNL     1     -45.195  59.586 -52.346  1.00  0.00     0.059 A 
HETATM   15  C   UNL     1     -45.591  59.927 -53.626  1.00  0.00     0.040 A 
HETATM   16  C   UNL     1     -45.280  59.402 -54.973  1.00  0.00     0.071 C 
HETATM   17  N   UNL     1     -46.448  60.985 -53.461  1.00  0.00    -0.281 N 
HETATM   18  H   UNL     1     -46.942  61.507 -54.178  1.00  0.00     0.189 HD
HETATM   19  N   UNL     1     -46.636  61.348 -52.188  1.00  0.00    -0.179 NA
HETATM   20  C   UNL     1     -45.870  60.496 -51.491  1.00  0.00     0.067 A 
HETATM   21  C   UNL     1     -45.817  60.582 -50.009  1.00  0.00     0.073 C 
ENDBRANCH   1  14
BRANCH   6  22
HETATM   22  C   UNL     1     -41.526  53.606 -51.310  1.00  0.00    -0.049 A 
HETATM   23  C   UNL     1     -40.695  52.567 -50.838  1.00  0.00     0.044 A 
HETATM   24  C   UNL     1     -39.892  51.829 -51.710  1.00  0.00     0.068 A 
HETATM   25  C   UNL     1     -39.915  52.129 -53.071  1.00  0.00     0.037 A 
HETATM   26  C   UNL     1     -40.723  53.157 -53.556  1.00  0.00     0.003 A 
HETATM   27  C   UNL     1     -41.522  53.894 -52.681  1.00  0.00     0.007 A 
BRANCH  24  28
HETATM   28  O   UNL     1     -39.053  50.806 -51.362  1.00  0.00    -0.356 OA
HETATM   29  C   UNL     1     -39.553  49.483 -51.508  1.00  0.00     0.210 C 
ENDBRANCH  24  28
ENDBRANCH   6  22
TORSDOF 3
ENDMDL
MODEL 6
REMARK VINA RESULT:      -8.2     14.915     16.821
REMARK  3 active torsions:
REMARK  status: ('A' for Active; 'I' for Inactive)
REMARK    1  A    between atoms: C_8  and  C_9 
REMARK    2  A    between atoms: C_14  and  C_15 
REMARK    3  A    between atoms: C_17  and  O_18 
ROOT
HETATM    1  C   UNL     1     -37.869  39.027 -60.311  1.00  0.00     0.143 A 
HETATM    2  N   UNL     1     -37.006  38.368 -59.572  1.00  0.00    -0.223 NA
HETATM    3  C   UNL     1     -36.492  39.261 -58.644  1.00  0.00     0.149 A 
HETATM    4  C   UNL     1     -37.090  40.501 -58.822  1.00  0.00     0.046 A 
HETATM    5  C   UNL     1     -36.960  41.841 -58.182  1.00  0.00     0.070 C 
HETATM    6  C   UNL     1     -35.892  41.999 -57.084  1.00  0.00     0.042 C 
HETATM    7  C   UNL     1     -34.612  41.197 -57.368  1.00  0.00     0.132 C 
HETATM    8  N   UNL     1     -34.707  39.789 -57.057  1.00  0.00    -0.355 N 
HETATM    9  C   UNL     1     -35.482  38.838 -57.667  1.00  0.00     0.272 C 
HETATM   10  O   UNL     1     -35.294  37.659 -57.369  1.00  0.00    -0.266 OA
HETATM   11  N   UNL     1     -37.971  40.314 -59.866  1.00  0.00    -0.341 N 
HETATM   12  H   UNL     1     -38.574  41.018 -60.263  1.00  0.00     0.167 HD
HETATM   13  H   UNL     1     -34.048  39.387 -56.401  1.00  0.00     0.162 HD
ENDROOT
BRANCH   1  14
HETATM   14  C   UNL     1     -38.598  38.439 -61.467  1.00  0.00     0.059 A 
HETATM   15  C   UNL     1     -38.122  38.201 -62.743  1.00  0.00     0.040 A 
HETATM   16  C   UNL     1     -36.824  38.424 -63.415  1.00  0.00     0.071 C 
HETATM   17  N   UNL     1     -39.178  37.641 -63.414  1.00  0.00    -0.281 N 
HETATM   18  H   UNL     1     -39.210  37.330 -64.380  1.00  0.00     0.189 HD
HETATM   19  N   UNL     1     -40.286  37.498 -62.679  1.00  0.00    -0.179 NA
HETATM   20  C   UNL     1     -39.943  37.987 -61.478  1.00  0.00     0.067 A 
HETATM   21  C   UNL     1     -40.930  37.995 -60.367  1.00  0.00     0.073 C 
ENDBRANCH   1  14
BRANCH   6  22
HETATM   22  C   UNL     1     -36.375  41.830 -55.647  1.00  0.00    -0.049 A 
HETATM   23  C   UNL     1     -35.581  42.344 -54.599  1.00  0.00     0.044 A 
HETATM   24  C   UNL     1     -35.965  42.202 -53.264  1.00  0.00     0.068 A 
HETATM   25  C   UNL     1     -37.155  41.540 -52.966  1.00  0.00     0.037 A 
HETATM   26  C   UNL     1     -37.949  41.018 -53.987  1.00  0.00     0.003 A 
HETATM   27  C   UNL     1     -37.561  41.159 -55.320  1.00  0.00     0.007 A 
BRANCH  24  28
HETATM   28  O   UNL     1     -35.275  42.659 -52.175  1.00  0.00    -0.356 OA
HETATM   29  C   UNL     1     -34.612  41.688 -51.376  1.00  0.00     0.210 C 
ENDBRANCH  24  28
ENDBRANCH   6  22
TORSDOF 3
ENDMDL
MODEL 7
REMARK VINA RESULT:      -8.0      3.878      7.755
REMARK  3 active torsions:
REMARK  status: ('A' for Active; 'I' for Inactive)
REMARK    1  A    between atoms: C_8  and  C_9 
REMARK    2  A    between atoms: C_14  and  C_15 
REMARK    3  A    between atoms: C_17  and  O_18 
ROOT
HETATM    1  C   UNL     1     -41.596  55.494 -52.487  1.00  0.00     0.143 A 
HETATM    2  N   UNL     1     -41.027  56.671 -52.618  1.00  0.00    -0.223 NA
HETATM    3  C   UNL     1     -42.001  57.549 -53.070  1.00  0.00     0.149 A 
HETATM    4  C   UNL     1     -43.207  56.873 -53.191  1.00  0.00     0.046 A 
HETATM    5  C   UNL     1     -44.583  57.235 -53.636  1.00  0.00     0.070 C 
HETATM    6  C   UNL     1     -44.805  58.667 -54.153  1.00  0.00     0.042 C 
HETATM    7  C   UNL     1     -43.612  59.210 -54.955  1.00  0.00     0.132 C 
HETATM    8  N   UNL     1     -42.514  59.686 -54.146  1.00  0.00    -0.355 N 
HETATM    9  C   UNL     1     -41.684  58.957 -53.334  1.00  0.00     0.272 C 
HETATM   10  O   UNL     1     -40.698  59.520 -52.859  1.00  0.00    -0.266 OA
HETATM   11  N   UNL     1     -42.923  55.584 -52.793  1.00  0.00    -0.341 N 
HETATM   12  H   UNL     1     -43.578  54.818 -52.761  1.00  0.00     0.167 HD
HETATM   13  H   UNL     1     -42.202  60.643 -54.255  1.00  0.00     0.162 HD
ENDROOT
BRANCH   1  14
HETATM   14  C   UNL     1     -40.872  54.259 -52.080  1.00  0.00     0.059 A 
HETATM   15  C   UNL     1     -40.393  53.925 -50.827  1.00  0.00     0.040 A 
HETATM   16  C   UNL     1     -40.395  54.601 -49.511  1.00  0.00     0.071 C 
HETATM   17  N   UNL     1     -39.824  52.688 -50.985  1.00  0.00    -0.281 N 
HETATM   18  H   UNL     1     -39.366  52.117 -50.282  1.00  0.00     0.189 HD
HETATM   19  N   UNL     1     -39.899  52.201 -52.228  1.00  0.00    -0.179 NA
HETATM   20  C   UNL     1     -40.541  53.159 -52.913  1.00  0.00     0.067 A 
HETATM   21  C   UNL     1     -40.824  52.978 -54.360  1.00  0.00     0.073 C 
ENDBRANCH   1  14
BRANCH   6  22
HETATM   22  C   UNL     1     -45.327  59.677 -53.135  1.00  0.00    -0.049 A 
HETATM   23  C   UNL     1     -45.335  59.320 -51.770  1.00  0.00     0.044 A 
HETATM   24  C   UNL     1     -45.818  60.197 -50.796  1.00  0.00     0.068 A 
HETATM   25  C   UNL     1     -46.299  61.446 -51.185  1.00  0.00     0.037 A 
HETATM   26  C   UNL     1     -46.307  61.813 -52.531  1.00  0.00     0.003 A 
HETATM   27  C   UNL     1     -45.827  60.933 -53.501  1.00  0.00     0.007 A 
BRANCH  24  28
HETATM   28  O   UNL     1     -45.873  59.956 -49.450  1.00  0.00    -0.356 OA
HETATM   29  C   UNL     1     -45.485  61.017 -48.588  1.00  0.00     0.210 C 
ENDBRANCH  24  28
ENDBRANCH   6  22
TORSDOF 3
ENDMDL
MODEL 8
REMARK VINA RESULT:      -7.9      3.132      4.144
REMARK  3 active torsions:
REMARK  status: ('A' for Active; 'I' for Inactive)
REMARK    1  A    between atoms: C_8  and  C_9 
REMARK    2  A    between atoms: C_14  and  C_15 
REMARK    3  A    between atoms: C_17  and  O_18 
ROOT
HETATM    1  C   UNL     1     -44.254  58.511 -53.525  1.00  0.00     0.143 A 
HETATM    2  N   UNL     1     -43.013  58.695 -53.136  1.00  0.00    -0.223 NA
HETATM    3  C   UNL     1     -42.590  57.517 -52.538  1.00  0.00     0.149 A 
HETATM    4  C   UNL     1     -43.614  56.582 -52.594  1.00  0.00     0.046 A 
HETATM    5  C   UNL     1     -43.794  55.179 -52.123  1.00  0.00     0.070 C 
HETATM    6  C   UNL     1     -42.638  54.548 -51.326  1.00  0.00     0.042 C 
HETATM    7  C   UNL     1     -41.931  55.546 -50.395  1.00  0.00     0.132 C 
HETATM    8  N   UNL     1     -40.985  56.415 -51.058  1.00  0.00    -0.355 N 
HETATM    9  C   UNL     1     -41.239  57.396 -51.980  1.00  0.00     0.272 C 
HETATM   10  O   UNL     1     -40.314  58.143 -52.300  1.00  0.00    -0.266 OA
HETATM   11  N   UNL     1     -44.642  57.232 -53.243  1.00  0.00    -0.341 N 
HETATM   12  H   UNL     1     -45.549  56.843 -53.451  1.00  0.00     0.167 HD
HETATM   13  H   UNL     1     -40.022  56.421 -50.743  1.00  0.00     0.162 HD
ENDROOT
BRANCH   1  14
HETATM   14  C   UNL     1     -45.094  59.563 -54.158  1.00  0.00     0.059 A 
HETATM   15  C   UNL     1     -45.900  60.499 -53.538  1.00  0.00     0.040 A 
HETATM   16  C   UNL     1     -46.232  60.797 -52.127  1.00  0.00     0.071 C 
HETATM   17  N   UNL     1     -46.440  61.234 -54.561  1.00  0.00    -0.281 N 
HETATM   18  H   UNL     1     -47.086  62.015 -54.496  1.00  0.00     0.189 HD
HETATM   19  N   UNL     1     -46.048  60.851 -55.781  1.00  0.00    -0.179 NA
HETATM   20  C   UNL     1     -45.220  59.823 -55.548  1.00  0.00     0.067 A 
HETATM   21  C   UNL     1     -44.565  59.122 -56.682  1.00  0.00     0.073 C 
ENDBRANCH   1  14
BRANCH   6  22
HETATM   22  C   UNL     1     -41.652  53.704 -52.126  1.00  0.00    -0.049 A 
HETATM   23  C   UNL     1     -40.787  52.831 -51.433  1.00  0.00     0.044 A 
HETATM   24  C   UNL     1     -39.852  52.047 -52.112  1.00  0.00     0.068 A 
HETATM   25  C   UNL     1     -39.776  52.133 -53.501  1.00  0.00     0.037 A 
HETATM   26  C   UNL     1     -40.616  52.996 -54.204  1.00  0.00     0.003 A 
HETATM   27  C   UNL     1     -41.547  53.779 -53.522  1.00  0.00     0.007 A 
BRANCH  24  28
HETATM   28  O   UNL     1     -38.968  51.172 -51.543  1.00  0.00    -0.356 OA
HETATM   29  C   UNL     1     -39.493  49.933 -51.082  1.00  0.00     0.210 C 
ENDBRANCH  24  28
ENDBRANCH   6  22
TORSDOF 3
ENDMDL
MODEL 9
REMARK VINA RESULT:      -7.8      4.377      6.072
REMARK  3 active torsions:
REMARK  status: ('A' for Active; 'I' for Inactive)
REMARK    1  A    between atoms: C_8  and  C_9 
REMARK    2  A    between atoms: C_14  and  C_15 
REMARK    3  A    between atoms: C_17  and  O_18 
ROOT
HETATM    1  C   UNL     1     -44.312  59.351 -51.118  1.00  0.00     0.143 A 
HETATM    2  N   UNL     1     -43.004  59.465 -51.089  1.00  0.00    -0.223 NA
HETATM    3  C   UNL     1     -42.480  58.183 -51.020  1.00  0.00     0.149 A 
HETATM    4  C   UNL     1     -43.520  57.263 -51.031  1.00  0.00     0.046 A 
HETATM    5  C   UNL     1     -43.620  55.777 -50.959  1.00  0.00     0.070 C 
HETATM    6  C   UNL     1     -42.310  54.990 -50.772  1.00  0.00     0.042 C 
HETATM    7  C   UNL     1     -41.305  55.700 -49.852  1.00  0.00     0.132 C 
HETATM    8  N   UNL     1     -40.561  56.763 -50.487  1.00  0.00    -0.355 N 
HETATM    9  C   UNL     1     -41.032  57.961 -50.960  1.00  0.00     0.272 C 
HETATM   10  O   UNL     1     -40.211  58.806 -51.313  1.00  0.00    -0.266 OA
HETATM   11  N   UNL     1     -44.662  58.030 -51.117  1.00  0.00    -0.341 N 
HETATM   12  H   UNL     1     -45.607  57.682 -51.144  1.00  0.00     0.167 HD
HETATM   13  H   UNL     1     -39.549  56.718 -50.493  1.00  0.00     0.162 HD
ENDROOT
BRANCH   1  14
HETATM   14  C   UNL     1     -45.250  60.506 -51.130  1.00  0.00     0.059 A 
HETATM   15  C   UNL     1     -45.715  61.238 -50.053  1.00  0.00     0.040 A 
HETATM   16  C   UNL     1     -45.498  61.168 -48.592  1.00  0.00     0.071 C 
HETATM   17  N   UNL     1     -46.535  62.190 -50.601  1.00  0.00    -0.281 N 
HETATM   18  H   UNL     1     -47.059  62.914 -50.121  1.00  0.00     0.189 HD
HETATM   19  N   UNL     1     -46.632  62.132 -51.934  1.00  0.00    -0.179 NA
HETATM   20  C   UNL     1     -45.848  61.099 -52.272  1.00  0.00     0.067 A 
HETATM   21  C   UNL     1     -45.692  60.718 -53.700  1.00  0.00     0.073 C 
ENDBRANCH   1  14
BRANCH   6  22
HETATM   22  C   UNL     1     -41.657  54.459 -52.044  1.00  0.00    -0.049 A 
HETATM   23  C   UNL     1     -40.971  53.227 -51.992  1.00  0.00     0.044 A 
HETATM   24  C   UNL     1     -40.339  52.702 -53.121  1.00  0.00     0.068 A 
HETATM   25  C   UNL     1     -40.391  53.412 -54.320  1.00  0.00     0.037 A 
HETATM   26  C   UNL     1     -41.056  54.635 -54.389  1.00  0.00     0.003 A 
HETATM   27  C   UNL     1     -41.684  55.158 -53.258  1.00  0.00     0.007 A 
BRANCH  24  28
HETATM   28  O   UNL     1     -39.649  51.522 -53.183  1.00  0.00    -0.356 OA
HETATM   29  C   UNL     1     -39.390  50.861 -51.952  1.00  0.00     0.210 C 
ENDBRANCH  24  28
ENDBRANCH   6  22
TORSDOF 3
ENDMDL
MODEL 10
REMARK VINA RESULT:      -7.6      3.461      5.674
REMARK  3 active torsions:
REMARK  status: ('A' for Active; 'I' for Inactive)
REMARK    1  A    between atoms: C_8  and  C_9 
REMARK    2  A    between atoms: C_14  and  C_15 
REMARK    3  A    between atoms: C_17  and  O_18 
ROOT
HETATM    1  C   UNL     1     -42.131  57.965 -52.328  1.00  0.00     0.143 A 
HETATM    2  N   UNL     1     -43.074  57.051 -52.349  1.00  0.00    -0.223 NA
HETATM    3  C   UNL     1     -42.587  55.973 -53.072  1.00  0.00     0.149 A 
HETATM    4  C   UNL     1     -41.289  56.247 -53.482  1.00  0.00     0.046 A 
HETATM    5  C   UNL     1     -40.260  55.528 -54.286  1.00  0.00     0.070 C 
HETATM    6  C   UNL     1     -40.658  54.172 -54.896  1.00  0.00     0.042 C 
HETATM    7  C   UNL     1     -42.118  54.132 -55.374  1.00  0.00     0.132 C 
HETATM    8  N   UNL     1     -43.088  53.930 -54.322  1.00  0.00    -0.355 N 
HETATM    9  C   UNL     1     -43.409  54.778 -53.294  1.00  0.00     0.272 C 
HETATM   10  O   UNL     1     -44.384  54.500 -52.598  1.00  0.00    -0.266 OA
HETATM   11  N   UNL     1     -41.023  57.501 -52.977  1.00  0.00    -0.341 N 
HETATM   12  H   UNL     1     -40.162  58.013 -53.091  1.00  0.00     0.167 HD
HETATM   13  H   UNL     1     -43.717  53.140 -54.381  1.00  0.00     0.162 HD
ENDROOT
BRANCH   1  14
HETATM   14  C   UNL     1     -42.283  59.306 -51.701  1.00  0.00     0.059 A 
HETATM   15  C   UNL     1     -41.476  59.897 -50.747  1.00  0.00     0.040 A 
HETATM   16  C   UNL     1     -40.258  59.471 -50.023  1.00  0.00     0.071 C 
HETATM   17  N   UNL     1     -42.039  61.126 -50.520  1.00  0.00    -0.281 N 
HETATM   18  H   UNL     1     -41.725  61.849 -49.880  1.00  0.00     0.189 HD
HETATM   19  N   UNL     1     -43.133  61.373 -51.247  1.00  0.00    -0.179 NA
HETATM   20  C   UNL     1     -43.296  60.261 -51.978  1.00  0.00     0.067 A 
HETATM   21  C   UNL     1     -44.428  60.155 -52.934  1.00  0.00     0.073 C 
ENDBRANCH   1  14
BRANCH   6  22
HETATM   22  C   UNL     1     -40.279  52.935 -54.088  1.00  0.00    -0.049 A 
HETATM   23  C   UNL     1     -40.222  53.033 -52.682  1.00  0.00     0.044 A 
HETATM   24  C   UNL     1     -39.863  51.938 -51.893  1.00  0.00     0.068 A 
HETATM   25  C   UNL     1     -39.556  50.728 -52.512  1.00  0.00     0.037 A 
HETATM   26  C   UNL     1     -39.597  50.613 -53.902  1.00  0.00     0.003 A 
HETATM   27  C   UNL     1     -39.954  51.710 -54.686  1.00  0.00     0.007 A 
BRANCH  24  28
HETATM   28  O   UNL     1     -39.776  51.922 -50.528  1.00  0.00    -0.356 OA
HETATM   29  C   UNL     1     -40.437  52.967 -49.827  1.00  0.00     0.210 C 
ENDBRANCH  24  28
ENDBRANCH   6  22
TORSDOF 3
ENDMDL
