MODEL 1
REMARK VINA RESULT:      -7.3      0.000      0.000
REMARK  5 active torsions:
REMARK  status: ('A' for Active; 'I' for Inactive)
REMARK    1  A    between atoms: O_2  and  C_3 
REMARK    2  A    between atoms: C_4  and  C_5 
REMARK    3  A    between atoms: C_5  and  N_6 
REMARK    4  A    between atoms: N_6  and  N_7 
REMARK    5  A    between atoms: N_7  and  C_8 
ROOT
HETATM    1  C   UNL     1     -42.331  54.901 -51.376  1.00  0.00     0.169 C 
HETATM    2  S   UNL     1     -43.707  55.360 -50.474  1.00  0.00    -0.009 SA
HETATM    3  C   UNL     1     -44.096  56.900 -51.179  1.00  0.00     0.229 C 
HETATM    4  O   UNL     1     -45.214  57.372 -51.032  1.00  0.00    -0.279 OA
HETATM    5  C   UNL     1     -43.065  57.643 -51.915  1.00  0.00     0.048 A 
HETATM    6  C   UNL     1     -41.904  57.009 -52.363  1.00  0.00     0.049 A 
HETATM    7  C   UNL     1     -43.286  59.004 -52.188  1.00  0.00     0.018 A 
HETATM    8  C   UNL     1     -42.337  59.739 -52.896  1.00  0.00     0.001 A 
HETATM    9  C   UNL     1     -41.175  59.120 -53.343  1.00  0.00     0.002 A 
HETATM   10  C   UNL     1     -40.966  57.763 -53.083  1.00  0.00     0.030 A 
HETATM   11  N   UNL     1     -41.630  55.697 -52.155  1.00  0.00    -0.335 N 
HETATM   12  H   UNL     1     -40.815  55.263 -52.581  1.00  0.00     0.168 HD
ENDROOT
BRANCH   1  13
HETATM   13  N   UNL     1     -41.927  53.644 -51.238  1.00  0.00    -0.257 N 
HETATM   14  H   UNL     1     -42.461  52.983 -51.806  1.00  0.00     0.191 HD
BRANCH  13  15
HETATM   15  N   UNL     1     -40.859  53.217 -50.412  1.00  0.00    -0.184 NA
BRANCH  15  16
HETATM   16  C   UNL     1     -39.802  52.928 -51.109  1.00  0.00     0.153 C 
BRANCH  16  17
HETATM   17  C   UNL     1     -39.811  51.862 -52.128  1.00  0.00     0.016 A 
HETATM   18  C   UNL     1     -39.984  52.202 -53.480  1.00  0.00     0.080 A 
HETATM   19  C   UNL     1     -39.960  51.181 -54.435  1.00  0.00     0.037 A 
HETATM   20  C   UNL     1     -39.775  49.850 -54.045  1.00  0.00     0.003 A 
HETATM   21  C   UNL     1     -39.614  49.524 -52.700  1.00  0.00     0.001 A 
HETATM   22  C   UNL     1     -39.634  50.529 -51.736  1.00  0.00     0.016 A 
BRANCH  18  23
HETATM   23  O   UNL     1     -40.180  53.528 -53.760  1.00  0.00    -0.355 OA
HETATM   24  C   UNL     1     -40.293  53.891 -55.134  1.00  0.00     0.210 C 
ENDBRANCH  18  23
ENDBRANCH  16  17
ENDBRANCH  15  16
ENDBRANCH  13  15
ENDBRANCH   1  13
TORSDOF 5
ENDMDL
MODEL 2
REMARK VINA RESULT:      -7.2      1.876      2.606
REMARK  5 active torsions:
REMARK  status: ('A' for Active; 'I' for Inactive)
REMARK    1  A    between atoms: O_2  and  C_3 
REMARK    2  A    between atoms: C_4  and  C_5 
REMARK    3  A    between atoms: C_5  and  N_6 
REMARK    4  A    between atoms: N_6  and  N_7 
REMARK    5  A    between atoms: N_7  and  C_8 
ROOT
HETATM    1  C   UNL     1     -42.554  55.570 -53.015  1.00  0.00     0.169 C 
HETATM    2  S   UNL     1     -43.731  56.463 -53.872  1.00  0.00    -0.009 SA
HETATM    3  C   UNL     1     -43.255  58.099 -53.527  1.00  0.00     0.229 C 
HETATM    4  O   UNL     1     -43.647  59.010 -54.239  1.00  0.00    -0.279 OA
HETATM    5  C   UNL     1     -42.414  58.379 -52.355  1.00  0.00     0.048 A 
HETATM    6  C   UNL     1     -41.705  57.357 -51.720  1.00  0.00     0.049 A 
HETATM    7  C   UNL     1     -42.313  59.706 -51.904  1.00  0.00     0.018 A 
HETATM    8  C   UNL     1     -41.515  60.013 -50.805  1.00  0.00     0.001 A 
HETATM    9  C   UNL     1     -40.807  59.004 -50.161  1.00  0.00     0.002 A 
HETATM   10  C   UNL     1     -40.897  57.688 -50.621  1.00  0.00     0.030 A 
HETATM   11  N   UNL     1     -41.737  56.058 -52.108  1.00  0.00    -0.335 N 
HETATM   12  H   UNL     1     -41.130  55.371 -51.669  1.00  0.00     0.168 HD
ENDROOT
BRANCH   1  13
HETATM   13  N   UNL     1     -42.498  54.268 -53.273  1.00  0.00    -0.257 N 
HETATM   14  H   UNL     1     -42.920  53.692 -52.541  1.00  0.00     0.191 HD
BRANCH  13  15
HETATM   15  N   UNL     1     -41.934  53.691 -54.436  1.00  0.00    -0.184 NA
BRANCH  15  16
HETATM   16  C   UNL     1     -40.678  53.406 -54.267  1.00  0.00     0.153 C 
BRANCH  16  17
HETATM   17  C   UNL     1     -40.247  52.152 -53.622  1.00  0.00     0.016 A 
HETATM   18  C   UNL     1     -39.909  52.159 -52.257  1.00  0.00     0.080 A 
HETATM   19  C   UNL     1     -39.531  50.955 -51.656  1.00  0.00     0.037 A 
HETATM   20  C   UNL     1     -39.482  49.774 -52.404  1.00  0.00     0.003 A 
HETATM   21  C   UNL     1     -39.809  49.781 -53.758  1.00  0.00     0.001 A 
HETATM   22  C   UNL     1     -40.190  50.972 -54.373  1.00  0.00     0.016 A 
BRANCH  18  23
HETATM   23  O   UNL     1     -39.967  53.368 -51.616  1.00  0.00    -0.355 OA
HETATM   24  C   UNL     1     -40.405  53.362 -50.260  1.00  0.00     0.210 C 
ENDBRANCH  18  23
ENDBRANCH  16  17
ENDBRANCH  15  16
ENDBRANCH  13  15
ENDBRANCH   1  13
TORSDOF 5
ENDMDL
MODEL 3
REMARK VINA RESULT:      -7.2      3.751      4.825
REMARK  5 active torsions:
REMARK  status: ('A' for Active; 'I' for Inactive)
REMARK    1  A    between atoms: O_2  and  C_3 
REMARK    2  A    between atoms: C_4  and  C_5 
REMARK    3  A    between atoms: C_5  and  N_6 
REMARK    4  A    between atoms: N_6  and  N_7 
REMARK    5  A    between atoms: N_7  and  C_8 
ROOT
HETATM    1  C   UNL     1     -43.352  56.520 -54.936  1.00  0.00     0.169 C 
HETATM    2  S   UNL     1     -42.397  57.903 -54.630  1.00  0.00    -0.009 SA
HETATM    3  C   UNL     1     -42.208  58.563 -56.227  1.00  0.00     0.229 C 
HETATM    4  O   UNL     1     -41.879  59.732 -56.367  1.00  0.00    -0.279 OA
HETATM    5  C   UNL     1     -42.408  57.700 -57.398  1.00  0.00     0.048 A 
HETATM    6  C   UNL     1     -43.076  56.479 -57.285  1.00  0.00     0.049 A 
HETATM    7  C   UNL     1     -41.939  58.144 -58.646  1.00  0.00     0.018 A 
HETATM    8  C   UNL     1     -42.122  57.360 -59.783  1.00  0.00     0.001 A 
HETATM    9  C   UNL     1     -42.781  56.140 -59.682  1.00  0.00     0.002 A 
HETATM   10  C   UNL     1     -43.260  55.708 -58.443  1.00  0.00     0.030 A 
HETATM   11  N   UNL     1     -43.574  55.993 -56.120  1.00  0.00    -0.335 N 
HETATM   12  H   UNL     1     -44.132  55.143 -56.109  1.00  0.00     0.168 HD
ENDROOT
BRANCH   1  13
HETATM   13  N   UNL     1     -43.876  55.918 -53.874  1.00  0.00    -0.257 N 
HETATM   14  H   UNL     1     -44.594  56.475 -53.406  1.00  0.00     0.191 HD
BRANCH  13  15
HETATM   15  N   UNL     1     -43.518  54.630 -53.409  1.00  0.00    -0.184 NA
BRANCH  15  16
HETATM   16  C   UNL     1     -42.392  54.652 -52.761  1.00  0.00     0.153 C 
BRANCH  16  17
HETATM   17  C   UNL     1     -41.392  53.577 -52.905  1.00  0.00     0.016 A 
HETATM   18  C   UNL     1     -40.713  53.110 -51.767  1.00  0.00     0.080 A 
HETATM   19  C   UNL     1     -39.789  52.071 -51.918  1.00  0.00     0.037 A 
HETATM   20  C   UNL     1     -39.545  51.519 -53.180  1.00  0.00     0.003 A 
HETATM   21  C   UNL     1     -40.216  51.997 -54.303  1.00  0.00     0.001 A 
HETATM   22  C   UNL     1     -41.141  53.030 -54.170  1.00  0.00     0.016 A 
BRANCH  18  23
HETATM   23  O   UNL     1     -41.005  53.729 -50.581  1.00  0.00    -0.355 OA
HETATM   24  C   UNL     1     -39.909  54.251 -49.834  1.00  0.00     0.210 C 
ENDBRANCH  18  23
ENDBRANCH  16  17
ENDBRANCH  15  16
ENDBRANCH  13  15
ENDBRANCH   1  13
TORSDOF 5
ENDMDL
MODEL 4
REMARK VINA RESULT:      -7.1      3.823      7.407
REMARK  5 active torsions:
REMARK  status: ('A' for Active; 'I' for Inactive)
REMARK    1  A    between atoms: O_2  and  C_3 
REMARK    2  A    between atoms: C_4  and  C_5 
REMARK    3  A    between atoms: C_5  and  N_6 
REMARK    4  A    between atoms: N_6  and  N_7 
REMARK    5  A    between atoms: N_7  and  C_8 
ROOT
HETATM    1  C   UNL     1     -40.946  54.133 -54.492  1.00  0.00     0.169 C 
HETATM    2  S   UNL     1     -41.163  54.803 -52.935  1.00  0.00    -0.009 SA
HETATM    3  C   UNL     1     -40.333  53.649 -51.935  1.00  0.00     0.229 C 
HETATM    4  O   UNL     1     -39.979  53.964 -50.808  1.00  0.00    -0.279 OA
HETATM    5  C   UNL     1     -40.097  52.289 -52.436  1.00  0.00     0.048 A 
HETATM    6  C   UNL     1     -40.202  51.997 -53.798  1.00  0.00     0.049 A 
HETATM    7  C   UNL     1     -39.733  51.290 -51.518  1.00  0.00     0.018 A 
HETATM    8  C   UNL     1     -39.488  49.990 -51.956  1.00  0.00     0.001 A 
HETATM    9  C   UNL     1     -39.594  49.687 -53.309  1.00  0.00     0.002 A 
HETATM   10  C   UNL     1     -39.941  50.686 -54.222  1.00  0.00     0.030 A 
HETATM   11  N   UNL     1     -40.529  52.911 -54.745  1.00  0.00    -0.335 N 
HETATM   12  H   UNL     1     -40.501  52.669 -55.732  1.00  0.00     0.168 HD
ENDROOT
BRANCH   1  13
HETATM   13  N   UNL     1     -41.265  54.912 -55.519  1.00  0.00    -0.257 N 
HETATM   14  H   UNL     1     -40.482  55.475 -55.859  1.00  0.00     0.191 HD
BRANCH  13  15
HETATM   15  N   UNL     1     -42.543  54.978 -56.125  1.00  0.00    -0.184 NA
BRANCH  15  16
HETATM   16  C   UNL     1     -42.887  56.204 -56.378  1.00  0.00     0.153 C 
BRANCH  16  17
HETATM   17  C   UNL     1     -42.663  56.817 -57.701  1.00  0.00     0.016 A 
HETATM   18  C   UNL     1     -42.263  58.162 -57.780  1.00  0.00     0.080 A 
HETATM   19  C   UNL     1     -42.027  58.717 -59.041  1.00  0.00     0.037 A 
HETATM   20  C   UNL     1     -42.196  57.948 -60.197  1.00  0.00     0.003 A 
HETATM   21  C   UNL     1     -42.603  56.618 -60.108  1.00  0.00     0.001 A 
HETATM   22  C   UNL     1     -42.841  56.049 -58.859  1.00  0.00     0.016 A 
BRANCH  18  23
HETATM   23  O   UNL     1     -42.146  58.838 -56.595  1.00  0.00    -0.355 OA
HETATM   24  C   UNL     1     -42.188  60.262 -56.653  1.00  0.00     0.210 C 
ENDBRANCH  18  23
ENDBRANCH  16  17
ENDBRANCH  15  16
ENDBRANCH  13  15
ENDBRANCH   1  13
TORSDOF 5
ENDMDL
MODEL 5
REMARK VINA RESULT:      -7.0      2.061      6.235
REMARK  5 active torsions:
REMARK  status: ('A' for Active; 'I' for Inactive)
REMARK    1  A    between atoms: O_2  and  C_3 
REMARK    2  A    between atoms: C_4  and  C_5 
REMARK    3  A    between atoms: C_5  and  N_6 
REMARK    4  A    between atoms: N_6  and  N_7 
REMARK    5  A    between atoms: N_7  and  C_8 
ROOT
HETATM    1  C   UNL     1     -42.991  54.998 -51.811  1.00  0.00     0.169 C 
HETATM    2  S   UNL     1     -42.432  54.652 -50.234  1.00  0.00    -0.009 SA
HETATM    3  C   UNL     1     -40.970  53.771 -50.563  1.00  0.00     0.229 C 
HETATM    4  O   UNL     1     -40.120  53.656 -49.692  1.00  0.00    -0.279 OA
HETATM    5  C   UNL     1     -40.783  53.136 -51.873  1.00  0.00     0.048 A 
HETATM    6  C   UNL     1     -41.568  53.504 -52.968  1.00  0.00     0.049 A 
HETATM    7  C   UNL     1     -39.773  52.169 -52.012  1.00  0.00     0.018 A 
HETATM    8  C   UNL     1     -39.556  51.554 -53.243  1.00  0.00     0.001 A 
HETATM    9  C   UNL     1     -40.334  51.908 -54.339  1.00  0.00     0.002 A 
HETATM   10  C   UNL     1     -41.327  52.881 -54.203  1.00  0.00     0.030 A 
HETATM   11  N   UNL     1     -42.548  54.441 -52.917  1.00  0.00    -0.335 N 
HETATM   12  H   UNL     1     -43.027  54.737 -53.763  1.00  0.00     0.168 HD
ENDROOT
BRANCH   1  13
HETATM   13  N   UNL     1     -43.980  55.879 -51.907  1.00  0.00    -0.257 N 
HETATM   14  H   UNL     1     -44.658  55.649 -52.636  1.00  0.00     0.191 HD
BRANCH  13  15
HETATM   15  N   UNL     1     -44.130  57.027 -51.092  1.00  0.00    -0.184 NA
BRANCH  15  16
HETATM   16  C   UNL     1     -43.718  58.099 -51.698  1.00  0.00     0.153 C 
BRANCH  16  17
HETATM   17  C   UNL     1     -42.287  58.449 -51.771  1.00  0.00     0.016 A 
HETATM   18  C   UNL     1     -41.573  58.189 -52.953  1.00  0.00     0.080 A 
HETATM   19  C   UNL     1     -40.225  58.554 -53.015  1.00  0.00     0.037 A 
HETATM   20  C   UNL     1     -39.603  59.158 -51.917  1.00  0.00     0.003 A 
HETATM   21  C   UNL     1     -40.319  59.403 -50.746  1.00  0.00     0.001 A 
HETATM   22  C   UNL     1     -41.663  59.046 -50.669  1.00  0.00     0.016 A 
BRANCH  18  23
HETATM   23  O   UNL     1     -42.263  57.575 -53.965  1.00  0.00    -0.355 OA
HETATM   24  C   UNL     1     -42.272  58.227 -55.232  1.00  0.00     0.210 C 
ENDBRANCH  18  23
ENDBRANCH  16  17
ENDBRANCH  15  16
ENDBRANCH  13  15
ENDBRANCH   1  13
TORSDOF 5
ENDMDL
MODEL 6
REMARK VINA RESULT:      -6.9      4.837      7.487
REMARK  5 active torsions:
REMARK  status: ('A' for Active; 'I' for Inactive)
REMARK    1  A    between atoms: O_2  and  C_3 
REMARK    2  A    between atoms: C_4  and  C_5 
REMARK    3  A    between atoms: C_5  and  N_6 
REMARK    4  A    between atoms: N_6  and  N_7 
REMARK    5  A    between atoms: N_7  and  C_8 
ROOT
HETATM    1  C   UNL     1     -41.442  55.040 -55.054  1.00  0.00     0.169 C 
HETATM    2  S   UNL     1     -42.013  55.871 -53.676  1.00  0.00    -0.009 SA
HETATM    3  C   UNL     1     -41.167  55.057 -52.395  1.00  0.00     0.229 C 
HETATM    4  O   UNL     1     -41.055  55.593 -51.302  1.00  0.00    -0.279 OA
HETATM    5  C   UNL     1     -40.626  53.711 -52.622  1.00  0.00     0.048 A 
HETATM    6  C   UNL     1     -40.462  53.212 -53.916  1.00  0.00     0.049 A 
HETATM    7  C   UNL     1     -40.246  52.944 -51.508  1.00  0.00     0.018 A 
HETATM    8  C   UNL     1     -39.716  51.668 -51.683  1.00  0.00     0.001 A 
HETATM    9  C   UNL     1     -39.552  51.158 -52.966  1.00  0.00     0.002 A 
HETATM   10  C   UNL     1     -39.917  51.929 -54.073  1.00  0.00     0.030 A 
HETATM   11  N   UNL     1     -40.787  53.899 -55.039  1.00  0.00    -0.335 N 
HETATM   12  H   UNL     1     -40.562  53.527 -55.958  1.00  0.00     0.168 HD
ENDROOT
BRANCH   1  13
HETATM   13  N   UNL     1     -41.722  55.585 -56.231  1.00  0.00    -0.257 N 
HETATM   14  H   UNL     1     -40.982  56.197 -56.581  1.00  0.00     0.191 HD
BRANCH  13  15
HETATM   15  N   UNL     1     -42.908  55.361 -56.972  1.00  0.00    -0.184 NA
BRANCH  15  16
HETATM   16  C   UNL     1     -43.013  56.187 -57.968  1.00  0.00     0.153 C 
BRANCH  16  17
HETATM   17  C   UNL     1     -44.082  56.058 -58.976  1.00  0.00     0.016 A 
HETATM   18  C   UNL     1     -45.139  56.985 -58.982  1.00  0.00     0.080 A 
HETATM   19  C   UNL     1     -46.128  56.864 -59.963  1.00  0.00     0.037 A 
HETATM   20  C   UNL     1     -46.066  55.836 -60.909  1.00  0.00     0.003 A 
HETATM   21  C   UNL     1     -45.019  54.917 -60.887  1.00  0.00     0.001 A 
HETATM   22  C   UNL     1     -44.025  55.023 -59.918  1.00  0.00     0.016 A 
BRANCH  18  23
HETATM   23  O   UNL     1     -45.122  57.942 -58.003  1.00  0.00    -0.355 OA
HETATM   24  C   UNL     1     -46.152  58.927 -58.041  1.00  0.00     0.210 C 
ENDBRANCH  18  23
ENDBRANCH  16  17
ENDBRANCH  15  16
ENDBRANCH  13  15
ENDBRANCH   1  13
TORSDOF 5
ENDMDL
MODEL 7
REMARK VINA RESULT:      -6.8      4.133      7.137
REMARK  5 active torsions:
REMARK  status: ('A' for Active; 'I' for Inactive)
REMARK    1  A    between atoms: O_2  and  C_3 
REMARK    2  A    between atoms: C_4  and  C_5 
REMARK    3  A    between atoms: C_5  and  N_6 
REMARK    4  A    between atoms: N_6  and  N_7 
REMARK    5  A    between atoms: N_7  and  C_8 
ROOT
HETATM    1  C   UNL     1     -42.833  54.740 -54.425  1.00  0.00     0.169 C 
HETATM    2  S   UNL     1     -42.950  55.460 -52.880  1.00  0.00    -0.009 SA
HETATM    3  C   UNL     1     -41.569  54.784 -52.069  1.00  0.00     0.229 C 
HETATM    4  O   UNL     1     -41.128  55.324 -51.065  1.00  0.00    -0.279 OA
HETATM    5  C   UNL     1     -40.965  53.544 -52.573  1.00  0.00     0.048 A 
HETATM    6  C   UNL     1     -41.236  53.087 -53.865  1.00  0.00     0.049 A 
HETATM    7  C   UNL     1     -40.081  52.841 -51.738  1.00  0.00     0.018 A 
HETATM    8  C   UNL     1     -39.477  51.668 -52.186  1.00  0.00     0.001 A 
HETATM    9  C   UNL     1     -39.743  51.200 -53.468  1.00  0.00     0.002 A 
HETATM   10  C   UNL     1     -40.611  51.909 -54.302  1.00  0.00     0.030 A 
HETATM   11  N   UNL     1     -42.063  53.720 -54.734  1.00  0.00    -0.335 N 
HETATM   12  H   UNL     1     -42.154  53.395 -55.693  1.00  0.00     0.168 HD
ENDROOT
BRANCH   1  13
HETATM   13  N   UNL     1     -43.618  55.242 -55.371  1.00  0.00    -0.257 N 
HETATM   14  H   UNL     1     -44.325  54.582 -55.702  1.00  0.00     0.191 HD
BRANCH  13  15
HETATM   15  N   UNL     1     -43.531  56.556 -55.889  1.00  0.00    -0.184 NA
BRANCH  15  16
HETATM   16  C   UNL     1     -42.450  56.724 -56.588  1.00  0.00     0.153 C 
BRANCH  16  17
HETATM   17  C   UNL     1     -42.457  57.455 -57.869  1.00  0.00     0.016 A 
HETATM   18  C   UNL     1     -42.817  56.779 -59.047  1.00  0.00     0.080 A 
HETATM   19  C   UNL     1     -42.847  57.496 -60.247  1.00  0.00     0.037 A 
HETATM   20  C   UNL     1     -42.516  58.855 -60.269  1.00  0.00     0.003 A 
HETATM   21  C   UNL     1     -42.151  59.513 -59.096  1.00  0.00     0.001 A 
HETATM   22  C   UNL     1     -42.117  58.814 -57.892  1.00  0.00     0.016 A 
BRANCH  18  23
HETATM   23  O   UNL     1     -43.103  55.445 -58.927  1.00  0.00    -0.355 OA
HETATM   24  C   UNL     1     -44.186  54.941 -59.705  1.00  0.00     0.210 C 
ENDBRANCH  18  23
ENDBRANCH  16  17
ENDBRANCH  15  16
ENDBRANCH  13  15
ENDBRANCH   1  13
TORSDOF 5
ENDMDL
MODEL 8
REMARK VINA RESULT:      -6.6     14.246     16.113
REMARK  5 active torsions:
REMARK  status: ('A' for Active; 'I' for Inactive)
REMARK    1  A    between atoms: O_2  and  C_3 
REMARK    2  A    between atoms: C_4  and  C_5 
REMARK    3  A    between atoms: C_5  and  N_6 
REMARK    4  A    between atoms: N_6  and  N_7 
REMARK    5  A    between atoms: N_7  and  C_8 
ROOT
HETATM    1  C   UNL     1     -35.948  41.609 -53.037  1.00  0.00     0.169 C 
HETATM    2  S   UNL     1     -37.044  40.738 -52.058  1.00  0.00    -0.009 SA
HETATM    3  C   UNL     1     -36.035  40.277 -50.721  1.00  0.00     0.229 C 
HETATM    4  O   UNL     1     -36.544  39.940 -49.662  1.00  0.00    -0.279 OA
HETATM    5  C   UNL     1     -34.576  40.256 -50.884  1.00  0.00     0.048 A 
HETATM    6  C   UNL     1     -33.963  40.920 -51.949  1.00  0.00     0.049 A 
HETATM    7  C   UNL     1     -33.803  39.577 -49.927  1.00  0.00     0.018 A 
HETATM    8  C   UNL     1     -32.415  39.547 -50.041  1.00  0.00     0.001 A 
HETATM    9  C   UNL     1     -31.794  40.200 -51.099  1.00  0.00     0.002 A 
HETATM   10  C   UNL     1     -32.564  40.887 -52.041  1.00  0.00     0.030 A 
HETATM   11  N   UNL     1     -34.640  41.611 -52.901  1.00  0.00    -0.335 N 
HETATM   12  H   UNL     1     -34.141  42.153 -53.601  1.00  0.00     0.168 HD
ENDROOT
BRANCH   1  13
HETATM   13  N   UNL     1     -36.475  42.307 -54.037  1.00  0.00    -0.257 N 
HETATM   14  H   UNL     1     -37.242  42.915 -53.746  1.00  0.00     0.191 HD
BRANCH  13  15
HETATM   15  N   UNL     1     -36.040  42.256 -55.383  1.00  0.00    -0.184 NA
BRANCH  15  16
HETATM   16  C   UNL     1     -37.026  42.429 -56.210  1.00  0.00     0.153 C 
BRANCH  16  17
HETATM   17  C   UNL     1     -37.166  41.618 -57.434  1.00  0.00     0.016 A 
HETATM   18  C   UNL     1     -37.383  40.234 -57.323  1.00  0.00     0.080 A 
HETATM   19  C   UNL     1     -37.543  39.486 -58.493  1.00  0.00     0.037 A 
HETATM   20  C   UNL     1     -37.478  40.106 -59.745  1.00  0.00     0.003 A 
HETATM   21  C   UNL     1     -37.252  41.478 -59.844  1.00  0.00     0.001 A 
HETATM   22  C   UNL     1     -37.093  42.238 -58.688  1.00  0.00     0.016 A 
BRANCH  18  23
HETATM   23  O   UNL     1     -37.410  39.716 -56.055  1.00  0.00    -0.355 OA
HETATM   24  C   UNL     1     -36.449  38.709 -55.746  1.00  0.00     0.210 C 
ENDBRANCH  18  23
ENDBRANCH  16  17
ENDBRANCH  15  16
ENDBRANCH  13  15
ENDBRANCH   1  13
TORSDOF 5
ENDMDL
MODEL 9
REMARK VINA RESULT:      -6.5      2.399      7.612
REMARK  5 active torsions:
REMARK  status: ('A' for Active; 'I' for Inactive)
REMARK    1  A    between atoms: O_2  and  C_3 
REMARK    2  A    between atoms: C_4  and  C_5 
REMARK    3  A    between atoms: C_5  and  N_6 
REMARK    4  A    between atoms: N_6  and  N_7 
REMARK    5  A    between atoms: N_7  and  C_8 
ROOT
HETATM    1  C   UNL     1     -42.865  54.925 -51.839  1.00  0.00     0.169 C 
HETATM    2  S   UNL     1     -42.257  54.666 -50.264  1.00  0.00    -0.009 SA
HETATM    3  C   UNL     1     -40.797  53.780 -50.589  1.00  0.00     0.229 C 
HETATM    4  O   UNL     1     -39.921  53.717 -49.739  1.00  0.00    -0.279 OA
HETATM    5  C   UNL     1     -40.643  53.078 -51.870  1.00  0.00     0.048 A 
HETATM    6  C   UNL     1     -41.464  53.383 -52.959  1.00  0.00     0.049 A 
HETATM    7  C   UNL     1     -39.629  52.113 -51.989  1.00  0.00     0.018 A 
HETATM    8  C   UNL     1     -39.443  51.436 -53.192  1.00  0.00     0.001 A 
HETATM    9  C   UNL     1     -40.257  51.727 -54.281  1.00  0.00     0.002 A 
HETATM   10  C   UNL     1     -41.254  52.698 -54.166  1.00  0.00     0.030 A 
HETATM   11  N   UNL     1     -42.450  54.314 -52.927  1.00  0.00    -0.335 N 
HETATM   12  H   UNL     1     -42.956  54.562 -53.773  1.00  0.00     0.168 HD
ENDROOT
BRANCH   1  13
HETATM   13  N   UNL     1     -43.864  55.792 -51.951  1.00  0.00    -0.257 N 
HETATM   14  H   UNL     1     -44.490  55.590 -52.733  1.00  0.00     0.191 HD
BRANCH  13  15
HETATM   15  N   UNL     1     -44.089  56.892 -51.087  1.00  0.00    -0.184 NA
BRANCH  15  16
HETATM   16  C   UNL     1     -43.843  58.021 -51.680  1.00  0.00     0.153 C 
BRANCH  16  17
HETATM   17  C   UNL     1     -44.081  59.316 -51.014  1.00  0.00     0.016 A 
HETATM   18  C   UNL     1     -43.004  60.195 -50.810  1.00  0.00     0.080 A 
HETATM   19  C   UNL     1     -43.253  61.430 -50.204  1.00  0.00     0.037 A 
HETATM   20  C   UNL     1     -44.548  61.773 -49.803  1.00  0.00     0.003 A 
HETATM   21  C   UNL     1     -45.607  60.890 -50.001  1.00  0.00     0.001 A 
HETATM   22  C   UNL     1     -45.377  59.656 -50.605  1.00  0.00     0.016 A 
BRANCH  18  23
HETATM   23  O   UNL     1     -41.770  59.760 -51.217  1.00  0.00    -0.355 OA
HETATM   24  C   UNL     1     -40.781  59.577 -50.208  1.00  0.00     0.210 C 
ENDBRANCH  18  23
ENDBRANCH  16  17
ENDBRANCH  15  16
ENDBRANCH  13  15
ENDBRANCH   1  13
TORSDOF 5
ENDMDL
MODEL 10
REMARK VINA RESULT:      -6.5      2.127      6.717
REMARK  5 active torsions:
REMARK  status: ('A' for Active; 'I' for Inactive)
REMARK    1  A    between atoms: O_2  and  C_3 
REMARK    2  A    between atoms: C_4  and  C_5 
REMARK    3  A    between atoms: C_5  and  N_6 
REMARK    4  A    between atoms: N_6  and  N_7 
REMARK    5  A    between atoms: N_7  and  C_8 
ROOT
HETATM    1  C   UNL     1     -41.740  55.998 -50.998  1.00  0.00     0.169 C 
HETATM    2  S   UNL     1     -41.867  54.616 -50.001  1.00  0.00    -0.009 SA
HETATM    3  C   UNL     1     -40.969  53.439 -50.912  1.00  0.00     0.229 C 
HETATM    4  O   UNL     1     -40.550  52.432 -50.360  1.00  0.00    -0.279 OA
HETATM    5  C   UNL     1     -40.755  53.642 -52.351  1.00  0.00     0.048 A 
HETATM    6  C   UNL     1     -40.939  54.899 -52.934  1.00  0.00     0.049 A 
HETATM    7  C   UNL     1     -40.329  52.552 -53.127  1.00  0.00     0.018 A 
HETATM    8  C   UNL     1     -40.101  52.709 -54.492  1.00  0.00     0.001 A 
HETATM    9  C   UNL     1     -40.286  53.953 -55.084  1.00  0.00     0.002 A 
HETATM   10  C   UNL     1     -40.695  55.040 -54.308  1.00  0.00     0.030 A 
HETATM   11  N   UNL     1     -41.330  56.001 -52.248  1.00  0.00    -0.335 N 
HETATM   12  H   UNL     1     -41.360  56.911 -52.701  1.00  0.00     0.168 HD
ENDROOT
BRANCH   1  13
HETATM   13  N   UNL     1     -42.125  57.149 -50.461  1.00  0.00    -0.257 N 
HETATM   14  H   UNL     1     -42.685  57.035 -49.614  1.00  0.00     0.191 HD
BRANCH  13  15
HETATM   15  N   UNL     1     -41.805  58.432 -50.969  1.00  0.00    -0.184 NA
BRANCH  15  16
HETATM   16  C   UNL     1     -42.869  59.083 -51.329  1.00  0.00     0.153 C 
BRANCH  16  17
HETATM   17  C   UNL     1     -43.063  59.551 -52.714  1.00  0.00     0.016 A 
HETATM   18  C   UNL     1     -43.614  58.677 -53.666  1.00  0.00     0.080 A 
HETATM   19  C   UNL     1     -43.818  59.147 -54.967  1.00  0.00     0.037 A 
HETATM   20  C   UNL     1     -43.469  60.458 -55.309  1.00  0.00     0.003 A 
HETATM   21  C   UNL     1     -42.914  61.313 -54.359  1.00  0.00     0.001 A 
HETATM   22  C   UNL     1     -42.706  60.861 -53.058  1.00  0.00     0.016 A 
BRANCH  18  23
HETATM   23  O   UNL     1     -43.902  57.407 -53.241  1.00  0.00    -0.355 OA
HETATM   24  C   UNL     1     -44.260  56.454 -54.239  1.00  0.00     0.210 C 
ENDBRANCH  18  23
ENDBRANCH  16  17
ENDBRANCH  15  16
ENDBRANCH  13  15
ENDBRANCH   1  13
TORSDOF 5
ENDMDL
