MODEL 1
REMARK VINA RESULT:      -8.1      0.000      0.000
REMARK  8 active torsions:
REMARK  status: ('A' for Active; 'I' for Inactive)
REMARK    1  A    between atoms: C_7  and  C_8 
REMARK       I    between atoms: C_8  and  N_9 
REMARK    2  A    between atoms: N_9  and  C_10 
REMARK    3  A    between atoms: C_11  and  C_12 
REMARK       I    between atoms: C_12  and  N_13 
REMARK    4  A    between atoms: N_13  and  C_14 
REMARK    5  A    between atoms: C_14  and  C_15 
REMARK    6  A    between atoms: C_15  and  C_16 
REMARK    7  A    between atoms: C_17  and  O_18 
REMARK    8  A    between atoms: C_22  and  O_23 
ROOT
HETATM    1  C   UNL     1     -43.469  56.678 -59.411  1.00  0.00     0.050 A 
HETATM    2  C   UNL     1     -43.446  55.609 -58.499  1.00  0.00     0.058 A 
HETATM    3  C   UNL     1     -44.131  54.417 -58.805  1.00  0.00     0.019 A 
HETATM    4  C   UNL     1     -44.837  54.290 -60.001  1.00  0.00     0.001 A 
HETATM    5  C   UNL     1     -44.896  55.362 -60.885  1.00  0.00     0.002 A 
HETATM    6  C   UNL     1     -44.231  56.552 -60.584  1.00  0.00     0.030 A 
ENDROOT
BRANCH   2   7
HETATM    7  C   UNL     1     -42.901  55.739 -57.117  1.00  0.00     0.253 C 
HETATM    8  N   UNL     1     -43.267  54.727 -56.250  1.00  0.00    -0.356 N 
HETATM    9  H   UNL     1     -43.599  53.872 -56.676  1.00  0.00     0.162 HD
HETATM   10  O   UNL     1     -42.220  56.708 -56.803  1.00  0.00    -0.268 OA
BRANCH   8  11
HETATM   11  C   UNL     1     -42.721  54.622 -54.908  1.00  0.00     0.127 C 
BRANCH  11  12
HETATM   12  C   UNL     1     -41.801  53.412 -54.695  1.00  0.00     0.061 C 
BRANCH  12  13
HETATM   13  C   UNL     1     -41.262  53.200 -53.287  1.00  0.00    -0.021 A 
HETATM   14  C   UNL     1     -40.223  52.266 -53.082  1.00  0.00     0.074 A 
HETATM   15  C   UNL     1     -39.692  52.084 -51.802  1.00  0.00     0.040 A 
HETATM   16  C   UNL     1     -40.204  52.797 -50.718  1.00  0.00     0.039 A 
HETATM   17  C   UNL     1     -41.258  53.691 -50.892  1.00  0.00     0.068 A 
HETATM   18  C   UNL     1     -41.785  53.886 -52.171  1.00  0.00     0.046 A 
BRANCH  14  19
HETATM   19  O   UNL     1     -39.782  51.601 -54.197  1.00  0.00    -0.355 OA
HETATM   20  C   UNL     1     -40.014  50.199 -54.246  1.00  0.00     0.210 C 
ENDBRANCH  14  19
BRANCH  17  21
HETATM   21  O   UNL     1     -41.672  54.313 -49.746  1.00  0.00    -0.356 OA
HETATM   22  C   UNL     1     -41.383  55.699 -49.623  1.00  0.00     0.210 C 
ENDBRANCH  17  21
ENDBRANCH  12  13
ENDBRANCH  11  12
ENDBRANCH   8  11
ENDBRANCH   2   7
BRANCH   1  23
HETATM   23  N   UNL     1     -42.789  57.903 -59.255  1.00  0.00    -0.321 N 
HETATM   24  C   UNL     1     -43.364  59.114 -58.918  1.00  0.00     0.265 C 
HETATM   25  O   UNL     1     -44.525  59.254 -58.542  1.00  0.00    -0.267 OA
HETATM   26  H   UNL     1     -41.778  57.876 -59.185  1.00  0.00     0.169 HD
BRANCH  24  27
HETATM   27  C   UNL     1     -42.376  60.268 -58.917  1.00  0.00     0.097 C 
HETATM   28  C   UNL     1     -41.773  60.670 -57.772  1.00  0.00     0.064 C 
HETATM   29  C   UNL     1     -42.108  60.113 -56.413  1.00  0.00     0.078 C 
HETATM   30  O   UNL     1     -40.819  61.672 -57.673  1.00  0.00    -0.353 OA
HETATM   31  C   UNL     1     -40.185  62.090 -58.882  1.00  0.00     0.185 C 
HETATM   32  C   UNL     1     -41.198  62.499 -59.930  1.00  0.00     0.106 C 
HETATM   33  S   UNL     1     -42.071  61.011 -60.475  1.00  0.00    -0.120 SA
ENDBRANCH  24  27
ENDBRANCH   1  23
TORSDOF 8
ENDMDL
MODEL 2
REMARK VINA RESULT:      -8.1      2.907      3.906
REMARK  8 active torsions:
REMARK  status: ('A' for Active; 'I' for Inactive)
REMARK    1  A    between atoms: C_7  and  C_8 
REMARK       I    between atoms: C_8  and  N_9 
REMARK    2  A    between atoms: N_9  and  C_10 
REMARK    3  A    between atoms: C_11  and  C_12 
REMARK       I    between atoms: C_12  and  N_13 
REMARK    4  A    between atoms: N_13  and  C_14 
REMARK    5  A    between atoms: C_14  and  C_15 
REMARK    6  A    between atoms: C_15  and  C_16 
REMARK    7  A    between atoms: C_17  and  O_18 
REMARK    8  A    between atoms: C_22  and  O_23 
ROOT
HETATM    1  C   UNL     1     -43.736  57.755 -56.321  1.00  0.00     0.050 A 
HETATM    2  C   UNL     1     -43.054  56.549 -56.558  1.00  0.00     0.058 A 
HETATM    3  C   UNL     1     -43.192  55.904 -57.803  1.00  0.00     0.019 A 
HETATM    4  C   UNL     1     -44.004  56.447 -58.799  1.00  0.00     0.001 A 
HETATM    5  C   UNL     1     -44.713  57.617 -58.550  1.00  0.00     0.002 A 
HETATM    6  C   UNL     1     -44.593  58.256 -57.315  1.00  0.00     0.030 A 
ENDROOT
BRANCH   2   7
HETATM    7  C   UNL     1     -42.344  55.798 -55.483  1.00  0.00     0.253 C 
HETATM    8  N   UNL     1     -41.037  55.460 -55.776  1.00  0.00    -0.356 N 
HETATM    9  H   UNL     1     -40.595  55.985 -56.519  1.00  0.00     0.162 HD
HETATM   10  O   UNL     1     -42.927  55.484 -54.452  1.00  0.00    -0.268 OA
BRANCH   8  11
HETATM   11  C   UNL     1     -40.158  54.847 -54.796  1.00  0.00     0.127 C 
BRANCH  11  12
HETATM   12  C   UNL     1     -40.470  53.372 -54.505  1.00  0.00     0.061 C 
BRANCH  12  13
HETATM   13  C   UNL     1     -40.426  52.937 -53.045  1.00  0.00    -0.021 A 
HETATM   14  C   UNL     1     -39.776  51.730 -52.708  1.00  0.00     0.074 A 
HETATM   15  C   UNL     1     -39.694  51.332 -51.371  1.00  0.00     0.040 A 
HETATM   16  C   UNL     1     -40.279  52.106 -50.368  1.00  0.00     0.039 A 
HETATM   17  C   UNL     1     -40.962  53.278 -50.686  1.00  0.00     0.068 A 
HETATM   18  C   UNL     1     -41.037  53.686 -52.019  1.00  0.00     0.046 A 
BRANCH  14  19
HETATM   19  O   UNL     1     -39.235  51.025 -53.752  1.00  0.00    -0.355 OA
HETATM   20  C   UNL     1     -39.950  49.879 -54.196  1.00  0.00     0.210 C 
ENDBRANCH  14  19
BRANCH  17  21
HETATM   21  O   UNL     1     -41.499  53.932 -49.610  1.00  0.00    -0.356 OA
HETATM   22  C   UNL     1     -40.649  54.134 -48.488  1.00  0.00     0.210 C 
ENDBRANCH  17  21
ENDBRANCH  12  13
ENDBRANCH  11  12
ENDBRANCH   8  11
ENDBRANCH   2   7
BRANCH   1  23
HETATM   23  N   UNL     1     -43.648  58.527 -55.145  1.00  0.00    -0.321 N 
HETATM   24  C   UNL     1     -42.583  59.329 -54.778  1.00  0.00     0.265 C 
HETATM   25  O   UNL     1     -41.637  59.607 -55.509  1.00  0.00    -0.267 OA
HETATM   26  H   UNL     1     -44.498  58.678 -54.614  1.00  0.00     0.169 HD
BRANCH  24  27
HETATM   27  C   UNL     1     -42.754  59.963 -53.408  1.00  0.00     0.097 C 
HETATM   28  C   UNL     1     -42.231  59.383 -52.301  1.00  0.00     0.064 C 
HETATM   29  C   UNL     1     -41.561  58.033 -52.303  1.00  0.00     0.078 C 
HETATM   30  O   UNL     1     -42.282  59.905 -51.017  1.00  0.00    -0.353 OA
HETATM   31  C   UNL     1     -42.615  61.288 -50.889  1.00  0.00     0.185 C 
HETATM   32  C   UNL     1     -43.916  61.615 -51.589  1.00  0.00     0.106 C 
HETATM   33  S   UNL     1     -43.644  61.472 -53.372  1.00  0.00    -0.120 SA
ENDBRANCH  24  27
ENDBRANCH   1  23
TORSDOF 8
ENDMDL
MODEL 3
REMARK VINA RESULT:      -7.9      3.138      7.234
REMARK  8 active torsions:
REMARK  status: ('A' for Active; 'I' for Inactive)
REMARK    1  A    between atoms: C_7  and  C_8 
REMARK       I    between atoms: C_8  and  N_9 
REMARK    2  A    between atoms: N_9  and  C_10 
REMARK    3  A    between atoms: C_11  and  C_12 
REMARK       I    between atoms: C_12  and  N_13 
REMARK    4  A    between atoms: N_13  and  C_14 
REMARK    5  A    between atoms: C_14  and  C_15 
REMARK    6  A    between atoms: C_15  and  C_16 
REMARK    7  A    between atoms: C_17  and  O_18 
REMARK    8  A    between atoms: C_22  and  O_23 
ROOT
HETATM    1  C   UNL     1     -41.501  53.693 -53.899  1.00  0.00     0.050 A 
HETATM    2  C   UNL     1     -41.222  53.896 -52.536  1.00  0.00     0.058 A 
HETATM    3  C   UNL     1     -40.363  53.007 -51.861  1.00  0.00     0.019 A 
HETATM    4  C   UNL     1     -39.793  51.923 -52.529  1.00  0.00     0.001 A 
HETATM    5  C   UNL     1     -40.102  51.696 -53.866  1.00  0.00     0.002 A 
HETATM    6  C   UNL     1     -40.962  52.565 -54.540  1.00  0.00     0.030 A 
ENDROOT
BRANCH   2   7
HETATM    7  C   UNL     1     -41.952  54.894 -51.703  1.00  0.00     0.253 C 
HETATM    8  N   UNL     1     -41.161  55.887 -51.158  1.00  0.00    -0.356 N 
HETATM    9  H   UNL     1     -40.258  56.029 -51.592  1.00  0.00     0.162 HD
HETATM   10  O   UNL     1     -43.156  54.780 -51.505  1.00  0.00    -0.268 OA
BRANCH   8  11
HETATM   11  C   UNL     1     -41.722  57.013 -50.432  1.00  0.00     0.127 C 
BRANCH  11  12
HETATM   12  C   UNL     1     -40.985  58.340 -50.661  1.00  0.00     0.061 C 
BRANCH  12  13
HETATM   13  C   UNL     1     -41.535  59.250 -51.752  1.00  0.00    -0.021 A 
HETATM   14  C   UNL     1     -42.355  60.340 -51.389  1.00  0.00     0.074 A 
HETATM   15  C   UNL     1     -42.839  61.206 -52.373  1.00  0.00     0.040 A 
HETATM   16  C   UNL     1     -42.543  60.982 -53.717  1.00  0.00     0.039 A 
HETATM   17  C   UNL     1     -41.772  59.886 -54.100  1.00  0.00     0.068 A 
HETATM   18  C   UNL     1     -41.275  59.025 -53.120  1.00  0.00     0.046 A 
BRANCH  14  19
HETATM   19  O   UNL     1     -42.604  60.486 -50.048  1.00  0.00    -0.355 OA
HETATM   20  C   UNL     1     -43.776  61.206 -49.685  1.00  0.00     0.210 C 
ENDBRANCH  14  19
BRANCH  17  21
HETATM   21  O   UNL     1     -41.569  59.777 -55.449  1.00  0.00    -0.356 OA
HETATM   22  C   UNL     1     -42.434  60.525 -56.294  1.00  0.00     0.210 C 
ENDBRANCH  17  21
ENDBRANCH  12  13
ENDBRANCH  11  12
ENDBRANCH   8  11
ENDBRANCH   2   7
BRANCH   1  23
HETATM   23  N   UNL     1     -42.297  54.530 -54.706  1.00  0.00    -0.321 N 
HETATM   24  C   UNL     1     -42.000  55.831 -55.068  1.00  0.00     0.265 C 
HETATM   25  O   UNL     1     -40.918  56.378 -54.874  1.00  0.00    -0.267 OA
HETATM   26  H   UNL     1     -43.050  54.102 -55.233  1.00  0.00     0.169 HD
BRANCH  24  27
HETATM   27  C   UNL     1     -43.104  56.498 -55.870  1.00  0.00     0.097 C 
HETATM   28  C   UNL     1     -44.131  57.129 -55.252  1.00  0.00     0.064 C 
HETATM   29  C   UNL     1     -44.337  57.123 -53.759  1.00  0.00     0.078 C 
HETATM   30  O   UNL     1     -45.156  57.814 -55.888  1.00  0.00    -0.353 OA
HETATM   31  C   UNL     1     -44.956  58.161 -57.258  1.00  0.00     0.185 C 
HETATM   32  C   UNL     1     -44.601  56.949 -58.094  1.00  0.00     0.106 C 
HETATM   33  S   UNL     1     -42.945  56.403 -57.613  1.00  0.00    -0.120 SA
ENDBRANCH  24  27
ENDBRANCH   1  23
TORSDOF 8
ENDMDL
MODEL 4
REMARK VINA RESULT:      -7.9      3.619      6.806
REMARK  8 active torsions:
REMARK  status: ('A' for Active; 'I' for Inactive)
REMARK    1  A    between atoms: C_7  and  C_8 
REMARK       I    between atoms: C_8  and  N_9 
REMARK    2  A    between atoms: N_9  and  C_10 
REMARK    3  A    between atoms: C_11  and  C_12 
REMARK       I    between atoms: C_12  and  N_13 
REMARK    4  A    between atoms: N_13  and  C_14 
REMARK    5  A    between atoms: C_14  and  C_15 
REMARK    6  A    between atoms: C_15  and  C_16 
REMARK    7  A    between atoms: C_17  and  O_18 
REMARK    8  A    between atoms: C_22  and  O_23 
ROOT
HETATM    1  C   UNL     1     -40.809  54.217 -53.949  1.00  0.00     0.050 A 
HETATM    2  C   UNL     1     -40.793  54.076 -52.551  1.00  0.00     0.058 A 
HETATM    3  C   UNL     1     -40.307  52.885 -51.976  1.00  0.00     0.019 A 
HETATM    4  C   UNL     1     -39.848  51.843 -52.780  1.00  0.00     0.001 A 
HETATM    5  C   UNL     1     -39.903  51.964 -54.165  1.00  0.00     0.002 A 
HETATM    6  C   UNL     1     -40.394  53.135 -54.744  1.00  0.00     0.030 A 
ENDROOT
BRANCH   2   7
HETATM    7  C   UNL     1     -41.459  55.046 -51.634  1.00  0.00     0.253 C 
HETATM    8  N   UNL     1     -42.820  55.184 -51.824  1.00  0.00    -0.356 N 
HETATM    9  H   UNL     1     -43.280  54.436 -52.326  1.00  0.00     0.162 HD
HETATM   10  O   UNL     1     -40.804  55.684 -50.819  1.00  0.00    -0.268 OA
BRANCH   8  11
HETATM   11  C   UNL     1     -43.648  55.981 -50.936  1.00  0.00     0.127 C 
BRANCH  11  12
HETATM   12  C   UNL     1     -44.277  57.215 -51.599  1.00  0.00     0.061 C 
BRANCH  12  13
HETATM   13  C   UNL     1     -43.649  58.564 -51.271  1.00  0.00    -0.021 A 
HETATM   14  C   UNL     1     -44.484  59.693 -51.125  1.00  0.00     0.074 A 
HETATM   15  C   UNL     1     -43.930  60.931 -50.789  1.00  0.00     0.040 A 
HETATM   16  C   UNL     1     -42.551  61.066 -50.628  1.00  0.00     0.039 A 
HETATM   17  C   UNL     1     -41.706  59.973 -50.811  1.00  0.00     0.068 A 
HETATM   18  C   UNL     1     -42.255  58.731 -51.135  1.00  0.00     0.046 A 
BRANCH  14  19
HETATM   19  O   UNL     1     -45.826  59.477 -51.307  1.00  0.00    -0.355 OA
HETATM   20  C   UNL     1     -46.602  60.582 -51.755  1.00  0.00     0.210 C 
ENDBRANCH  14  19
BRANCH  17  21
HETATM   21  O   UNL     1     -40.377  60.247 -50.637  1.00  0.00    -0.356 OA
HETATM   22  C   UNL     1     -39.459  59.202 -50.932  1.00  0.00     0.210 C 
ENDBRANCH  17  21
ENDBRANCH  12  13
ENDBRANCH  11  12
ENDBRANCH   8  11
ENDBRANCH   2   7
BRANCH   1  23
HETATM   23  N   UNL     1     -41.218  55.368 -54.652  1.00  0.00    -0.321 N 
HETATM   24  C   UNL     1     -42.505  55.648 -55.073  1.00  0.00     0.265 C 
HETATM   25  O   UNL     1     -43.500  55.008 -54.744  1.00  0.00    -0.267 OA
HETATM   26  H   UNL     1     -40.578  56.153 -54.687  1.00  0.00     0.169 HD
BRANCH  24  27
HETATM   27  C   UNL     1     -42.606  56.927 -55.886  1.00  0.00     0.097 C 
HETATM   28  C   UNL     1     -42.924  56.893 -57.202  1.00  0.00     0.064 C 
HETATM   29  C   UNL     1     -43.079  55.619 -57.991  1.00  0.00     0.078 C 
HETATM   30  O   UNL     1     -43.095  58.002 -58.018  1.00  0.00    -0.353 OA
HETATM   31  C   UNL     1     -43.270  59.264 -57.374  1.00  0.00     0.185 C 
HETATM   32  C   UNL     1     -42.146  59.555 -56.404  1.00  0.00     0.106 C 
HETATM   33  S   UNL     1     -42.301  58.413 -55.009  1.00  0.00    -0.120 SA
ENDBRANCH  24  27
ENDBRANCH   1  23
TORSDOF 8
ENDMDL
MODEL 5
REMARK VINA RESULT:      -7.8      2.775      4.615
REMARK  8 active torsions:
REMARK  status: ('A' for Active; 'I' for Inactive)
REMARK    1  A    between atoms: C_7  and  C_8 
REMARK       I    between atoms: C_8  and  N_9 
REMARK    2  A    between atoms: N_9  and  C_10 
REMARK    3  A    between atoms: C_11  and  C_12 
REMARK       I    between atoms: C_12  and  N_13 
REMARK    4  A    between atoms: N_13  and  C_14 
REMARK    5  A    between atoms: C_14  and  C_15 
REMARK    6  A    between atoms: C_15  and  C_16 
REMARK    7  A    between atoms: C_17  and  O_18 
REMARK    8  A    between atoms: C_22  and  O_23 
ROOT
HETATM    1  C   UNL     1     -44.610  57.589 -54.725  1.00  0.00     0.050 A 
HETATM    2  C   UNL     1     -44.004  56.633 -53.892  1.00  0.00     0.058 A 
HETATM    3  C   UNL     1     -43.666  56.977 -52.567  1.00  0.00     0.019 A 
HETATM    4  C   UNL     1     -43.922  58.258 -52.078  1.00  0.00     0.001 A 
HETATM    5  C   UNL     1     -44.482  59.217 -52.915  1.00  0.00     0.002 A 
HETATM    6  C   UNL     1     -44.808  58.889 -54.233  1.00  0.00     0.030 A 
ENDROOT
BRANCH   2   7
HETATM    7  C   UNL     1     -43.505  55.322 -54.397  1.00  0.00     0.253 C 
HETATM    8  N   UNL     1     -42.173  55.309 -54.764  1.00  0.00    -0.356 N 
HETATM    9  H   UNL     1     -41.599  56.055 -54.393  1.00  0.00     0.162 HD
HETATM   10  O   UNL     1     -44.263  54.365 -54.504  1.00  0.00    -0.268 OA
BRANCH   8  11
HETATM   11  C   UNL     1     -41.488  54.087 -55.150  1.00  0.00     0.127 C 
BRANCH  11  12
HETATM   12  C   UNL     1     -40.154  53.857 -54.426  1.00  0.00     0.061 C 
BRANCH  12  13
HETATM   13  C   UNL     1     -40.228  53.301 -53.010  1.00  0.00    -0.021 A 
HETATM   14  C   UNL     1     -39.780  51.985 -52.765  1.00  0.00     0.074 A 
HETATM   15  C   UNL     1     -39.808  51.469 -51.467  1.00  0.00     0.040 A 
HETATM   16  C   UNL     1     -40.306  52.237 -50.414  1.00  0.00     0.039 A 
HETATM   17  C   UNL     1     -40.794  53.522 -50.643  1.00  0.00     0.068 A 
HETATM   18  C   UNL     1     -40.757  54.047 -51.937  1.00  0.00     0.046 A 
BRANCH  14  19
HETATM   19  O   UNL     1     -39.313  51.294 -53.854  1.00  0.00    -0.355 OA
HETATM   20  C   UNL     1     -39.636  49.911 -53.928  1.00  0.00     0.210 C 
ENDBRANCH  14  19
BRANCH  17  21
HETATM   21  O   UNL     1     -41.265  54.159 -49.528  1.00  0.00    -0.356 OA
HETATM   22  C   UNL     1     -40.602  53.885 -48.300  1.00  0.00     0.210 C 
ENDBRANCH  17  21
ENDBRANCH  12  13
ENDBRANCH  11  12
ENDBRANCH   8  11
ENDBRANCH   2   7
BRANCH   1  23
HETATM   23  N   UNL     1     -45.043  57.365 -56.047  1.00  0.00    -0.321 N 
HETATM   24  C   UNL     1     -44.324  57.641 -57.196  1.00  0.00     0.265 C 
HETATM   25  O   UNL     1     -43.140  57.963 -57.215  1.00  0.00    -0.267 OA
HETATM   26  H   UNL     1     -45.856  56.776 -56.184  1.00  0.00     0.169 HD
BRANCH  24  27
HETATM   27  C   UNL     1     -45.104  57.370 -58.471  1.00  0.00     0.097 C 
HETATM   28  C   UNL     1     -44.646  56.492 -59.395  1.00  0.00     0.064 C 
HETATM   29  C   UNL     1     -43.302  55.816 -59.311  1.00  0.00     0.078 C 
HETATM   30  O   UNL     1     -45.305  56.134 -60.562  1.00  0.00    -0.353 OA
HETATM   31  C   UNL     1     -46.695  56.452 -60.649  1.00  0.00     0.185 C 
HETATM   32  C   UNL     1     -46.948  57.921 -60.391  1.00  0.00     0.106 C 
HETATM   33  S   UNL     1     -46.611  58.248 -58.644  1.00  0.00    -0.120 SA
ENDBRANCH  24  27
ENDBRANCH   1  23
TORSDOF 8
ENDMDL
MODEL 6
REMARK VINA RESULT:      -7.8      2.754      4.657
REMARK  8 active torsions:
REMARK  status: ('A' for Active; 'I' for Inactive)
REMARK    1  A    between atoms: C_7  and  C_8 
REMARK       I    between atoms: C_8  and  N_9 
REMARK    2  A    between atoms: N_9  and  C_10 
REMARK    3  A    between atoms: C_11  and  C_12 
REMARK       I    between atoms: C_12  and  N_13 
REMARK    4  A    between atoms: N_13  and  C_14 
REMARK    5  A    between atoms: C_14  and  C_15 
REMARK    6  A    between atoms: C_15  and  C_16 
REMARK    7  A    between atoms: C_17  and  O_18 
REMARK    8  A    between atoms: C_22  and  O_23 
ROOT
HETATM    1  C   UNL     1     -43.550  58.306 -56.571  1.00  0.00     0.050 A 
HETATM    2  C   UNL     1     -43.134  57.028 -56.983  1.00  0.00     0.058 A 
HETATM    3  C   UNL     1     -43.287  56.645 -58.330  1.00  0.00     0.019 A 
HETATM    4  C   UNL     1     -43.855  57.519 -59.257  1.00  0.00     0.001 A 
HETATM    5  C   UNL     1     -44.307  58.767 -58.842  1.00  0.00     0.002 A 
HETATM    6  C   UNL     1     -44.170  59.151 -57.507  1.00  0.00     0.030 A 
ENDROOT
BRANCH   2   7
HETATM    7  C   UNL     1     -42.720  55.966 -56.022  1.00  0.00     0.253 C 
HETATM    8  N   UNL     1     -43.763  55.302 -55.404  1.00  0.00    -0.356 N 
HETATM    9  H   UNL     1     -44.666  55.371 -55.854  1.00  0.00     0.162 HD
HETATM   10  O   UNL     1     -41.534  55.759 -55.793  1.00  0.00    -0.268 OA
BRANCH   8  11
HETATM   11  C   UNL     1     -43.547  54.152 -54.543  1.00  0.00     0.127 C 
BRANCH  11  12
HETATM   12  C   UNL     1     -42.978  54.499 -53.160  1.00  0.00     0.061 C 
BRANCH  12  13
HETATM   13  C   UNL     1     -41.765  53.701 -52.698  1.00  0.00    -0.021 A 
HETATM   14  C   UNL     1     -41.280  53.887 -51.386  1.00  0.00     0.074 A 
HETATM   15  C   UNL     1     -40.190  53.139 -50.933  1.00  0.00     0.040 A 
HETATM   16  C   UNL     1     -39.557  52.230 -51.781  1.00  0.00     0.039 A 
HETATM   17  C   UNL     1     -39.994  52.065 -53.094  1.00  0.00     0.068 A 
HETATM   18  C   UNL     1     -41.090  52.801 -53.548  1.00  0.00     0.046 A 
BRANCH  14  19
HETATM   19  O   UNL     1     -41.953  54.804 -50.619  1.00  0.00    -0.355 OA
HETATM   20  C   UNL     1     -41.367  55.155 -49.371  1.00  0.00     0.210 C 
ENDBRANCH  14  19
BRANCH  17  21
HETATM   21  O   UNL     1     -39.277  51.154 -53.821  1.00  0.00    -0.356 OA
HETATM   22  C   UNL     1     -39.986  50.031 -54.327  1.00  0.00     0.210 C 
ENDBRANCH  17  21
ENDBRANCH  12  13
ENDBRANCH  11  12
ENDBRANCH   8  11
ENDBRANCH   2   7
BRANCH   1  23
HETATM   23  N   UNL     1     -43.409  58.835 -55.272  1.00  0.00    -0.321 N 
HETATM   24  C   UNL     1     -42.317  59.536 -54.795  1.00  0.00     0.265 C 
HETATM   25  O   UNL     1     -41.390  59.941 -55.492  1.00  0.00    -0.267 OA
HETATM   26  H   UNL     1     -44.238  58.889 -54.692  1.00  0.00     0.169 HD
BRANCH  24  27
HETATM   27  C   UNL     1     -42.431  59.894 -53.323  1.00  0.00     0.097 C 
HETATM   28  C   UNL     1     -41.917  59.083 -52.367  1.00  0.00     0.064 C 
HETATM   29  C   UNL     1     -41.316  57.732 -52.653  1.00  0.00     0.078 C 
HETATM   30  O   UNL     1     -41.919  59.344 -51.004  1.00  0.00    -0.353 OA
HETATM   31  C   UNL     1     -42.180  60.687 -50.598  1.00  0.00     0.185 C 
HETATM   32  C   UNL     1     -43.476  61.205 -51.183  1.00  0.00     0.106 C 
HETATM   33  S   UNL     1     -43.244  61.405 -52.966  1.00  0.00    -0.120 SA
ENDBRANCH  24  27
ENDBRANCH   1  23
TORSDOF 8
ENDMDL
MODEL 7
REMARK VINA RESULT:      -7.8      3.620      8.362
REMARK  8 active torsions:
REMARK  status: ('A' for Active; 'I' for Inactive)
REMARK    1  A    between atoms: C_7  and  C_8 
REMARK       I    between atoms: C_8  and  N_9 
REMARK    2  A    between atoms: N_9  and  C_10 
REMARK    3  A    between atoms: C_11  and  C_12 
REMARK       I    between atoms: C_12  and  N_13 
REMARK    4  A    between atoms: N_13  and  C_14 
REMARK    5  A    between atoms: C_14  and  C_15 
REMARK    6  A    between atoms: C_15  and  C_16 
REMARK    7  A    between atoms: C_17  and  O_18 
REMARK    8  A    between atoms: C_22  and  O_23 
ROOT
HETATM    1  C   UNL     1     -41.349  55.355 -51.199  1.00  0.00     0.050 A 
HETATM    2  C   UNL     1     -41.546  54.392 -52.203  1.00  0.00     0.058 A 
HETATM    3  C   UNL     1     -40.848  53.170 -52.143  1.00  0.00     0.019 A 
HETATM    4  C   UNL     1     -39.958  52.910 -51.100  1.00  0.00     0.001 A 
HETATM    5  C   UNL     1     -39.730  53.880 -50.130  1.00  0.00     0.002 A 
HETATM    6  C   UNL     1     -40.408  55.099 -50.188  1.00  0.00     0.030 A 
ENDROOT
BRANCH   2   7
HETATM    7  C   UNL     1     -42.307  54.674 -53.454  1.00  0.00     0.253 C 
HETATM    8  N   UNL     1     -41.535  55.072 -54.527  1.00  0.00    -0.356 N 
HETATM    9  H   UNL     1     -40.548  54.856 -54.474  1.00  0.00     0.162 HD
HETATM   10  O   UNL     1     -43.529  54.588 -53.474  1.00  0.00    -0.268 OA
BRANCH   8  11
HETATM   11  C   UNL     1     -42.092  55.258 -55.856  1.00  0.00     0.127 C 
BRANCH  11  12
HETATM   12  C   UNL     1     -42.540  56.696 -56.156  1.00  0.00     0.061 C 
BRANCH  12  13
HETATM   13  C   UNL     1     -42.743  57.058 -57.622  1.00  0.00    -0.021 A 
HETATM   14  C   UNL     1     -42.371  58.345 -58.068  1.00  0.00     0.074 A 
HETATM   15  C   UNL     1     -42.516  58.684 -59.416  1.00  0.00     0.040 A 
HETATM   16  C   UNL     1     -43.057  57.769 -60.319  1.00  0.00     0.039 A 
HETATM   17  C   UNL     1     -43.472  56.510 -59.889  1.00  0.00     0.068 A 
HETATM   18  C   UNL     1     -43.317  56.161 -58.546  1.00  0.00     0.046 A 
BRANCH  14  19
HETATM   19  O   UNL     1     -41.854  59.187 -57.117  1.00  0.00    -0.355 OA
HETATM   20  C   UNL     1     -41.856  60.578 -57.417  1.00  0.00     0.210 C 
ENDBRANCH  14  19
BRANCH  17  21
HETATM   21  O   UNL     1     -43.996  55.717 -60.873  1.00  0.00    -0.356 OA
HETATM   22  C   UNL     1     -44.861  54.666 -60.462  1.00  0.00     0.210 C 
ENDBRANCH  17  21
ENDBRANCH  12  13
ENDBRANCH  11  12
ENDBRANCH   8  11
ENDBRANCH   2   7
BRANCH   1  23
HETATM   23  N   UNL     1     -42.017  56.593 -51.109  1.00  0.00    -0.321 N 
HETATM   24  C   UNL     1     -41.741  57.722 -51.858  1.00  0.00     0.265 C 
HETATM   25  O   UNL     1     -40.984  57.748 -52.825  1.00  0.00    -0.267 OA
HETATM   26  H   UNL     1     -42.898  56.619 -50.607  1.00  0.00     0.169 HD
BRANCH  24  27
HETATM   27  C   UNL     1     -42.579  58.926 -51.461  1.00  0.00     0.097 C 
HETATM   28  C   UNL     1     -43.871  59.035 -51.854  1.00  0.00     0.064 C 
HETATM   29  C   UNL     1     -44.543  58.070 -52.795  1.00  0.00     0.078 C 
HETATM   30  O   UNL     1     -44.735  60.061 -51.501  1.00  0.00    -0.353 OA
HETATM   31  C   UNL     1     -44.354  60.884 -50.398  1.00  0.00     0.185 C 
HETATM   32  C   UNL     1     -42.972  61.470 -50.592  1.00  0.00     0.106 C 
HETATM   33  S   UNL     1     -41.771  60.123 -50.470  1.00  0.00    -0.120 SA
ENDBRANCH  24  27
ENDBRANCH   1  23
TORSDOF 8
ENDMDL
MODEL 8
REMARK VINA RESULT:      -7.8      3.037      8.201
REMARK  8 active torsions:
REMARK  status: ('A' for Active; 'I' for Inactive)
REMARK    1  A    between atoms: C_7  and  C_8 
REMARK       I    between atoms: C_8  and  N_9 
REMARK    2  A    between atoms: N_9  and  C_10 
REMARK    3  A    between atoms: C_11  and  C_12 
REMARK       I    between atoms: C_12  and  N_13 
REMARK    4  A    between atoms: N_13  and  C_14 
REMARK    5  A    between atoms: C_14  and  C_15 
REMARK    6  A    between atoms: C_15  and  C_16 
REMARK    7  A    between atoms: C_17  and  O_18 
REMARK    8  A    between atoms: C_22  and  O_23 
ROOT
HETATM    1  C   UNL     1     -40.500  53.862 -52.310  1.00  0.00     0.050 A 
HETATM    2  C   UNL     1     -40.681  53.097 -53.476  1.00  0.00     0.058 A 
HETATM    3  C   UNL     1     -40.265  51.751 -53.498  1.00  0.00     0.019 A 
HETATM    4  C   UNL     1     -39.668  51.173 -52.378  1.00  0.00     0.001 A 
HETATM    5  C   UNL     1     -39.448  51.941 -51.239  1.00  0.00     0.002 A 
HETATM    6  C   UNL     1     -39.846  53.279 -51.212  1.00  0.00     0.030 A 
ENDROOT
BRANCH   2   7
HETATM    7  C   UNL     1     -41.109  53.693 -54.774  1.00  0.00     0.253 C 
HETATM    8  N   UNL     1     -42.476  53.828 -54.929  1.00  0.00    -0.356 N 
HETATM    9  H   UNL     1     -43.027  53.802 -54.081  1.00  0.00     0.162 HD
HETATM   10  O   UNL     1     -40.283  53.986 -55.629  1.00  0.00    -0.268 OA
BRANCH   8  11
HETATM   11  C   UNL     1     -43.062  54.510 -56.070  1.00  0.00     0.127 C 
BRANCH  11  12
HETATM   12  C   UNL     1     -42.639  55.979 -56.212  1.00  0.00     0.061 C 
BRANCH  12  13
HETATM   13  C   UNL     1     -42.854  56.625 -57.575  1.00  0.00    -0.021 A 
HETATM   14  C   UNL     1     -42.605  58.007 -57.726  1.00  0.00     0.074 A 
HETATM   15  C   UNL     1     -42.762  58.610 -58.977  1.00  0.00     0.040 A 
HETATM   16  C   UNL     1     -43.195  57.861 -60.072  1.00  0.00     0.039 A 
HETATM   17  C   UNL     1     -43.487  56.506 -59.932  1.00  0.00     0.068 A 
HETATM   18  C   UNL     1     -43.320  55.895 -58.687  1.00  0.00     0.046 A 
BRANCH  14  19
HETATM   19  O   UNL     1     -42.191  58.672 -56.601  1.00  0.00    -0.355 OA
HETATM   20  C   UNL     1     -43.175  59.416 -55.893  1.00  0.00     0.210 C 
ENDBRANCH  14  19
BRANCH  17  21
HETATM   21  O   UNL     1     -43.914  55.895 -61.079  1.00  0.00    -0.356 OA
HETATM   22  C   UNL     1     -45.140  55.179 -61.012  1.00  0.00     0.210 C 
ENDBRANCH  17  21
ENDBRANCH  12  13
ENDBRANCH  11  12
ENDBRANCH   8  11
ENDBRANCH   2   7
BRANCH   1  23
HETATM   23  N   UNL     1     -40.914  55.197 -52.134  1.00  0.00    -0.321 N 
HETATM   24  C   UNL     1     -42.095  55.610 -51.546  1.00  0.00     0.265 C 
HETATM   25  O   UNL     1     -42.869  54.871 -50.944  1.00  0.00    -0.267 OA
HETATM   26  H   UNL     1     -40.222  55.927 -52.260  1.00  0.00     0.169 HD
BRANCH  24  27
HETATM   27  C   UNL     1     -42.292  57.116 -51.588  1.00  0.00     0.097 C 
HETATM   28  C   UNL     1     -43.308  57.667 -52.294  1.00  0.00     0.064 C 
HETATM   29  C   UNL     1     -44.235  56.875 -53.180  1.00  0.00     0.078 C 
HETATM   30  O   UNL     1     -43.607  59.020 -52.353  1.00  0.00    -0.353 OA
HETATM   31  C   UNL     1     -43.022  59.861 -51.359  1.00  0.00     0.185 C 
HETATM   32  C   UNL     1     -41.517  59.707 -51.314  1.00  0.00     0.106 C 
HETATM   33  S   UNL     1     -41.141  58.061 -50.664  1.00  0.00    -0.120 SA
ENDBRANCH  24  27
ENDBRANCH   1  23
TORSDOF 8
ENDMDL
MODEL 9
REMARK VINA RESULT:      -7.6      2.474      3.811
REMARK  8 active torsions:
REMARK  status: ('A' for Active; 'I' for Inactive)
REMARK    1  A    between atoms: C_7  and  C_8 
REMARK       I    between atoms: C_8  and  N_9 
REMARK    2  A    between atoms: N_9  and  C_10 
REMARK    3  A    between atoms: C_11  and  C_12 
REMARK       I    between atoms: C_12  and  N_13 
REMARK    4  A    between atoms: N_13  and  C_14 
REMARK    5  A    between atoms: C_14  and  C_15 
REMARK    6  A    between atoms: C_15  and  C_16 
REMARK    7  A    between atoms: C_17  and  O_18 
REMARK    8  A    between atoms: C_22  and  O_23 
ROOT
HETATM    1  C   UNL     1     -45.061  57.257 -59.182  1.00  0.00     0.050 A 
HETATM    2  C   UNL     1     -44.076  56.291 -58.914  1.00  0.00     0.058 A 
HETATM    3  C   UNL     1     -44.045  55.100 -59.667  1.00  0.00     0.019 A 
HETATM    4  C   UNL     1     -44.986  54.868 -60.670  1.00  0.00     0.001 A 
HETATM    5  C   UNL     1     -45.987  55.804 -60.907  1.00  0.00     0.002 A 
HETATM    6  C   UNL     1     -46.034  56.982 -60.158  1.00  0.00     0.030 A 
ENDROOT
BRANCH   2   7
HETATM    7  C   UNL     1     -43.176  56.364 -57.728  1.00  0.00     0.253 C 
HETATM    8  N   UNL     1     -43.190  55.245 -56.918  1.00  0.00    -0.356 N 
HETATM    9  H   UNL     1     -43.550  54.396 -57.334  1.00  0.00     0.162 HD
HETATM   10  O   UNL     1     -42.523  57.375 -57.501  1.00  0.00    -0.268 OA
BRANCH   8  11
HETATM   11  C   UNL     1     -42.278  55.089 -55.798  1.00  0.00     0.127 C 
BRANCH  11  12
HETATM   12  C   UNL     1     -42.809  54.186 -54.675  1.00  0.00     0.061 C 
BRANCH  12  13
HETATM   13  C   UNL     1     -41.772  53.558 -53.753  1.00  0.00    -0.021 A 
HETATM   14  C   UNL     1     -41.606  54.078 -52.451  1.00  0.00     0.074 A 
HETATM   15  C   UNL     1     -40.684  53.493 -51.579  1.00  0.00     0.040 A 
HETATM   16  C   UNL     1     -39.903  52.415 -51.998  1.00  0.00     0.039 A 
HETATM   17  C   UNL     1     -40.021  51.916 -53.293  1.00  0.00     0.068 A 
HETATM   18  C   UNL     1     -40.949  52.489 -54.165  1.00  0.00     0.046 A 
BRANCH  14  19
HETATM   19  O   UNL     1     -42.405  55.142 -52.120  1.00  0.00    -0.355 OA
HETATM   20  C   UNL     1     -42.045  55.884 -50.962  1.00  0.00     0.210 C 
ENDBRANCH  14  19
BRANCH  17  21
HETATM   21  O   UNL     1     -39.188  50.868 -53.577  1.00  0.00    -0.356 OA
HETATM   22  C   UNL     1     -39.677  49.879 -54.473  1.00  0.00     0.210 C 
ENDBRANCH  17  21
ENDBRANCH  12  13
ENDBRANCH  11  12
ENDBRANCH   8  11
ENDBRANCH   2   7
BRANCH   1  23
HETATM   23  N   UNL     1     -45.176  58.508 -58.544  1.00  0.00    -0.321 N 
HETATM   24  C   UNL     1     -45.829  58.754 -57.350  1.00  0.00     0.265 C 
HETATM   25  O   UNL     1     -46.256  57.883 -56.597  1.00  0.00    -0.267 OA
HETATM   26  H   UNL     1     -44.575  59.259 -58.863  1.00  0.00     0.169 HD
BRANCH  24  27
HETATM   27  C   UNL     1     -45.854  60.226 -56.972  1.00  0.00     0.097 C 
HETATM   28  C   UNL     1     -46.933  60.998 -57.246  1.00  0.00     0.064 C 
HETATM   29  C   UNL     1     -48.121  60.521 -58.041  1.00  0.00     0.078 C 
HETATM   30  O   UNL     1     -47.078  62.332 -56.896  1.00  0.00    -0.353 OA
HETATM   31  C   UNL     1     -46.190  62.845 -55.903  1.00  0.00     0.185 C 
HETATM   32  C   UNL     1     -44.742  62.605 -56.273  1.00  0.00     0.106 C 
HETATM   33  S   UNL     1     -44.423  60.828 -56.160  1.00  0.00    -0.120 SA
ENDBRANCH  24  27
ENDBRANCH   1  23
TORSDOF 8
ENDMDL
MODEL 10
REMARK VINA RESULT:      -7.6      2.954      4.302
REMARK  8 active torsions:
REMARK  status: ('A' for Active; 'I' for Inactive)
REMARK    1  A    between atoms: C_7  and  C_8 
REMARK       I    between atoms: C_8  and  N_9 
REMARK    2  A    between atoms: N_9  and  C_10 
REMARK    3  A    between atoms: C_11  and  C_12 
REMARK       I    between atoms: C_12  and  N_13 
REMARK    4  A    between atoms: N_13  and  C_14 
REMARK    5  A    between atoms: C_14  and  C_15 
REMARK    6  A    between atoms: C_15  and  C_16 
REMARK    7  A    between atoms: C_17  and  O_18 
REMARK    8  A    between atoms: C_22  and  O_23 
ROOT
HETATM    1  C   UNL     1     -42.125  59.202 -56.764  1.00  0.00     0.050 A 
HETATM    2  C   UNL     1     -42.303  57.947 -57.372  1.00  0.00     0.058 A 
HETATM    3  C   UNL     1     -42.269  57.842 -58.776  1.00  0.00     0.019 A 
HETATM    4  C   UNL     1     -42.068  58.971 -59.569  1.00  0.00     0.001 A 
HETATM    5  C   UNL     1     -41.936  60.220 -58.971  1.00  0.00     0.002 A 
HETATM    6  C   UNL     1     -41.980  60.336 -57.580  1.00  0.00     0.030 A 
ENDROOT
BRANCH   2   7
HETATM    7  C   UNL     1     -42.733  56.737 -56.614  1.00  0.00     0.253 C 
HETATM    8  N   UNL     1     -41.708  55.891 -56.239  1.00  0.00    -0.356 N 
HETATM    9  H   UNL     1     -40.778  56.289 -56.236  1.00  0.00     0.162 HD
HETATM   10  O   UNL     1     -43.921  56.524 -56.401  1.00  0.00    -0.268 OA
BRANCH   8  11
HETATM   11  C   UNL     1     -41.929  54.738 -55.383  1.00  0.00     0.127 C 
BRANCH  11  12
HETATM   12  C   UNL     1     -40.664  53.921 -55.087  1.00  0.00     0.061 C 
BRANCH  12  13
HETATM   13  C   UNL     1     -40.466  53.460 -53.648  1.00  0.00    -0.021 A 
HETATM   14  C   UNL     1     -40.045  52.135 -53.403  1.00  0.00     0.074 A 
HETATM   15  C   UNL     1     -39.824  51.705 -52.092  1.00  0.00     0.040 A 
HETATM   16  C   UNL     1     -40.049  52.569 -51.019  1.00  0.00     0.039 A 
HETATM   17  C   UNL     1     -40.506  53.867 -51.238  1.00  0.00     0.068 A 
HETATM   18  C   UNL     1     -40.717  54.305 -52.547  1.00  0.00     0.046 A 
BRANCH  14  19
HETATM   19  O   UNL     1     -39.855  51.348 -54.510  1.00  0.00    -0.355 OA
HETATM   20  C   UNL     1     -40.044  49.949 -54.347  1.00  0.00     0.210 C 
ENDBRANCH  14  19
BRANCH  17  21
HETATM   21  O   UNL     1     -40.698  54.602 -50.101  1.00  0.00    -0.356 OA
HETATM   22  C   UNL     1     -40.049  54.145 -48.921  1.00  0.00     0.210 C 
ENDBRANCH  17  21
ENDBRANCH  12  13
ENDBRANCH  11  12
ENDBRANCH   8  11
ENDBRANCH   2   7
BRANCH   1  23
HETATM   23  N   UNL     1     -42.085  59.441 -55.376  1.00  0.00    -0.321 N 
HETATM   24  C   UNL     1     -43.179  59.639 -54.554  1.00  0.00     0.265 C 
HETATM   25  O   UNL     1     -44.346  59.465 -54.893  1.00  0.00    -0.267 OA
HETATM   26  H   UNL     1     -41.213  59.261 -54.891  1.00  0.00     0.169 HD
BRANCH  24  27
HETATM   27  C   UNL     1     -42.800  59.963 -53.118  1.00  0.00     0.097 C 
HETATM   28  C   UNL     1     -42.907  61.225 -52.638  1.00  0.00     0.064 C 
HETATM   29  C   UNL     1     -43.278  62.413 -53.486  1.00  0.00     0.078 C 
HETATM   30  O   UNL     1     -42.640  61.615 -51.333  1.00  0.00    -0.353 OA
HETATM   31  C   UNL     1     -42.564  60.585 -50.348  1.00  0.00     0.185 C 
HETATM   32  C   UNL     1     -41.568  59.513 -50.738  1.00  0.00     0.106 C 
HETATM   33  S   UNL     1     -42.242  58.611 -52.153  1.00  0.00    -0.120 SA
ENDBRANCH  24  27
ENDBRANCH   1  23
TORSDOF 8
ENDMDL
