MODEL 1
REMARK VINA RESULT:      -8.5      0.000      0.000
REMARK  4 active torsions:
REMARK  status: ('A' for Active; 'I' for Inactive)
REMARK    1  A    between atoms: C_6  and  C_7 
REMARK    2  A    between atoms: C_8  and  C_9 
REMARK       I    between atoms: C_9  and  N_10 
REMARK    3  A    between atoms: N_10  and  C_11 
REMARK    4  A    between atoms: C_18  and  C_19 
REMARK       I    between atoms: C_19  and  N_20 
ROOT
HETATM    1  C   UNL     1     -42.609  55.110 -55.489  1.00  0.00     0.035 A 
HETATM    2  C   UNL     1     -42.596  55.390 -56.866  1.00  0.00     0.046 A 
HETATM    3  C   UNL     1     -43.290  56.516 -57.357  1.00  0.00     0.030 A 
HETATM    4  C   UNL     1     -43.993  57.311 -56.462  1.00  0.00     0.063 A 
HETATM    5  N   UNL     1     -44.552  58.302 -57.218  1.00  0.00    -0.277 N 
HETATM    6  H   UNL     1     -45.138  59.064 -56.893  1.00  0.00     0.189 HD
HETATM    7  N   UNL     1     -44.264  58.231 -58.529  1.00  0.00    -0.168 NA
HETATM    8  C   UNL     1     -43.484  57.131 -58.629  1.00  0.00     0.156 A 
HETATM    9  C   UNL     1     -44.044  57.050 -55.092  1.00  0.00     0.034 A 
HETATM   10  C   UNL     1     -43.334  55.935 -54.625  1.00  0.00     0.032 A 
ENDROOT
BRANCH   1  11
HETATM   11  N   UNL     1     -41.882  53.980 -55.059  1.00  0.00    -0.327 N 
HETATM   12  C   UNL     1     -40.530  53.911 -54.802  1.00  0.00     0.227 C 
HETATM   13  O   UNL     1     -39.694  54.780 -55.002  1.00  0.00    -0.273 OA
HETATM   14  H   UNL     1     -42.401  53.115 -54.987  1.00  0.00     0.169 HD
BRANCH  12  15
HETATM   15  C   UNL     1     -40.064  52.578 -54.329  1.00  0.00     0.087 A 
HETATM   16  C   UNL     1     -39.987  52.231 -52.851  1.00  0.00     0.032 A 
HETATM   17  C   UNL     1     -40.980  51.532 -53.755  1.00  0.00     0.025 A 
BRANCH  16  18
HETATM   18  C   UNL     1     -40.519  53.114 -51.742  1.00  0.00    -0.051 A 
HETATM   19  C   UNL     1     -41.875  53.471 -51.659  1.00  0.00     0.031 A 
HETATM   20  C   UNL     1     -42.345  54.297 -50.635  1.00  0.00     0.034 A 
HETATM   21  C   UNL     1     -41.471  54.811 -49.684  1.00  0.00     0.024 A 
HETATM   22 CL   UNL     1     -44.020  54.687 -50.551  1.00  0.00    -0.084 Cl
HETATM   23  C   UNL     1     -40.117  54.499 -49.760  1.00  0.00     0.002 A 
HETATM   24  C   UNL     1     -39.651  53.662 -50.779  1.00  0.00     0.007 A 
ENDBRANCH  16  18
ENDBRANCH  12  15
ENDBRANCH   1  11
BRANCH   8  25
HETATM   25  C   UNL     1     -42.935  56.696 -59.920  1.00  0.00     0.270 C 
HETATM   26  N   UNL     1     -41.627  57.042 -60.116  1.00  0.00    -0.365 N 
HETATM   27  H   UNL     1     -41.143  57.545 -59.381  1.00  0.00     0.159 HD
HETATM   28  H   UNL     1     -41.154  56.770 -60.964  1.00  0.00     0.159 HD
HETATM   29  O   UNL     1     -43.566  56.071 -60.767  1.00  0.00    -0.266 OA
ENDBRANCH   8  25
TORSDOF 4
ENDMDL
MODEL 2
REMARK VINA RESULT:      -8.5      2.120      2.632
REMARK  4 active torsions:
REMARK  status: ('A' for Active; 'I' for Inactive)
REMARK    1  A    between atoms: C_6  and  C_7 
REMARK    2  A    between atoms: C_8  and  C_9 
REMARK       I    between atoms: C_9  and  N_10 
REMARK    3  A    between atoms: N_10  and  C_11 
REMARK    4  A    between atoms: C_18  and  C_19 
REMARK       I    between atoms: C_19  and  N_20 
ROOT
HETATM    1  C   UNL     1     -42.585  56.499 -56.941  1.00  0.00     0.035 A 
HETATM    2  C   UNL     1     -43.231  55.821 -57.988  1.00  0.00     0.046 A 
HETATM    3  C   UNL     1     -44.132  56.517 -58.821  1.00  0.00     0.030 A 
HETATM    4  C   UNL     1     -44.379  57.859 -58.565  1.00  0.00     0.063 A 
HETATM    5  N   UNL     1     -45.278  58.251 -59.516  1.00  0.00    -0.277 N 
HETATM    6  H   UNL     1     -45.685  59.173 -59.632  1.00  0.00     0.189 HD
HETATM    7  N   UNL     1     -45.631  57.283 -60.380  1.00  0.00    -0.168 NA
HETATM    8  C   UNL     1     -44.931  56.206 -59.961  1.00  0.00     0.156 A 
HETATM    9  C   UNL     1     -43.771  58.557 -57.521  1.00  0.00     0.034 A 
HETATM   10  C   UNL     1     -42.867  57.849 -56.717  1.00  0.00     0.032 A 
ENDROOT
BRANCH   1  11
HETATM   11  N   UNL     1     -41.682  55.752 -56.155  1.00  0.00    -0.327 N 
HETATM   12  C   UNL     1     -41.912  54.529 -55.562  1.00  0.00     0.227 C 
HETATM   13  O   UNL     1     -42.970  53.919 -55.514  1.00  0.00    -0.273 OA
HETATM   14  H   UNL     1     -40.791  56.188 -55.961  1.00  0.00     0.169 HD
BRANCH  12  15
HETATM   15  C   UNL     1     -40.744  53.979 -54.820  1.00  0.00     0.087 A 
HETATM   16  C   UNL     1     -40.579  54.173 -53.322  1.00  0.00     0.032 A 
HETATM   17  C   UNL     1     -40.827  52.796 -53.896  1.00  0.00     0.025 A 
BRANCH  16  18
HETATM   18  C   UNL     1     -41.634  54.781 -52.422  1.00  0.00    -0.051 A 
HETATM   19  C   UNL     1     -41.749  56.169 -52.240  1.00  0.00     0.031 A 
HETATM   20  C   UNL     1     -42.721  56.711 -51.396  1.00  0.00     0.034 A 
HETATM   21  C   UNL     1     -43.585  55.882 -50.689  1.00  0.00     0.024 A 
HETATM   22 CL   UNL     1     -42.849  58.419 -51.222  1.00  0.00    -0.084 Cl
HETATM   23  C   UNL     1     -43.473  54.501 -50.827  1.00  0.00     0.002 A 
HETATM   24  C   UNL     1     -42.507  53.963 -51.682  1.00  0.00     0.007 A 
ENDBRANCH  16  18
ENDBRANCH  12  15
ENDBRANCH   1  11
BRANCH   8  25
HETATM   25  C   UNL     1     -45.025  54.914 -60.655  1.00  0.00     0.270 C 
HETATM   26  N   UNL     1     -45.248  53.850 -59.826  1.00  0.00    -0.365 N 
HETATM   27  H   UNL     1     -45.340  54.021 -58.831  1.00  0.00     0.159 HD
HETATM   28  H   UNL     1     -45.348  52.923 -60.210  1.00  0.00     0.159 HD
HETATM   29  O   UNL     1     -44.923  54.770 -61.869  1.00  0.00    -0.266 OA
ENDBRANCH   8  25
TORSDOF 4
ENDMDL
MODEL 3
REMARK VINA RESULT:      -8.2      2.549      3.919
REMARK  4 active torsions:
REMARK  status: ('A' for Active; 'I' for Inactive)
REMARK    1  A    between atoms: C_6  and  C_7 
REMARK    2  A    between atoms: C_8  and  C_9 
REMARK       I    between atoms: C_9  and  N_10 
REMARK    3  A    between atoms: N_10  and  C_11 
REMARK    4  A    between atoms: C_18  and  C_19 
REMARK       I    between atoms: C_19  and  N_20 
ROOT
HETATM    1  C   UNL     1     -43.096  56.617 -51.907  1.00  0.00     0.035 A 
HETATM    2  C   UNL     1     -42.915  56.360 -53.276  1.00  0.00     0.046 A 
HETATM    3  C   UNL     1     -43.725  57.018 -54.224  1.00  0.00     0.030 A 
HETATM    4  C   UNL     1     -44.706  57.891 -53.775  1.00  0.00     0.063 A 
HETATM    5  N   UNL     1     -45.317  58.363 -54.902  1.00  0.00    -0.277 N 
HETATM    6  H   UNL     1     -46.085  59.024 -54.951  1.00  0.00     0.189 HD
HETATM    7  N   UNL     1     -44.812  57.883 -56.051  1.00  0.00    -0.168 NA
HETATM    8  C   UNL     1     -43.828  57.049 -55.647  1.00  0.00     0.156 A 
HETATM    9  C   UNL     1     -44.927  58.154 -52.422  1.00  0.00     0.034 A 
HETATM   10  C   UNL     1     -44.098  57.501 -51.499  1.00  0.00     0.032 A 
ENDROOT
BRANCH   1  11
HETATM   11  N   UNL     1     -42.242  55.941 -51.010  1.00  0.00    -0.327 N 
HETATM   12  C   UNL     1     -42.371  54.645 -50.557  1.00  0.00     0.227 C 
HETATM   13  O   UNL     1     -43.303  53.881 -50.761  1.00  0.00    -0.273 OA
HETATM   14  H   UNL     1     -41.487  56.484 -50.614  1.00  0.00     0.169 HD
BRANCH  12  15
HETATM   15  C   UNL     1     -41.285  54.207 -49.637  1.00  0.00     0.087 A 
HETATM   16  C   UNL     1     -40.237  53.191 -50.058  1.00  0.00     0.032 A 
HETATM   17  C   UNL     1     -39.849  54.628 -49.785  1.00  0.00     0.025 A 
BRANCH  16  18
HETATM   18  C   UNL     1     -40.086  52.658 -51.467  1.00  0.00    -0.051 A 
HETATM   19  C   UNL     1     -40.250  53.478 -52.596  1.00  0.00     0.031 A 
HETATM   20  C   UNL     1     -40.120  52.967 -53.889  1.00  0.00     0.034 A 
HETATM   21  C   UNL     1     -39.851  51.617 -54.091  1.00  0.00     0.024 A 
HETATM   22 CL   UNL     1     -40.298  54.012 -55.246  1.00  0.00    -0.084 Cl
HETATM   23  C   UNL     1     -39.715  50.775 -52.992  1.00  0.00     0.002 A 
HETATM   24  C   UNL     1     -39.834  51.293 -51.698  1.00  0.00     0.007 A 
ENDBRANCH  16  18
ENDBRANCH  12  15
ENDBRANCH   1  11
BRANCH   8  25
HETATM   25  C   UNL     1     -43.002  56.313 -56.614  1.00  0.00     0.270 C 
HETATM   26  N   UNL     1     -42.194  57.109 -57.378  1.00  0.00    -0.365 N 
HETATM   27  H   UNL     1     -42.212  58.110 -57.223  1.00  0.00     0.159 HD
HETATM   28  H   UNL     1     -41.575  56.695 -58.057  1.00  0.00     0.159 HD
HETATM   29  O   UNL     1     -43.009  55.093 -56.745  1.00  0.00    -0.266 OA
ENDBRANCH   8  25
TORSDOF 4
ENDMDL
MODEL 4
REMARK VINA RESULT:      -8.0      2.682      4.149
REMARK  4 active torsions:
REMARK  status: ('A' for Active; 'I' for Inactive)
REMARK    1  A    between atoms: C_6  and  C_7 
REMARK    2  A    between atoms: C_8  and  C_9 
REMARK       I    between atoms: C_9  and  N_10 
REMARK    3  A    between atoms: N_10  and  C_11 
REMARK    4  A    between atoms: C_18  and  C_19 
REMARK       I    between atoms: C_19  and  N_20 
ROOT
HETATM    1  C   UNL     1     -43.844  57.204 -51.500  1.00  0.00     0.035 A 
HETATM    2  C   UNL     1     -43.663  57.115 -52.891  1.00  0.00     0.046 A 
HETATM    3  C   UNL     1     -44.283  58.058 -53.738  1.00  0.00     0.030 A 
HETATM    4  C   UNL     1     -45.081  59.042 -53.172  1.00  0.00     0.063 A 
HETATM    5  N   UNL     1     -45.536  59.789 -54.221  1.00  0.00    -0.277 N 
HETATM    6  H   UNL     1     -46.150  60.596 -54.178  1.00  0.00     0.189 HD
HETATM    7  N   UNL     1     -45.094  59.386 -55.425  1.00  0.00    -0.168 NA
HETATM    8  C   UNL     1     -44.318  58.316 -55.140  1.00  0.00     0.156 A 
HETATM    9  C   UNL     1     -45.298  59.147 -51.797  1.00  0.00     0.034 A 
HETATM   10  C   UNL     1     -44.659  58.208 -50.974  1.00  0.00     0.032 A 
ENDROOT
BRANCH   1  11
HETATM   11  N   UNL     1     -43.184  56.242 -50.707  1.00  0.00    -0.327 N 
HETATM   12  C   UNL     1     -41.835  56.176 -50.431  1.00  0.00     0.227 C 
HETATM   13  O   UNL     1     -40.949  56.870 -50.908  1.00  0.00    -0.273 OA
HETATM   14  H   UNL     1     -43.755  55.488 -50.349  1.00  0.00     0.169 HD
BRANCH  12  15
HETATM   15  C   UNL     1     -41.448  55.055 -49.531  1.00  0.00     0.087 A 
HETATM   16  C   UNL     1     -41.121  53.671 -50.065  1.00  0.00     0.032 A 
HETATM   17  C   UNL     1     -40.046  54.520 -49.423  1.00  0.00     0.025 A 
BRANCH  16  18
HETATM   18  C   UNL     1     -40.993  53.335 -51.536  1.00  0.00    -0.051 A 
HETATM   19  C   UNL     1     -41.912  53.802 -52.490  1.00  0.00     0.031 A 
HETATM   20  C   UNL     1     -41.785  53.472 -53.841  1.00  0.00     0.034 A 
HETATM   21  C   UNL     1     -40.754  52.644 -54.272  1.00  0.00     0.024 A 
HETATM   22 CL   UNL     1     -42.916  54.090 -54.983  1.00  0.00    -0.084 Cl
HETATM   23  C   UNL     1     -39.847  52.142 -53.344  1.00  0.00     0.002 A 
HETATM   24  C   UNL     1     -39.970  52.484 -51.994  1.00  0.00     0.007 A 
ENDBRANCH  16  18
ENDBRANCH  12  15
ENDBRANCH   1  11
BRANCH   8  25
HETATM   25  C   UNL     1     -43.622  57.571 -56.198  1.00  0.00     0.270 C 
HETATM   26  N   UNL     1     -44.456  56.913 -57.059  1.00  0.00    -0.365 N 
HETATM   27  H   UNL     1     -45.457  56.990 -56.919  1.00  0.00     0.159 HD
HETATM   28  H   UNL     1     -44.074  56.390 -57.832  1.00  0.00     0.159 HD
HETATM   29  O   UNL     1     -42.403  57.529 -56.330  1.00  0.00    -0.266 OA
ENDBRANCH   8  25
TORSDOF 4
ENDMDL
MODEL 5
REMARK VINA RESULT:      -7.9      2.779      4.179
REMARK  4 active torsions:
REMARK  status: ('A' for Active; 'I' for Inactive)
REMARK    1  A    between atoms: C_6  and  C_7 
REMARK    2  A    between atoms: C_8  and  C_9 
REMARK       I    between atoms: C_9  and  N_10 
REMARK    3  A    between atoms: N_10  and  C_11 
REMARK    4  A    between atoms: C_18  and  C_19 
REMARK       I    between atoms: C_19  and  N_20 
ROOT
HETATM    1  C   UNL     1     -42.171  55.267 -53.539  1.00  0.00     0.035 A 
HETATM    2  C   UNL     1     -42.753  56.505 -53.861  1.00  0.00     0.046 A 
HETATM    3  C   UNL     1     -43.264  56.720 -55.158  1.00  0.00     0.030 A 
HETATM    4  C   UNL     1     -43.156  55.704 -56.096  1.00  0.00     0.063 A 
HETATM    5  N   UNL     1     -43.726  56.198 -57.236  1.00  0.00    -0.277 N 
HETATM    6  H   UNL     1     -43.821  55.726 -58.128  1.00  0.00     0.189 HD
HETATM    7  N   UNL     1     -44.209  57.448 -57.119  1.00  0.00    -0.168 NA
HETATM    8  C   UNL     1     -43.929  57.782 -55.839  1.00  0.00     0.156 A 
HETATM    9  C   UNL     1     -42.567  54.470 -55.817  1.00  0.00     0.034 A 
HETATM   10  C   UNL     1     -42.080  54.273 -54.516  1.00  0.00     0.032 A 
ENDROOT
BRANCH   1  11
HETATM   11  N   UNL     1     -41.694  55.108 -52.220  1.00  0.00    -0.327 N 
HETATM   12  C   UNL     1     -42.270  54.364 -51.213  1.00  0.00     0.227 C 
HETATM   13  O   UNL     1     -43.351  53.795 -51.240  1.00  0.00    -0.273 OA
HETATM   14  H   UNL     1     -40.873  55.644 -51.973  1.00  0.00     0.169 HD
BRANCH  12  15
HETATM   15  C   UNL     1     -41.505  54.368 -49.935  1.00  0.00     0.087 A 
HETATM   16  C   UNL     1     -40.589  53.221 -49.543  1.00  0.00     0.032 A 
HETATM   17  C   UNL     1     -40.020  54.588 -49.855  1.00  0.00     0.025 A 
BRANCH  16  18
HETATM   18  C   UNL     1     -40.234  52.066 -50.454  1.00  0.00    -0.051 A 
HETATM   19  C   UNL     1     -39.941  52.254 -51.815  1.00  0.00     0.031 A 
HETATM   20  C   UNL     1     -39.628  51.174 -52.645  1.00  0.00     0.034 A 
HETATM   21  C   UNL     1     -39.627  49.876 -52.145  1.00  0.00     0.024 A 
HETATM   22 CL   UNL     1     -39.245  51.450 -54.301  1.00  0.00    -0.084 Cl
HETATM   23  C   UNL     1     -39.944  49.658 -50.808  1.00  0.00     0.002 A 
HETATM   24  C   UNL     1     -40.245  50.742 -49.978  1.00  0.00     0.007 A 
ENDBRANCH  16  18
ENDBRANCH  12  15
ENDBRANCH   1  11
BRANCH   8  25
HETATM   25  C   UNL     1     -44.307  59.091 -55.290  1.00  0.00     0.270 C 
HETATM   26  N   UNL     1     -45.425  59.065 -54.503  1.00  0.00    -0.365 N 
HETATM   27  H   UNL     1     -45.890  58.178 -54.350  1.00  0.00     0.159 HD
HETATM   28  H   UNL     1     -45.753  59.911 -54.063  1.00  0.00     0.159 HD
HETATM   29  O   UNL     1     -43.693  60.133 -55.495  1.00  0.00    -0.266 OA
ENDBRANCH   8  25
TORSDOF 4
ENDMDL
MODEL 6
REMARK VINA RESULT:      -7.8      3.317      8.153
REMARK  4 active torsions:
REMARK  status: ('A' for Active; 'I' for Inactive)
REMARK    1  A    between atoms: C_6  and  C_7 
REMARK    2  A    between atoms: C_8  and  C_9 
REMARK       I    between atoms: C_9  and  N_10 
REMARK    3  A    between atoms: N_10  and  C_11 
REMARK    4  A    between atoms: C_18  and  C_19 
REMARK       I    between atoms: C_19  and  N_20 
ROOT
HETATM    1  C   UNL     1     -41.183  55.289 -54.313  1.00  0.00     0.035 A 
HETATM    2  C   UNL     1     -41.202  55.097 -52.921  1.00  0.00     0.046 A 
HETATM    3  C   UNL     1     -40.741  53.881 -52.376  1.00  0.00     0.030 A 
HETATM    4  C   UNL     1     -40.299  52.887 -53.237  1.00  0.00     0.063 A 
HETATM    5  N   UNL     1     -39.925  51.848 -52.433  1.00  0.00    -0.277 N 
HETATM    6  H   UNL     1     -39.553  50.950 -52.725  1.00  0.00     0.189 HD
HETATM    7  N   UNL     1     -40.073  52.082 -51.118  1.00  0.00    -0.168 NA
HETATM    8  C   UNL     1     -40.577  53.335 -51.068  1.00  0.00     0.156 A 
HETATM    9  C   UNL     1     -40.285  53.036 -54.625  1.00  0.00     0.034 A 
HETATM   10  C   UNL     1     -40.733  54.259 -55.143  1.00  0.00     0.032 A 
ENDROOT
BRANCH   1  11
HETATM   11  N   UNL     1     -41.641  56.533 -54.794  1.00  0.00    -0.327 N 
HETATM   12  C   UNL     1     -42.944  56.889 -55.066  1.00  0.00     0.227 C 
HETATM   13  O   UNL     1     -43.928  56.164 -55.046  1.00  0.00    -0.273 OA
HETATM   14  H   UNL     1     -40.930  57.217 -55.016  1.00  0.00     0.169 HD
BRANCH  12  15
HETATM   15  C   UNL     1     -43.110  58.294 -55.534  1.00  0.00     0.087 A 
HETATM   16  C   UNL     1     -43.357  58.630 -56.995  1.00  0.00     0.032 A 
HETATM   17  C   UNL     1     -44.429  58.880 -55.957  1.00  0.00     0.025 A 
BRANCH  16  18
HETATM   18  C   UNL     1     -43.621  57.600 -58.072  1.00  0.00    -0.051 A 
HETATM   19  C   UNL     1     -44.912  57.356 -58.570  1.00  0.00     0.031 A 
HETATM   20  C   UNL     1     -45.139  56.393 -59.556  1.00  0.00     0.034 A 
HETATM   21  C   UNL     1     -44.089  55.627 -60.050  1.00  0.00     0.024 A 
HETATM   22 CL   UNL     1     -46.732  56.146 -60.161  1.00  0.00    -0.084 Cl
HETATM   23  C   UNL     1     -42.804  55.825 -59.552  1.00  0.00     0.002 A 
HETATM   24  C   UNL     1     -42.579  56.799 -58.575  1.00  0.00     0.007 A 
ENDBRANCH  16  18
ENDBRANCH  12  15
ENDBRANCH   1  11
BRANCH   8  25
HETATM   25  C   UNL     1     -40.881  53.988 -49.788  1.00  0.00     0.270 C 
HETATM   26  N   UNL     1     -39.779  54.266 -49.027  1.00  0.00    -0.365 N 
HETATM   27  H   UNL     1     -38.865  54.022 -49.391  1.00  0.00     0.159 HD
HETATM   28  H   UNL     1     -39.883  54.733 -48.140  1.00  0.00     0.159 HD
HETATM   29  O   UNL     1     -42.011  54.278 -49.407  1.00  0.00    -0.266 OA
ENDBRANCH   8  25
TORSDOF 4
ENDMDL
MODEL 7
REMARK VINA RESULT:      -7.8      3.022      7.105
REMARK  4 active torsions:
REMARK  status: ('A' for Active; 'I' for Inactive)
REMARK    1  A    between atoms: C_6  and  C_7 
REMARK    2  A    between atoms: C_8  and  C_9 
REMARK       I    between atoms: C_9  and  N_10 
REMARK    3  A    between atoms: N_10  and  C_11 
REMARK    4  A    between atoms: C_18  and  C_19 
REMARK       I    between atoms: C_19  and  N_20 
ROOT
HETATM    1  C   UNL     1     -41.084  54.012 -54.345  1.00  0.00     0.035 A 
HETATM    2  C   UNL     1     -41.386  54.266 -52.996  1.00  0.00     0.046 A 
HETATM    3  C   UNL     1     -40.868  53.420 -51.993  1.00  0.00     0.030 A 
HETATM    4  C   UNL     1     -40.088  52.336 -52.369  1.00  0.00     0.063 A 
HETATM    5  N   UNL     1     -39.742  51.714 -51.203  1.00  0.00    -0.277 N 
HETATM    6  H   UNL     1     -39.174  50.880 -51.098  1.00  0.00     0.189 HD
HETATM    7  N   UNL     1     -40.219  52.307 -50.094  1.00  0.00    -0.168 NA
HETATM    8  C   UNL     1     -40.917  53.362 -50.568  1.00  0.00     0.156 A 
HETATM    9  C   UNL     1     -39.786  52.042 -53.700  1.00  0.00     0.034 A 
HETATM   10  C   UNL     1     -40.299  52.906 -54.679  1.00  0.00     0.032 A 
ENDROOT
BRANCH   1  11
HETATM   11  N   UNL     1     -41.618  54.904 -55.298  1.00  0.00    -0.327 N 
HETATM   12  C   UNL     1     -42.824  54.793 -55.956  1.00  0.00     0.227 C 
HETATM   13  O   UNL     1     -43.603  53.852 -55.918  1.00  0.00    -0.273 OA
HETATM   14  H   UNL     1     -41.025  55.677 -55.569  1.00  0.00     0.169 HD
BRANCH  12  15
HETATM   15  C   UNL     1     -43.121  55.919 -56.885  1.00  0.00     0.087 A 
HETATM   16  C   UNL     1     -43.554  57.285 -56.379  1.00  0.00     0.032 A 
HETATM   17  C   UNL     1     -42.218  57.108 -57.067  1.00  0.00     0.025 A 
BRANCH  16  18
HETATM   18  C   UNL     1     -43.566  57.687 -54.920  1.00  0.00    -0.051 A 
HETATM   19  C   UNL     1     -42.456  58.287 -54.302  1.00  0.00     0.031 A 
HETATM   20  C   UNL     1     -42.481  58.640 -52.951  1.00  0.00     0.034 A 
HETATM   21  C   UNL     1     -43.604  58.378 -52.173  1.00  0.00     0.024 A 
HETATM   22 CL   UNL     1     -41.110  59.400 -52.238  1.00  0.00    -0.084 Cl
HETATM   23  C   UNL     1     -44.707  57.757 -52.751  1.00  0.00     0.002 A 
HETATM   24  C   UNL     1     -44.683  57.416 -54.107  1.00  0.00     0.007 A 
ENDBRANCH  16  18
ENDBRANCH  12  15
ENDBRANCH   1  11
BRANCH   8  25
HETATM   25  C   UNL     1     -41.603  54.295 -49.664  1.00  0.00     0.270 C 
HETATM   26  N   UNL     1     -40.883  54.623 -48.549  1.00  0.00    -0.365 N 
HETATM   27  H   UNL     1     -39.958  54.225 -48.434  1.00  0.00     0.159 HD
HETATM   28  H   UNL     1     -41.260  55.274 -47.878  1.00  0.00     0.159 HD
HETATM   29  O   UNL     1     -42.720  54.761 -49.865  1.00  0.00    -0.266 OA
ENDBRANCH   8  25
TORSDOF 4
ENDMDL
MODEL 8
REMARK VINA RESULT:      -7.5      3.869      7.093
REMARK  4 active torsions:
REMARK  status: ('A' for Active; 'I' for Inactive)
REMARK    1  A    between atoms: C_6  and  C_7 
REMARK    2  A    between atoms: C_8  and  C_9 
REMARK       I    between atoms: C_9  and  N_10 
REMARK    3  A    between atoms: N_10  and  C_11 
REMARK    4  A    between atoms: C_18  and  C_19 
REMARK       I    between atoms: C_19  and  N_20 
ROOT
HETATM    1  C   UNL     1     -40.917  54.367 -52.592  1.00  0.00     0.035 A 
HETATM    2  C   UNL     1     -40.663  53.152 -53.250  1.00  0.00     0.046 A 
HETATM    3  C   UNL     1     -40.224  52.035 -52.510  1.00  0.00     0.030 A 
HETATM    4  C   UNL     1     -40.029  52.173 -51.143  1.00  0.00     0.063 A 
HETATM    5  N   UNL     1     -39.608  50.947 -50.709  1.00  0.00    -0.277 N 
HETATM    6  H   UNL     1     -39.368  50.682 -49.760  1.00  0.00     0.189 HD
HETATM    7  N   UNL     1     -39.524  50.015 -51.674  1.00  0.00    -0.168 NA
HETATM    8  C   UNL     1     -39.902  50.674 -52.792  1.00  0.00     0.156 A 
HETATM    9  C   UNL     1     -40.251  53.370 -50.461  1.00  0.00     0.034 A 
HETATM   10  C   UNL     1     -40.702  54.463 -51.215  1.00  0.00     0.032 A 
ENDROOT
BRANCH   1  11
HETATM   11  N   UNL     1     -41.371  55.442 -53.385  1.00  0.00    -0.327 N 
HETATM   12  C   UNL     1     -42.589  56.080 -53.301  1.00  0.00     0.227 C 
HETATM   13  O   UNL     1     -43.541  55.766 -52.601  1.00  0.00    -0.273 OA
HETATM   14  H   UNL     1     -40.757  55.737 -54.133  1.00  0.00     0.169 HD
BRANCH  12  15
HETATM   15  C   UNL     1     -42.759  57.206 -54.261  1.00  0.00     0.087 A 
HETATM   16  C   UNL     1     -42.468  58.646 -53.870  1.00  0.00     0.032 A 
HETATM   17  C   UNL     1     -41.609  57.938 -54.896  1.00  0.00     0.025 A 
BRANCH  16  18
HETATM   18  C   UNL     1     -41.833  59.060 -52.560  1.00  0.00    -0.051 A 
HETATM   19  C   UNL     1     -40.458  58.907 -52.316  1.00  0.00     0.031 A 
HETATM   20  C   UNL     1     -39.891  59.283 -51.096  1.00  0.00     0.034 A 
HETATM   21  C   UNL     1     -40.686  59.794 -50.076  1.00  0.00     0.024 A 
HETATM   22 CL   UNL     1     -38.196  59.108 -50.849  1.00  0.00    -0.084 Cl
HETATM   23  C   UNL     1     -42.057  59.927 -50.278  1.00  0.00     0.002 A 
HETATM   24  C   UNL     1     -42.618  59.561 -51.505  1.00  0.00     0.007 A 
ENDBRANCH  16  18
ENDBRANCH  12  15
ENDBRANCH   1  11
BRANCH   8  25
HETATM   25  C   UNL     1     -39.959  50.000 -54.096  1.00  0.00     0.270 C 
HETATM   26  N   UNL     1     -41.207  49.967 -54.654  1.00  0.00    -0.365 N 
HETATM   27  H   UNL     1     -41.973  50.403 -54.154  1.00  0.00     0.159 HD
HETATM   28  H   UNL     1     -41.345  49.544 -55.559  1.00  0.00     0.159 HD
HETATM   29  O   UNL     1     -38.990  49.505 -54.664  1.00  0.00    -0.266 OA
ENDBRANCH   8  25
TORSDOF 4
ENDMDL
MODEL 9
REMARK VINA RESULT:      -7.5      3.836      7.379
REMARK  4 active torsions:
REMARK  status: ('A' for Active; 'I' for Inactive)
REMARK    1  A    between atoms: C_6  and  C_7 
REMARK    2  A    between atoms: C_8  and  C_9 
REMARK       I    between atoms: C_9  and  N_10 
REMARK    3  A    between atoms: N_10  and  C_11 
REMARK    4  A    between atoms: C_18  and  C_19 
REMARK       I    between atoms: C_19  and  N_20 
ROOT
HETATM    1  C   UNL     1     -41.279  55.316 -53.947  1.00  0.00     0.035 A 
HETATM    2  C   UNL     1     -41.259  55.284 -52.542  1.00  0.00     0.046 A 
HETATM    3  C   UNL     1     -40.795  54.130 -51.876  1.00  0.00     0.030 A 
HETATM    4  C   UNL     1     -40.391  53.039 -52.632  1.00  0.00     0.063 A 
HETATM    5  N   UNL     1     -40.005  52.091 -51.726  1.00  0.00    -0.277 N 
HETATM    6  H   UNL     1     -39.653  51.161 -51.924  1.00  0.00     0.189 HD
HETATM    7  N   UNL     1     -40.110  52.475 -50.442  1.00  0.00    -0.168 NA
HETATM    8  C   UNL     1     -40.598  53.733 -50.521  1.00  0.00     0.156 A 
HETATM    9  C   UNL     1     -40.418  53.029 -54.027  1.00  0.00     0.034 A 
HETATM   10  C   UNL     1     -40.867  54.192 -54.668  1.00  0.00     0.032 A 
ENDROOT
BRANCH   1  11
HETATM   11  N   UNL     1     -41.738  56.505 -54.553  1.00  0.00    -0.327 N 
HETATM   12  C   UNL     1     -43.033  56.976 -54.583  1.00  0.00     0.227 C 
HETATM   13  O   UNL     1     -44.037  56.403 -54.187  1.00  0.00    -0.273 OA
HETATM   14  H   UNL     1     -41.051  57.038 -55.069  1.00  0.00     0.169 HD
BRANCH  12  15
HETATM   15  C   UNL     1     -43.192  58.284 -55.276  1.00  0.00     0.087 A 
HETATM   16  C   UNL     1     -43.064  59.606 -54.538  1.00  0.00     0.032 A 
HETATM   17  C   UNL     1     -42.046  59.208 -55.585  1.00  0.00     0.025 A 
BRANCH  16  18
HETATM   18  C   UNL     1     -42.607  59.736 -53.101  1.00  0.00    -0.051 A 
HETATM   19  C   UNL     1     -41.286  59.462 -52.710  1.00  0.00     0.031 A 
HETATM   20  C   UNL     1     -40.886  59.575 -51.377  1.00  0.00     0.034 A 
HETATM   21  C   UNL     1     -41.800  59.938 -50.393  1.00  0.00     0.024 A 
HETATM   22 CL   UNL     1     -39.249  59.259 -50.944  1.00  0.00    -0.084 Cl
HETATM   23  C   UNL     1     -43.122  60.186 -50.747  1.00  0.00     0.002 A 
HETATM   24  C   UNL     1     -43.517  60.083 -52.084  1.00  0.00     0.007 A 
ENDBRANCH  16  18
ENDBRANCH  12  15
ENDBRANCH   1  11
BRANCH   8  25
HETATM   25  C   UNL     1     -40.854  54.532 -49.314  1.00  0.00     0.270 C 
HETATM   26  N   UNL     1     -40.395  53.962 -48.159  1.00  0.00    -0.365 N 
HETATM   27  H   UNL     1     -39.919  53.069 -48.215  1.00  0.00     0.159 HD
HETATM   28  H   UNL     1     -40.505  54.443 -47.280  1.00  0.00     0.159 HD
HETATM   29  O   UNL     1     -41.422  55.620 -49.310  1.00  0.00    -0.266 OA
ENDBRANCH   8  25
TORSDOF 4
ENDMDL
MODEL 10
REMARK VINA RESULT:      -7.4      2.288      3.718
REMARK  4 active torsions:
REMARK  status: ('A' for Active; 'I' for Inactive)
REMARK    1  A    between atoms: C_6  and  C_7 
REMARK    2  A    between atoms: C_8  and  C_9 
REMARK       I    between atoms: C_9  and  N_10 
REMARK    3  A    between atoms: N_10  and  C_11 
REMARK    4  A    between atoms: C_18  and  C_19 
REMARK       I    between atoms: C_19  and  N_20 
ROOT
HETATM    1  C   UNL     1     -42.882  57.826 -56.017  1.00  0.00     0.035 A 
HETATM    2  C   UNL     1     -43.516  56.984 -56.946  1.00  0.00     0.046 A 
HETATM    3  C   UNL     1     -43.374  57.235 -58.327  1.00  0.00     0.030 A 
HETATM    4  C   UNL     1     -42.626  58.330 -58.734  1.00  0.00     0.063 A 
HETATM    5  N   UNL     1     -42.672  58.314 -60.100  1.00  0.00    -0.277 N 
HETATM    6  H   UNL     1     -42.235  58.973 -60.736  1.00  0.00     0.189 HD
HETATM    7  N   UNL     1     -43.376  57.294 -60.621  1.00  0.00    -0.168 NA
HETATM    8  C   UNL     1     -43.816  56.620 -59.535  1.00  0.00     0.156 A 
HETATM    9  C   UNL     1     -42.000  59.198 -57.839  1.00  0.00     0.034 A 
HETATM   10  C   UNL     1     -42.141  58.921 -56.472  1.00  0.00     0.032 A 
ENDROOT
BRANCH   1  11
HETATM   11  N   UNL     1     -43.048  57.513 -54.651  1.00  0.00    -0.327 N 
HETATM   12  C   UNL     1     -42.065  57.462 -53.686  1.00  0.00     0.227 C 
HETATM   13  O   UNL     1     -40.859  57.570 -53.852  1.00  0.00    -0.273 OA
HETATM   14  H   UNL     1     -43.978  57.242 -54.364  1.00  0.00     0.169 HD
BRANCH  12  15
HETATM   15  C   UNL     1     -42.564  57.131 -52.322  1.00  0.00     0.087 A 
HETATM   16  C   UNL     1     -42.586  55.705 -51.798  1.00  0.00     0.032 A 
HETATM   17  C   UNL     1     -41.668  56.738 -51.181  1.00  0.00     0.025 A 
BRANCH  16  18
HETATM   18  C   UNL     1     -41.966  54.526 -52.516  1.00  0.00    -0.051 A 
HETATM   19  C   UNL     1     -40.915  53.781 -51.957  1.00  0.00     0.031 A 
HETATM   20  C   UNL     1     -40.346  52.703 -52.640  1.00  0.00     0.034 A 
HETATM   21  C   UNL     1     -40.792  52.358 -53.911  1.00  0.00     0.024 A 
HETATM   22 CL   UNL     1     -39.079  51.796 -51.906  1.00  0.00    -0.084 Cl
HETATM   23  C   UNL     1     -41.811  53.098 -54.502  1.00  0.00     0.002 A 
HETATM   24  C   UNL     1     -42.386  54.168 -53.811  1.00  0.00     0.007 A 
ENDBRANCH  16  18
ENDBRANCH  12  15
ENDBRANCH   1  11
BRANCH   8  25
HETATM   25  C   UNL     1     -44.633  55.406 -59.668  1.00  0.00     0.270 C 
HETATM   26  N   UNL     1     -45.979  55.642 -59.727  1.00  0.00    -0.365 N 
HETATM   27  H   UNL     1     -46.305  56.601 -59.688  1.00  0.00     0.159 HD
HETATM   28  H   UNL     1     -46.622  54.873 -59.839  1.00  0.00     0.159 HD
HETATM   29  O   UNL     1     -44.179  54.267 -59.729  1.00  0.00    -0.266 OA
ENDBRANCH   8  25
TORSDOF 4
ENDMDL
