MODEL 1
REMARK VINA RESULT:      -7.8      0.000      0.000
REMARK  7 active torsions:
REMARK  status: ('A' for Active; 'I' for Inactive)
REMARK    1  A    between atoms: N_3  and  N_4 
REMARK       I    between atoms: N_4  and  C_5 
REMARK    2  A    between atoms: C_5  and  C_6 
REMARK    3  A    between atoms: C_9  and  O_10 
REMARK    4  A    between atoms: O_10  and  C_11 
REMARK    5  A    between atoms: C_11  and  C_12 
REMARK       I    between atoms: C_12  and  N_13 
REMARK    6  A    between atoms: N_13  and  C_14 
REMARK    7  A    between atoms: C_15  and  O_16 
ROOT
HETATM    1  C   UNL     1     -42.947  57.281 -54.563  1.00  0.00     0.033 A 
HETATM    2  C   UNL     1     -41.642  57.467 -54.096  1.00  0.00     0.020 A 
HETATM    3  C   UNL     1     -41.345  57.216 -52.753  1.00  0.00     0.038 A 
HETATM    4  C   UNL     1     -42.344  56.798 -51.869  1.00  0.00     0.069 A 
HETATM    5  C   UNL     1     -43.638  56.582 -52.347  1.00  0.00     0.038 A 
HETATM    6  C   UNL     1     -43.938  56.818 -53.692  1.00  0.00     0.020 A 
ENDROOT
BRANCH   4   7
HETATM    7  O   UNL     1     -41.935  56.617 -50.574  1.00  0.00    -0.342 OA
BRANCH   7   8
HETATM    8  C   UNL     1     -40.898  55.664 -50.365  1.00  0.00     0.278 C 
BRANCH   8   9
HETATM    9  C   UNL     1     -41.216  54.272 -50.924  1.00  0.00     0.246 C 
HETATM   10  N   UNL     1     -40.206  53.793 -51.735  1.00  0.00    -0.323 N 
HETATM   11  H   UNL     1     -39.437  54.421 -51.953  1.00  0.00     0.169 HD
HETATM   12  O   UNL     1     -42.275  53.710 -50.661  1.00  0.00    -0.271 OA
BRANCH  10  13
HETATM   13  C   UNL     1     -40.082  52.513 -52.315  1.00  0.00     0.068 A 
HETATM   14  C   UNL     1     -40.349  52.405 -53.696  1.00  0.00     0.095 A 
HETATM   15  C   UNL     1     -40.195  51.173 -54.339  1.00  0.00     0.039 A 
HETATM   16  C   UNL     1     -39.791  50.051 -53.614  1.00  0.00     0.003 A 
HETATM   17  C   UNL     1     -39.539  50.155 -52.248  1.00  0.00     0.002 A 
HETATM   18  C   UNL     1     -39.685  51.383 -51.598  1.00  0.00     0.032 A 
BRANCH  14  19
HETATM   19  O   UNL     1     -40.741  53.567 -54.321  1.00  0.00    -0.354 OA
HETATM   20  C   UNL     1     -42.109  53.640 -54.712  1.00  0.00     0.210 C 
ENDBRANCH  14  19
ENDBRANCH  10  13
ENDBRANCH   8   9
ENDBRANCH   7   8
ENDBRANCH   4   7
BRANCH   1  21
HETATM   21  C   UNL     1     -43.311  57.548 -55.978  1.00  0.00     0.270 C 
HETATM   22  N   UNL     1     -42.294  57.345 -56.880  1.00  0.00    -0.259 N 
HETATM   23  H   UNL     1     -41.334  57.203 -56.607  1.00  0.00     0.191 HD
HETATM   24  O   UNL     1     -44.435  57.951 -56.246  1.00  0.00    -0.266 OA
BRANCH  22  25
HETATM   25  N   UNL     1     -42.482  57.643 -58.177  1.00  0.00    -0.263 N 
HETATM   26  C   UNL     1     -42.896  56.724 -59.101  1.00  0.00     0.030 A 
HETATM   27  C   UNL     1     -43.379  55.367 -58.743  1.00  0.00     0.070 C 
HETATM   28  C   UNL     1     -42.782  57.332 -60.338  1.00  0.00     0.028 A 
HETATM   29  C   UNL     1     -42.254  58.633 -60.132  1.00  0.00     0.028 A 
HETATM   30  C   UNL     1     -42.051  58.797 -58.773  1.00  0.00     0.030 A 
HETATM   31  C   UNL     1     -41.529  59.967 -58.022  1.00  0.00     0.070 C 
ENDBRANCH  22  25
ENDBRANCH   1  21
TORSDOF 7
ENDMDL
MODEL 2
REMARK VINA RESULT:      -7.7      2.501      3.510
REMARK  7 active torsions:
REMARK  status: ('A' for Active; 'I' for Inactive)
REMARK    1  A    between atoms: N_3  and  N_4 
REMARK       I    between atoms: N_4  and  C_5 
REMARK    2  A    between atoms: C_5  and  C_6 
REMARK    3  A    between atoms: C_9  and  O_10 
REMARK    4  A    between atoms: O_10  and  C_11 
REMARK    5  A    between atoms: C_11  and  C_12 
REMARK       I    between atoms: C_12  and  N_13 
REMARK    6  A    between atoms: N_13  and  C_14 
REMARK    7  A    between atoms: C_15  and  O_16 
ROOT
HETATM    1  C   UNL     1     -43.124  57.211 -57.102  1.00  0.00     0.033 A 
HETATM    2  C   UNL     1     -42.971  58.247 -56.175  1.00  0.00     0.020 A 
HETATM    3  C   UNL     1     -42.254  58.021 -54.996  1.00  0.00     0.038 A 
HETATM    4  C   UNL     1     -41.702  56.765 -54.728  1.00  0.00     0.069 A 
HETATM    5  C   UNL     1     -41.829  55.743 -55.671  1.00  0.00     0.038 A 
HETATM    6  C   UNL     1     -42.534  55.967 -56.858  1.00  0.00     0.020 A 
ENDROOT
BRANCH   4   7
HETATM    7  O   UNL     1     -41.052  56.661 -53.527  1.00  0.00    -0.342 OA
BRANCH   7   8
HETATM    8  C   UNL     1     -41.760  56.010 -52.478  1.00  0.00     0.278 C 
BRANCH   8   9
HETATM    9  C   UNL     1     -41.845  54.488 -52.640  1.00  0.00     0.246 C 
HETATM   10  N   UNL     1     -40.627  53.931 -52.977  1.00  0.00    -0.323 N 
HETATM   11  H   UNL     1     -39.857  54.564 -53.175  1.00  0.00     0.169 HD
HETATM   12  O   UNL     1     -42.908  53.893 -52.495  1.00  0.00    -0.271 OA
BRANCH  10  13
HETATM   13  C   UNL     1     -40.287  52.566 -53.080  1.00  0.00     0.068 A 
HETATM   14  C   UNL     1     -39.763  51.945 -51.927  1.00  0.00     0.095 A 
HETATM   15  C   UNL     1     -39.455  50.582 -51.950  1.00  0.00     0.039 A 
HETATM   16  C   UNL     1     -39.653  49.840 -53.116  1.00  0.00     0.003 A 
HETATM   17  C   UNL     1     -40.158  50.455 -54.259  1.00  0.00     0.002 A 
HETATM   18  C   UNL     1     -40.475  51.816 -54.243  1.00  0.00     0.032 A 
BRANCH  14  19
HETATM   19  O   UNL     1     -39.606  52.761 -50.829  1.00  0.00    -0.354 OA
HETATM   20  C   UNL     1     -40.486  52.518 -49.735  1.00  0.00     0.210 C 
ENDBRANCH  14  19
ENDBRANCH  10  13
ENDBRANCH   8   9
ENDBRANCH   7   8
ENDBRANCH   4   7
BRANCH   1  21
HETATM   21  C   UNL     1     -43.889  57.401 -58.361  1.00  0.00     0.270 C 
HETATM   22  N   UNL     1     -45.164  56.889 -58.340  1.00  0.00    -0.259 N 
HETATM   23  H   UNL     1     -45.502  56.278 -57.612  1.00  0.00     0.191 HD
HETATM   24  O   UNL     1     -43.353  57.948 -59.316  1.00  0.00    -0.266 OA
BRANCH  22  25
HETATM   25  N   UNL     1     -45.917  56.923 -59.453  1.00  0.00    -0.263 N 
HETATM   26  C   UNL     1     -46.860  57.885 -59.687  1.00  0.00     0.030 A 
HETATM   27  C   UNL     1     -47.013  59.099 -58.847  1.00  0.00     0.070 C 
HETATM   28  C   UNL     1     -47.557  57.485 -60.812  1.00  0.00     0.028 A 
HETATM   29  C   UNL     1     -47.027  56.237 -61.228  1.00  0.00     0.028 A 
HETATM   30  C   UNL     1     -46.016  55.893 -60.348  1.00  0.00     0.030 A 
HETATM   31  C   UNL     1     -45.133  54.699 -60.332  1.00  0.00     0.070 C 
ENDBRANCH  22  25
ENDBRANCH   1  21
TORSDOF 7
ENDMDL
MODEL 3
REMARK VINA RESULT:      -7.6      5.005      7.380
REMARK  7 active torsions:
REMARK  status: ('A' for Active; 'I' for Inactive)
REMARK    1  A    between atoms: N_3  and  N_4 
REMARK       I    between atoms: N_4  and  C_5 
REMARK    2  A    between atoms: C_5  and  C_6 
REMARK    3  A    between atoms: C_9  and  O_10 
REMARK    4  A    between atoms: O_10  and  C_11 
REMARK    5  A    between atoms: C_11  and  C_12 
REMARK       I    between atoms: C_12  and  N_13 
REMARK    6  A    between atoms: N_13  and  C_14 
REMARK    7  A    between atoms: C_15  and  O_16 
ROOT
HETATM    1  C   UNL     1     -44.624  59.630 -50.643  1.00  0.00     0.033 A 
HETATM    2  C   UNL     1     -45.291  58.436 -50.937  1.00  0.00     0.020 A 
HETATM    3  C   UNL     1     -44.699  57.505 -51.796  1.00  0.00     0.038 A 
HETATM    4  C   UNL     1     -43.455  57.764 -52.378  1.00  0.00     0.069 A 
HETATM    5  C   UNL     1     -42.778  58.943 -52.057  1.00  0.00     0.038 A 
HETATM    6  C   UNL     1     -43.359  59.871 -51.187  1.00  0.00     0.020 A 
ENDROOT
BRANCH   4   7
HETATM    7  O   UNL     1     -42.997  56.791 -53.226  1.00  0.00    -0.342 OA
BRANCH   7   8
HETATM    8  C   UNL     1     -41.793  56.134 -52.844  1.00  0.00     0.278 C 
BRANCH   8   9
HETATM    9  C   UNL     1     -41.878  54.604 -52.902  1.00  0.00     0.246 C 
HETATM   10  N   UNL     1     -40.661  54.025 -53.204  1.00  0.00    -0.323 N 
HETATM   11  H   UNL     1     -39.892  54.643 -53.448  1.00  0.00     0.169 HD
HETATM   12  O   UNL     1     -42.941  54.021 -52.713  1.00  0.00    -0.271 OA
BRANCH  10  13
HETATM   13  C   UNL     1     -40.322  52.656 -53.215  1.00  0.00     0.068 A 
HETATM   14  C   UNL     1     -39.760  52.124 -52.036  1.00  0.00     0.095 A 
HETATM   15  C   UNL     1     -39.450  50.763 -51.967  1.00  0.00     0.039 A 
HETATM   16  C   UNL     1     -39.683  49.935 -53.067  1.00  0.00     0.003 A 
HETATM   17  C   UNL     1     -40.226  50.463 -54.235  1.00  0.00     0.002 A 
HETATM   18  C   UNL     1     -40.545  51.821 -54.312  1.00  0.00     0.032 A 
BRANCH  14  19
HETATM   19  O   UNL     1     -39.570  53.020 -51.008  1.00  0.00    -0.354 OA
HETATM   20  C   UNL     1     -40.411  52.858 -49.870  1.00  0.00     0.210 C 
ENDBRANCH  14  19
ENDBRANCH  10  13
ENDBRANCH   8   9
ENDBRANCH   7   8
ENDBRANCH   4   7
BRANCH   1  21
HETATM   21  C   UNL     1     -45.221  60.653 -49.747  1.00  0.00     0.270 C 
HETATM   22  N   UNL     1     -44.511  60.890 -48.595  1.00  0.00    -0.259 N 
HETATM   23  H   UNL     1     -43.752  60.306 -48.284  1.00  0.00     0.191 HD
HETATM   24  O   UNL     1     -46.284  61.178 -50.054  1.00  0.00    -0.266 OA
BRANCH  22  25
HETATM   25  N   UNL     1     -45.004  61.729 -47.667  1.00  0.00    -0.263 N 
HETATM   26  C   UNL     1     -45.868  61.331 -46.684  1.00  0.00     0.030 A 
HETATM   27  C   UNL     1     -46.190  59.908 -46.408  1.00  0.00     0.070 C 
HETATM   28  C   UNL     1     -46.307  62.482 -46.057  1.00  0.00     0.028 A 
HETATM   29  C   UNL     1     -45.708  63.587 -46.715  1.00  0.00     0.028 A 
HETATM   30  C   UNL     1     -44.915  63.092 -47.736  1.00  0.00     0.030 A 
HETATM   31  C   UNL     1     -44.065  63.815 -48.717  1.00  0.00     0.070 C 
ENDBRANCH  22  25
ENDBRANCH   1  21
TORSDOF 7
ENDMDL
MODEL 4
REMARK VINA RESULT:      -7.5      1.799      7.399
REMARK  7 active torsions:
REMARK  status: ('A' for Active; 'I' for Inactive)
REMARK    1  A    between atoms: N_3  and  N_4 
REMARK       I    between atoms: N_4  and  C_5 
REMARK    2  A    between atoms: C_5  and  C_6 
REMARK    3  A    between atoms: C_9  and  O_10 
REMARK    4  A    between atoms: O_10  and  C_11 
REMARK    5  A    between atoms: C_11  and  C_12 
REMARK       I    between atoms: C_12  and  N_13 
REMARK    6  A    between atoms: N_13  and  C_14 
REMARK    7  A    between atoms: C_15  and  O_16 
ROOT
HETATM    1  C   UNL     1     -42.023  56.278 -52.798  1.00  0.00     0.033 A 
HETATM    2  C   UNL     1     -40.911  57.032 -53.187  1.00  0.00     0.020 A 
HETATM    3  C   UNL     1     -41.069  58.385 -53.504  1.00  0.00     0.038 A 
HETATM    4  C   UNL     1     -42.330  58.986 -53.452  1.00  0.00     0.069 A 
HETATM    5  C   UNL     1     -43.431  58.237 -53.032  1.00  0.00     0.038 A 
HETATM    6  C   UNL     1     -43.277  56.887 -52.701  1.00  0.00     0.020 A 
ENDROOT
BRANCH   4   7
HETATM    7  O   UNL     1     -42.358  60.305 -53.816  1.00  0.00    -0.342 OA
BRANCH   7   8
HETATM    8  C   UNL     1     -43.084  60.620 -55.001  1.00  0.00     0.278 C 
BRANCH   8   9
HETATM    9  C   UNL     1     -42.583  59.881 -56.247  1.00  0.00     0.246 C 
HETATM   10  N   UNL     1     -43.460  58.897 -56.658  1.00  0.00    -0.323 N 
HETATM   11  H   UNL     1     -44.261  58.699 -56.063  1.00  0.00     0.169 HD
HETATM   12  O   UNL     1     -41.506  60.166 -56.762  1.00  0.00    -0.271 OA
BRANCH  10  13
HETATM   13  C   UNL     1     -43.405  58.108 -57.826  1.00  0.00     0.068 A 
HETATM   14  C   UNL     1     -43.079  56.745 -57.666  1.00  0.00     0.095 A 
HETATM   15  C   UNL     1     -43.057  55.899 -58.779  1.00  0.00     0.039 A 
HETATM   16  C   UNL     1     -43.346  56.406 -60.047  1.00  0.00     0.003 A 
HETATM   17  C   UNL     1     -43.655  57.754 -60.208  1.00  0.00     0.002 A 
HETATM   18  C   UNL     1     -43.685  58.605 -59.100  1.00  0.00     0.032 A 
BRANCH  14  19
HETATM   19  O   UNL     1     -42.812  56.342 -56.377  1.00  0.00    -0.354 OA
HETATM   20  C   UNL     1     -42.705  54.937 -56.166  1.00  0.00     0.210 C 
ENDBRANCH  14  19
ENDBRANCH  10  13
ENDBRANCH   8   9
ENDBRANCH   7   8
ENDBRANCH   4   7
BRANCH   1  21
HETATM   21  C   UNL     1     -41.905  54.835 -52.466  1.00  0.00     0.270 C 
HETATM   22  N   UNL     1     -40.618  54.394 -52.273  1.00  0.00    -0.259 N 
HETATM   23  H   UNL     1     -39.805  54.942 -52.509  1.00  0.00     0.191 HD
HETATM   24  O   UNL     1     -42.913  54.142 -52.419  1.00  0.00    -0.266 OA
BRANCH  22  25
HETATM   25  N   UNL     1     -40.383  53.088 -52.058  1.00  0.00    -0.263 N 
HETATM   26  C   UNL     1     -40.188  52.561 -50.811  1.00  0.00     0.030 A 
HETATM   27  C   UNL     1     -40.415  53.323 -49.557  1.00  0.00     0.070 C 
HETATM   28  C   UNL     1     -39.783  51.252 -50.997  1.00  0.00     0.028 A 
HETATM   29  C   UNL     1     -39.707  51.018 -52.394  1.00  0.00     0.028 A 
HETATM   30  C   UNL     1     -40.065  52.190 -53.039  1.00  0.00     0.030 A 
HETATM   31  C   UNL     1     -40.163  52.486 -54.491  1.00  0.00     0.070 C 
ENDBRANCH  22  25
ENDBRANCH   1  21
TORSDOF 7
ENDMDL
MODEL 5
REMARK VINA RESULT:      -7.4      1.839      2.453
REMARK  7 active torsions:
REMARK  status: ('A' for Active; 'I' for Inactive)
REMARK    1  A    between atoms: N_3  and  N_4 
REMARK       I    between atoms: N_4  and  C_5 
REMARK    2  A    between atoms: C_5  and  C_6 
REMARK    3  A    between atoms: C_9  and  O_10 
REMARK    4  A    between atoms: O_10  and  C_11 
REMARK    5  A    between atoms: C_11  and  C_12 
REMARK       I    between atoms: C_12  and  N_13 
REMARK    6  A    between atoms: N_13  and  C_14 
REMARK    7  A    between atoms: C_15  and  O_16 
ROOT
HETATM    1  C   UNL     1     -43.259  58.096 -55.512  1.00  0.00     0.033 A 
HETATM    2  C   UNL     1     -44.050  57.567 -54.487  1.00  0.00     0.020 A 
HETATM    3  C   UNL     1     -43.548  57.514 -53.183  1.00  0.00     0.038 A 
HETATM    4  C   UNL     1     -42.257  57.968 -52.897  1.00  0.00     0.069 A 
HETATM    5  C   UNL     1     -41.484  58.525 -53.918  1.00  0.00     0.038 A 
HETATM    6  C   UNL     1     -41.985  58.594 -55.221  1.00  0.00     0.020 A 
ENDROOT
BRANCH   4   7
HETATM    7  O   UNL     1     -41.870  57.832 -51.591  1.00  0.00    -0.342 OA
BRANCH   7   8
HETATM    8  C   UNL     1     -42.358  56.685 -50.902  1.00  0.00     0.278 C 
BRANCH   8   9
HETATM    9  C   UNL     1     -41.412  55.480 -50.961  1.00  0.00     0.246 C 
HETATM   10  N   UNL     1     -41.739  54.609 -51.981  1.00  0.00    -0.323 N 
HETATM   11  H   UNL     1     -42.594  54.791 -52.501  1.00  0.00     0.169 HD
HETATM   12  O   UNL     1     -40.499  55.351 -50.151  1.00  0.00    -0.271 OA
BRANCH  10  13
HETATM   13  C   UNL     1     -41.030  53.473 -52.424  1.00  0.00     0.068 A 
HETATM   14  C   UNL     1     -41.235  53.068 -53.759  1.00  0.00     0.095 A 
HETATM   15  C   UNL     1     -40.523  51.980 -54.272  1.00  0.00     0.039 A 
HETATM   16  C   UNL     1     -39.622  51.288 -53.461  1.00  0.00     0.003 A 
HETATM   17  C   UNL     1     -39.429  51.680 -52.139  1.00  0.00     0.002 A 
HETATM   18  C   UNL     1     -40.131  52.770 -51.619  1.00  0.00     0.032 A 
BRANCH  14  19
HETATM   19  O   UNL     1     -42.142  53.814 -54.477  1.00  0.00    -0.354 OA
HETATM   20  C   UNL     1     -41.600  54.665 -55.483  1.00  0.00     0.210 C 
ENDBRANCH  14  19
ENDBRANCH  10  13
ENDBRANCH   8   9
ENDBRANCH   7   8
ENDBRANCH   4   7
BRANCH   1  21
HETATM   21  C   UNL     1     -43.745  58.160 -56.914  1.00  0.00     0.270 C 
HETATM   22  N   UNL     1     -44.484  57.073 -57.315  1.00  0.00    -0.259 N 
HETATM   23  H   UNL     1     -44.548  56.221 -56.780  1.00  0.00     0.191 HD
HETATM   24  O   UNL     1     -43.443  59.118 -57.614  1.00  0.00    -0.266 OA
BRANCH  22  25
HETATM   25  N   UNL     1     -44.899  56.980 -58.590  1.00  0.00    -0.263 N 
HETATM   26  C   UNL     1     -46.158  57.331 -58.993  1.00  0.00     0.030 A 
HETATM   27  C   UNL     1     -47.127  58.039 -58.119  1.00  0.00     0.070 C 
HETATM   28  C   UNL     1     -46.280  56.916 -60.306  1.00  0.00     0.028 A 
HETATM   29  C   UNL     1     -45.068  56.274 -60.670  1.00  0.00     0.028 A 
HETATM   30  C   UNL     1     -44.227  56.305 -59.572  1.00  0.00     0.030 A 
HETATM   31  C   UNL     1     -42.844  55.786 -59.416  1.00  0.00     0.070 C 
ENDBRANCH  22  25
ENDBRANCH   1  21
TORSDOF 7
ENDMDL
MODEL 6
REMARK VINA RESULT:      -7.2     14.997     17.443
REMARK  7 active torsions:
REMARK  status: ('A' for Active; 'I' for Inactive)
REMARK    1  A    between atoms: N_3  and  N_4 
REMARK       I    between atoms: N_4  and  C_5 
REMARK    2  A    between atoms: C_5  and  C_6 
REMARK    3  A    between atoms: C_9  and  O_10 
REMARK    4  A    between atoms: O_10  and  C_11 
REMARK    5  A    between atoms: C_11  and  C_12 
REMARK       I    between atoms: C_12  and  N_13 
REMARK    6  A    between atoms: N_13  and  C_14 
REMARK    7  A    between atoms: C_15  and  O_16 
ROOT
HETATM    1  C   UNL     1     -37.755  39.562 -58.760  1.00  0.00     0.033 A 
HETATM    2  C   UNL     1     -37.364  40.852 -59.132  1.00  0.00     0.020 A 
HETATM    3  C   UNL     1     -37.077  41.800 -58.145  1.00  0.00     0.038 A 
HETATM    4  C   UNL     1     -37.193  41.475 -56.791  1.00  0.00     0.069 A 
HETATM    5  C   UNL     1     -37.552  40.177 -56.424  1.00  0.00     0.038 A 
HETATM    6  C   UNL     1     -37.827  39.220 -57.407  1.00  0.00     0.020 A 
ENDROOT
BRANCH   4   7
HETATM    7  O   UNL     1     -36.916  42.498 -55.923  1.00  0.00    -0.342 OA
BRANCH   7   8
HETATM    8  C   UNL     1     -35.575  42.582 -55.451  1.00  0.00     0.278 C 
BRANCH   8   9
HETATM    9  C   UNL     1     -35.409  42.164 -53.985  1.00  0.00     0.246 C 
HETATM   10  N   UNL     1     -34.337  41.312 -53.804  1.00  0.00    -0.323 N 
HETATM   11  H   UNL     1     -33.852  40.981 -54.634  1.00  0.00     0.169 HD
HETATM   12  O   UNL     1     -36.186  42.559 -53.121  1.00  0.00    -0.271 OA
BRANCH  10  13
HETATM   13  C   UNL     1     -33.798  40.828 -52.594  1.00  0.00     0.068 A 
HETATM   14  C   UNL     1     -32.452  40.408 -52.612  1.00  0.00     0.095 A 
HETATM   15  C   UNL     1     -31.846  39.966 -51.433  1.00  0.00     0.039 A 
HETATM   16  C   UNL     1     -32.575  39.927 -50.243  1.00  0.00     0.003 A 
HETATM   17  C   UNL     1     -33.908  40.330 -50.227  1.00  0.00     0.002 A 
HETATM   18  C   UNL     1     -34.520  40.779 -51.400  1.00  0.00     0.032 A 
BRANCH  14  19
HETATM   19  O   UNL     1     -31.819  40.485 -53.832  1.00  0.00    -0.354 OA
HETATM   20  C   UNL     1     -31.529  39.244 -54.470  1.00  0.00     0.210 C 
ENDBRANCH  14  19
ENDBRANCH  10  13
ENDBRANCH   8   9
ENDBRANCH   7   8
ENDBRANCH   4   7
BRANCH   1  21
HETATM   21  C   UNL     1     -38.084  38.527 -59.774  1.00  0.00     0.270 C 
HETATM   22  N   UNL     1     -38.703  39.006 -60.903  1.00  0.00    -0.259 N 
HETATM   23  H   UNL     1     -39.072  39.942 -60.976  1.00  0.00     0.191 HD
HETATM   24  O   UNL     1     -37.828  37.352 -59.542  1.00  0.00    -0.266 OA
BRANCH  22  25
HETATM   25  N   UNL     1     -39.129  38.149 -61.847  1.00  0.00    -0.263 N 
HETATM   26  C   UNL     1     -38.430  37.897 -62.995  1.00  0.00     0.030 A 
HETATM   27  C   UNL     1     -37.044  38.375 -63.229  1.00  0.00     0.070 C 
HETATM   28  C   UNL     1     -39.258  37.136 -63.799  1.00  0.00     0.028 A 
HETATM   29  C   UNL     1     -40.489  36.967 -63.114  1.00  0.00     0.028 A 
HETATM   30  C   UNL     1     -40.393  37.631 -61.904  1.00  0.00     0.030 A 
HETATM   31  C   UNL     1     -41.387  37.761 -60.808  1.00  0.00     0.070 C 
ENDBRANCH  22  25
ENDBRANCH   1  21
TORSDOF 7
ENDMDL
MODEL 7
REMARK VINA RESULT:      -7.2      2.048      7.653
REMARK  7 active torsions:
REMARK  status: ('A' for Active; 'I' for Inactive)
REMARK    1  A    between atoms: N_3  and  N_4 
REMARK       I    between atoms: N_4  and  C_5 
REMARK    2  A    between atoms: C_5  and  C_6 
REMARK    3  A    between atoms: C_9  and  O_10 
REMARK    4  A    between atoms: O_10  and  C_11 
REMARK    5  A    between atoms: C_11  and  C_12 
REMARK       I    between atoms: C_12  and  N_13 
REMARK    6  A    between atoms: N_13  and  C_14 
REMARK    7  A    between atoms: C_15  and  O_16 
ROOT
HETATM    1  C   UNL     1     -42.908  56.524 -53.508  1.00  0.00     0.033 A 
HETATM    2  C   UNL     1     -42.029  57.389 -54.167  1.00  0.00     0.020 A 
HETATM    3  C   UNL     1     -42.528  58.526 -54.809  1.00  0.00     0.038 A 
HETATM    4  C   UNL     1     -43.899  58.798 -54.813  1.00  0.00     0.069 A 
HETATM    5  C   UNL     1     -44.769  57.949 -54.127  1.00  0.00     0.038 A 
HETATM    6  C   UNL     1     -44.274  56.817 -53.471  1.00  0.00     0.020 A 
ENDROOT
BRANCH   4   7
HETATM    7  O   UNL     1     -44.265  59.923 -55.503  1.00  0.00    -0.342 OA
BRANCH   7   8
HETATM    8  C   UNL     1     -45.398  59.801 -56.357  1.00  0.00     0.278 C 
BRANCH   8   9
HETATM    9  C   UNL     1     -45.078  59.192 -57.727  1.00  0.00     0.246 C 
HETATM   10  N   UNL     1     -45.338  57.837 -57.769  1.00  0.00    -0.323 N 
HETATM   11  H   UNL     1     -45.606  57.380 -56.902  1.00  0.00     0.169 HD
HETATM   12  O   UNL     1     -44.623  59.881 -58.635  1.00  0.00    -0.271 OA
BRANCH  10  13
HETATM   13  C   UNL     1     -45.293  56.972 -58.882  1.00  0.00     0.068 A 
HETATM   14  C   UNL     1     -44.121  56.205 -59.053  1.00  0.00     0.095 A 
HETATM   15  C   UNL     1     -44.035  55.292 -60.108  1.00  0.00     0.039 A 
HETATM   16  C   UNL     1     -45.101  55.149 -60.998  1.00  0.00     0.003 A 
HETATM   17  C   UNL     1     -46.253  55.914 -60.837  1.00  0.00     0.002 A 
HETATM   18  C   UNL     1     -46.350  56.825 -59.782  1.00  0.00     0.032 A 
BRANCH  14  19
HETATM   19  O   UNL     1     -43.128  56.418 -58.124  1.00  0.00    -0.354 OA
HETATM   20  C   UNL     1     -42.948  55.393 -57.150  1.00  0.00     0.210 C 
ENDBRANCH  14  19
ENDBRANCH  10  13
ENDBRANCH   8   9
ENDBRANCH   7   8
ENDBRANCH   4   7
BRANCH   1  21
HETATM   21  C   UNL     1     -42.425  55.297 -52.825  1.00  0.00     0.270 C 
HETATM   22  N   UNL     1     -41.057  55.179 -52.757  1.00  0.00    -0.259 N 
HETATM   23  H   UNL     1     -40.426  55.770 -53.275  1.00  0.00     0.191 HD
HETATM   24  O   UNL     1     -43.235  54.477 -52.411  1.00  0.00    -0.266 OA
BRANCH  22  25
HETATM   25  N   UNL     1     -40.507  54.066 -52.242  1.00  0.00    -0.263 N 
HETATM   26  C   UNL     1     -40.290  52.933 -52.976  1.00  0.00     0.030 A 
HETATM   27  C   UNL     1     -40.444  52.874 -54.452  1.00  0.00     0.070 C 
HETATM   28  C   UNL     1     -39.907  51.952 -52.080  1.00  0.00     0.028 A 
HETATM   29  C   UNL     1     -39.933  52.521 -50.781  1.00  0.00     0.028 A 
HETATM   30  C   UNL     1     -40.335  53.839 -50.904  1.00  0.00     0.030 A 
HETATM   31  C   UNL     1     -40.517  54.881 -49.862  1.00  0.00     0.070 C 
ENDBRANCH  22  25
ENDBRANCH   1  21
TORSDOF 7
ENDMDL
MODEL 8
REMARK VINA RESULT:      -6.9      1.507      2.565
REMARK  7 active torsions:
REMARK  status: ('A' for Active; 'I' for Inactive)
REMARK    1  A    between atoms: N_3  and  N_4 
REMARK       I    between atoms: N_4  and  C_5 
REMARK    2  A    between atoms: C_5  and  C_6 
REMARK    3  A    between atoms: C_9  and  O_10 
REMARK    4  A    between atoms: O_10  and  C_11 
REMARK    5  A    between atoms: C_11  and  C_12 
REMARK       I    between atoms: C_12  and  N_13 
REMARK    6  A    between atoms: N_13  and  C_14 
REMARK    7  A    between atoms: C_15  and  O_16 
ROOT
HETATM    1  C   UNL     1     -43.259  58.685 -55.584  1.00  0.00     0.033 A 
HETATM    2  C   UNL     1     -44.362  58.081 -54.972  1.00  0.00     0.020 A 
HETATM    3  C   UNL     1     -44.330  57.809 -53.601  1.00  0.00     0.038 A 
HETATM    4  C   UNL     1     -43.200  58.119 -52.840  1.00  0.00     0.069 A 
HETATM    5  C   UNL     1     -42.114  58.752 -53.449  1.00  0.00     0.038 A 
HETATM    6  C   UNL     1     -42.146  59.039 -54.817  1.00  0.00     0.020 A 
ENDROOT
BRANCH   4   7
HETATM    7  O   UNL     1     -43.279  57.774 -51.517  1.00  0.00    -0.342 OA
BRANCH   7   8
HETATM    8  C   UNL     1     -43.406  56.385 -51.232  1.00  0.00     0.278 C 
BRANCH   8   9
HETATM    9  C   UNL     1     -42.110  55.591 -51.432  1.00  0.00     0.246 C 
HETATM   10  N   UNL     1     -42.337  54.360 -52.015  1.00  0.00    -0.323 N 
HETATM   11  H   UNL     1     -43.302  54.073 -52.151  1.00  0.00     0.169 HD
HETATM   12  O   UNL     1     -41.027  56.046 -51.075  1.00  0.00    -0.271 OA
BRANCH  10  13
HETATM   13  C   UNL     1     -41.389  53.419 -52.468  1.00  0.00     0.068 A 
HETATM   14  C   UNL     1     -41.322  53.195 -53.859  1.00  0.00     0.095 A 
HETATM   15  C   UNL     1     -40.370  52.311 -54.376  1.00  0.00     0.039 A 
HETATM   16  C   UNL     1     -39.497  51.642 -53.516  1.00  0.00     0.003 A 
HETATM   17  C   UNL     1     -39.572  51.853 -52.142  1.00  0.00     0.002 A 
HETATM   18  C   UNL     1     -40.516  52.739 -51.617  1.00  0.00     0.032 A 
BRANCH  14  19
HETATM   19  O   UNL     1     -42.223  53.902 -54.623  1.00  0.00    -0.354 OA
HETATM   20  C   UNL     1     -41.687  54.965 -55.405  1.00  0.00     0.210 C 
ENDBRANCH  14  19
ENDBRANCH  10  13
ENDBRANCH   8   9
ENDBRANCH   7   8
ENDBRANCH   4   7
BRANCH   1  21
HETATM   21  C   UNL     1     -43.243  58.980 -57.040  1.00  0.00     0.270 C 
HETATM   22  N   UNL     1     -41.990  59.032 -57.601  1.00  0.00    -0.259 N 
HETATM   23  H   UNL     1     -41.142  59.051 -57.057  1.00  0.00     0.191 HD
HETATM   24  O   UNL     1     -44.299  59.186 -57.626  1.00  0.00    -0.266 OA
BRANCH  22  25
HETATM   25  N   UNL     1     -41.849  59.381 -58.892  1.00  0.00    -0.263 N 
HETATM   26  C   UNL     1     -41.741  60.680 -59.306  1.00  0.00     0.030 A 
HETATM   27  C   UNL     1     -41.558  61.821 -58.374  1.00  0.00     0.070 C 
HETATM   28  C   UNL     1     -41.815  60.659 -60.686  1.00  0.00     0.028 A 
HETATM   29  C   UNL     1     -42.007  59.312 -61.088  1.00  0.00     0.028 A 
HETATM   30  C   UNL     1     -42.050  58.532 -59.946  1.00  0.00     0.030 A 
HETATM   31  C   UNL     1     -42.219  57.064 -59.801  1.00  0.00     0.070 C 
ENDBRANCH  22  25
ENDBRANCH   1  21
TORSDOF 7
ENDMDL
MODEL 9
REMARK VINA RESULT:      -6.8      4.442      6.650
REMARK  7 active torsions:
REMARK  status: ('A' for Active; 'I' for Inactive)
REMARK    1  A    between atoms: N_3  and  N_4 
REMARK       I    between atoms: N_4  and  C_5 
REMARK    2  A    between atoms: C_5  and  C_6 
REMARK    3  A    between atoms: C_9  and  O_10 
REMARK    4  A    between atoms: O_10  and  C_11 
REMARK    5  A    between atoms: C_11  and  C_12 
REMARK       I    between atoms: C_12  and  N_13 
REMARK    6  A    between atoms: N_13  and  C_14 
REMARK    7  A    between atoms: C_15  and  O_16 
ROOT
HETATM    1  C   UNL     1     -44.512  58.971 -51.669  1.00  0.00     0.033 A 
HETATM    2  C   UNL     1     -44.223  59.361 -52.981  1.00  0.00     0.020 A 
HETATM    3  C   UNL     1     -43.254  58.666 -53.712  1.00  0.00     0.038 A 
HETATM    4  C   UNL     1     -42.561  57.596 -53.139  1.00  0.00     0.069 A 
HETATM    5  C   UNL     1     -42.876  57.190 -51.840  1.00  0.00     0.038 A 
HETATM    6  C   UNL     1     -43.854  57.872 -51.109  1.00  0.00     0.020 A 
ENDROOT
BRANCH   4   7
HETATM    7  O   UNL     1     -41.616  57.019 -53.944  1.00  0.00    -0.342 OA
BRANCH   7   8
HETATM    8  C   UNL     1     -42.097  56.145 -54.960  1.00  0.00     0.278 C 
BRANCH   8   9
HETATM    9  C   UNL     1     -41.921  54.658 -54.631  1.00  0.00     0.246 C 
HETATM   10  N   UNL     1     -40.780  54.420 -53.889  1.00  0.00    -0.323 N 
HETATM   11  H   UNL     1     -40.148  55.200 -53.731  1.00  0.00     0.169 HD
HETATM   12  O   UNL     1     -42.726  53.821 -55.028  1.00  0.00    -0.271 OA
BRANCH  10  13
HETATM   13  C   UNL     1     -40.360  53.212 -53.295  1.00  0.00     0.068 A 
HETATM   14  C   UNL     1     -40.342  53.161 -51.885  1.00  0.00     0.095 A 
HETATM   15  C   UNL     1     -39.983  51.976 -51.236  1.00  0.00     0.039 A 
HETATM   16  C   UNL     1     -39.630  50.850 -51.982  1.00  0.00     0.003 A 
HETATM   17  C   UNL     1     -39.634  50.903 -53.373  1.00  0.00     0.002 A 
HETATM   18  C   UNL     1     -39.997  52.082 -54.030  1.00  0.00     0.032 A 
BRANCH  14  19
HETATM   19  O   UNL     1     -40.708  54.322 -51.241  1.00  0.00    -0.354 OA
HETATM   20  C   UNL     1     -40.063  54.581 -49.998  1.00  0.00     0.210 C 
ENDBRANCH  14  19
ENDBRANCH  10  13
ENDBRANCH   8   9
ENDBRANCH   7   8
ENDBRANCH   4   7
BRANCH   1  21
HETATM   21  C   UNL     1     -45.523  59.688 -50.851  1.00  0.00     0.270 C 
HETATM   22  N   UNL     1     -45.216  61.000 -50.581  1.00  0.00    -0.259 N 
HETATM   23  H   UNL     1     -44.310  61.403 -50.760  1.00  0.00     0.191 HD
HETATM   24  O   UNL     1     -46.512  59.087 -50.450  1.00  0.00    -0.266 OA
BRANCH  22  25
HETATM   25  N   UNL     1     -46.013  61.721 -49.773  1.00  0.00    -0.263 N 
HETATM   26  C   UNL     1     -46.982  62.565 -50.241  1.00  0.00     0.030 A 
HETATM   27  C   UNL     1     -47.397  62.622 -51.665  1.00  0.00     0.070 C 
HETATM   28  C   UNL     1     -47.449  63.270 -49.147  1.00  0.00     0.028 A 
HETATM   29  C   UNL     1     -46.708  62.849 -48.013  1.00  0.00     0.028 A 
HETATM   30  C   UNL     1     -45.798  61.895 -48.434  1.00  0.00     0.030 A 
HETATM   31  C   UNL     1     -44.793  61.128 -47.654  1.00  0.00     0.070 C 
ENDBRANCH  22  25
ENDBRANCH   1  21
TORSDOF 7
ENDMDL
MODEL 10
REMARK VINA RESULT:      -6.7     14.982     20.134
REMARK  7 active torsions:
REMARK  status: ('A' for Active; 'I' for Inactive)
REMARK    1  A    between atoms: N_3  and  N_4 
REMARK       I    between atoms: N_4  and  C_5 
REMARK    2  A    between atoms: C_5  and  C_6 
REMARK    3  A    between atoms: C_9  and  O_10 
REMARK    4  A    between atoms: O_10  and  C_11 
REMARK    5  A    between atoms: C_11  and  C_12 
REMARK       I    between atoms: C_12  and  N_13 
REMARK    6  A    between atoms: N_13  and  C_14 
REMARK    7  A    between atoms: C_15  and  O_16 
ROOT
HETATM    1  C   UNL     1     -32.277  38.823 -48.343  1.00  0.00     0.033 A 
HETATM    2  C   UNL     1     -31.870  39.699 -49.355  1.00  0.00     0.020 A 
HETATM    3  C   UNL     1     -32.751  40.012 -50.394  1.00  0.00     0.038 A 
HETATM    4  C   UNL     1     -34.027  39.445 -50.441  1.00  0.00     0.069 A 
HETATM    5  C   UNL     1     -34.440  38.597 -49.412  1.00  0.00     0.038 A 
HETATM    6  C   UNL     1     -33.569  38.290 -48.362  1.00  0.00     0.020 A 
ENDROOT
BRANCH   4   7
HETATM    7  O   UNL     1     -34.782  39.805 -51.525  1.00  0.00    -0.342 OA
BRANCH   7   8
HETATM    8  C   UNL     1     -35.509  41.025 -51.415  1.00  0.00     0.278 C 
BRANCH   8   9
HETATM    9  C   UNL     1     -35.586  41.819 -52.724  1.00  0.00     0.246 C 
HETATM   10  N   UNL     1     -35.776  41.001 -53.820  1.00  0.00    -0.323 N 
HETATM   11  H   UNL     1     -35.744  39.996 -53.670  1.00  0.00     0.169 HD
HETATM   12  O   UNL     1     -35.464  43.040 -52.732  1.00  0.00    -0.271 OA
BRANCH  10  13
HETATM   13  C   UNL     1     -36.024  41.373 -55.158  1.00  0.00     0.068 A 
HETATM   14  C   UNL     1     -34.915  41.422 -56.027  1.00  0.00     0.095 A 
HETATM   15  C   UNL     1     -35.103  41.735 -57.377  1.00  0.00     0.039 A 
HETATM   16  C   UNL     1     -36.383  42.012 -57.859  1.00  0.00     0.003 A 
HETATM   17  C   UNL     1     -37.477  41.977 -56.998  1.00  0.00     0.002 A 
HETATM   18  C   UNL     1     -37.300  41.659 -55.649  1.00  0.00     0.032 A 
BRANCH  14  19
HETATM   19  O   UNL     1     -33.696  41.132 -55.457  1.00  0.00    -0.354 OA
HETATM   20  C   UNL     1     -32.836  40.283 -56.211  1.00  0.00     0.210 C 
ENDBRANCH  14  19
ENDBRANCH  10  13
ENDBRANCH   8   9
ENDBRANCH   7   8
ENDBRANCH   4   7
BRANCH   1  21
HETATM   21  C   UNL     1     -31.370  38.451 -47.227  1.00  0.00     0.270 C 
HETATM   22  N   UNL     1     -30.957  39.505 -46.447  1.00  0.00    -0.259 N 
HETATM   23  H   UNL     1     -31.101  40.469 -46.702  1.00  0.00     0.191 HD
HETATM   24  O   UNL     1     -31.027  37.283 -47.091  1.00  0.00    -0.266 OA
BRANCH  22  25
HETATM   25  N   UNL     1     -30.063  39.300 -45.464  1.00  0.00    -0.263 N 
HETATM   26  C   UNL     1     -30.422  39.081 -44.163  1.00  0.00     0.030 A 
HETATM   27  C   UNL     1     -31.823  38.843 -43.731  1.00  0.00     0.070 C 
HETATM   28  C   UNL     1     -29.255  39.115 -43.423  1.00  0.00     0.028 A 
HETATM   29  C   UNL     1     -28.187  39.395 -44.314  1.00  0.00     0.028 A 
HETATM   30  C   UNL     1     -28.720  39.530 -45.584  1.00  0.00     0.030 A 
HETATM   31  C   UNL     1     -28.044  39.813 -46.876  1.00  0.00     0.070 C 
ENDBRANCH  22  25
ENDBRANCH   1  21
TORSDOF 7
ENDMDL
