MODEL 1
REMARK VINA RESULT:      -7.4      0.000      0.000
REMARK  5 active torsions:
REMARK  status: ('A' for Active; 'I' for Inactive)
REMARK    1  A    between atoms: C_2  and  N_3 
REMARK    2  A    between atoms: N_3  and  C_6 
REMARK    3  A    between atoms: C_6  and  C_7 
REMARK    4  A    between atoms: C_8  and  N_9 
REMARK       I    between atoms: N_9  and  C_10 
REMARK    5  A    between atoms: C_10  and  C_11 
ROOT
HETATM    1  N   UNL     1     -40.285  53.653 -53.784  1.00  0.00    -0.326 N 
HETATM    2  C   UNL     1     -41.454  54.401 -53.693  1.00  0.00     0.231 C 
HETATM    3  O   UNL     1     -42.502  54.016 -53.183  1.00  0.00    -0.272 OA
HETATM    4  H   UNL     1     -39.518  54.129 -54.231  1.00  0.00     0.169 HD
ENDROOT
BRANCH   1   5
HETATM    5  C   UNL     1     -40.093  52.293 -53.437  1.00  0.00     0.042 A 
HETATM    6  C   UNL     1     -39.769  51.957 -52.100  1.00  0.00    -0.006 A 
HETATM    7  C   UNL     1     -39.551  50.605 -51.762  1.00  0.00     0.011 A 
HETATM    8  C   UNL     1     -39.650  49.602 -52.722  1.00  0.00     0.001 A 
HETATM    9  C   UNL     1     -39.980  49.933 -54.029  1.00  0.00     0.002 A 
HETATM   10  C   UNL     1     -40.200  51.266 -54.382  1.00  0.00     0.030 A 
BRANCH   6  11
HETATM   11  C   UNL     1     -39.739  52.967 -50.985  1.00  0.00     0.273 C 
BRANCH  11  12
HETATM   12  N   UNL     1     -41.106  53.192 -50.425  1.00  0.00    -0.072 N 
HETATM   13  H   UNL     1     -41.381  52.347 -49.905  1.00  0.00     0.277 HD
HETATM   14  H   UNL     1     -41.780  53.257 -51.202  1.00  0.00     0.277 HD
BRANCH  12  15
HETATM   15  C   UNL     1     -41.230  54.392 -49.550  1.00  0.00     0.228 C 
HETATM   16  C   UNL     1     -40.455  54.154 -48.271  1.00  0.00     0.034 C 
ENDBRANCH  12  15
ENDBRANCH  11  12
ENDBRANCH   6  11
ENDBRANCH   1   5
BRANCH   2  17
HETATM   17  C   UNL     1     -41.320  55.866 -54.129  1.00  0.00     0.122 C 
HETATM   18  C   UNL     1     -41.856  56.879 -53.140  1.00  0.00    -0.028 A 
HETATM   19  C   UNL     1     -43.126  57.380 -53.450  1.00  0.00     0.007 A 
HETATM   20  C   UNL     1     -41.215  57.275 -51.971  1.00  0.00     0.009 A 
HETATM   21  C   UNL     1     -43.771  58.278 -52.617  1.00  0.00     0.019 A 
HETATM   22  S   UNL     1     -43.771  56.671 -54.936  1.00  0.00    -0.128 SA
HETATM   23  C   UNL     1     -43.126  58.683 -51.447  1.00  0.00     0.001 A 
HETATM   24  C   UNL     1     -41.858  58.182 -51.125  1.00  0.00     0.001 A 
HETATM   25  C   UNL     1     -42.113  56.076 -55.429  1.00  0.00     0.098 C 
ENDBRANCH   2  17
TORSDOF 5
ENDMDL
MODEL 2
REMARK VINA RESULT:      -7.2      2.131      3.679
REMARK  5 active torsions:
REMARK  status: ('A' for Active; 'I' for Inactive)
REMARK    1  A    between atoms: C_2  and  N_3 
REMARK    2  A    between atoms: N_3  and  C_6 
REMARK    3  A    between atoms: C_6  and  C_7 
REMARK    4  A    between atoms: C_8  and  N_9 
REMARK       I    between atoms: N_9  and  C_10 
REMARK    5  A    between atoms: C_10  and  C_11 
ROOT
HETATM    1  N   UNL     1     -42.143  53.982 -54.239  1.00  0.00    -0.326 N 
HETATM    2  C   UNL     1     -41.857  55.180 -54.885  1.00  0.00     0.231 C 
HETATM    3  O   UNL     1     -40.730  55.607 -55.116  1.00  0.00    -0.272 OA
HETATM    4  H   UNL     1     -43.127  53.786 -54.139  1.00  0.00     0.169 HD
ENDROOT
BRANCH   1   5
HETATM    5  C   UNL     1     -41.236  53.089 -53.618  1.00  0.00     0.042 A 
HETATM    6  C   UNL     1     -40.848  53.316 -52.276  1.00  0.00    -0.006 A 
HETATM    7  C   UNL     1     -39.923  52.442 -51.667  1.00  0.00     0.011 A 
HETATM    8  C   UNL     1     -39.390  51.364 -52.368  1.00  0.00     0.001 A 
HETATM    9  C   UNL     1     -39.781  51.136 -53.679  1.00  0.00     0.002 A 
HETATM   10  C   UNL     1     -40.697  51.991 -54.298  1.00  0.00     0.030 A 
BRANCH   6  11
HETATM   11  C   UNL     1     -41.449  54.398 -51.419  1.00  0.00     0.273 C 
BRANCH  11  12
HETATM   12  N   UNL     1     -40.515  54.801 -50.325  1.00  0.00    -0.072 N 
HETATM   13  H   UNL     1     -40.108  55.714 -50.575  1.00  0.00     0.277 HD
HETATM   14  H   UNL     1     -39.715  54.150 -50.310  1.00  0.00     0.277 HD
BRANCH  12  15
HETATM   15  C   UNL     1     -41.133  54.870 -48.972  1.00  0.00     0.228 C 
HETATM   16  C   UNL     1     -40.329  54.013 -48.016  1.00  0.00     0.034 C 
ENDBRANCH  12  15
ENDBRANCH  11  12
ENDBRANCH   6  11
ENDBRANCH   1   5
BRANCH   2  17
HETATM   17  C   UNL     1     -43.074  55.902 -55.479  1.00  0.00     0.122 C 
HETATM   18  C   UNL     1     -42.920  56.335 -56.921  1.00  0.00    -0.028 A 
HETATM   19  C   UNL     1     -42.607  57.690 -57.091  1.00  0.00     0.007 A 
HETATM   20  C   UNL     1     -43.008  55.495 -58.025  1.00  0.00     0.009 A 
HETATM   21  C   UNL     1     -42.388  58.227 -58.348  1.00  0.00     0.019 A 
HETATM   22  S   UNL     1     -42.468  58.535 -55.545  1.00  0.00    -0.128 SA
HETATM   23  C   UNL     1     -42.484  57.387 -59.458  1.00  0.00     0.001 A 
HETATM   24  C   UNL     1     -42.789  56.029 -59.297  1.00  0.00     0.001 A 
HETATM   25  C   UNL     1     -43.339  57.183 -54.672  1.00  0.00     0.098 C 
ENDBRANCH   2  17
TORSDOF 5
ENDMDL
MODEL 3
REMARK VINA RESULT:      -7.2      3.202      6.804
REMARK  5 active torsions:
REMARK  status: ('A' for Active; 'I' for Inactive)
REMARK    1  A    between atoms: C_2  and  N_3 
REMARK    2  A    between atoms: N_3  and  C_6 
REMARK    3  A    between atoms: C_6  and  C_7 
REMARK    4  A    between atoms: C_8  and  N_9 
REMARK       I    between atoms: N_9  and  C_10 
REMARK    5  A    between atoms: C_10  and  C_11 
ROOT
HETATM    1  N   UNL     1     -42.177  56.294 -57.021  1.00  0.00    -0.326 N 
HETATM    2  C   UNL     1     -42.193  55.468 -55.901  1.00  0.00     0.231 C 
HETATM    3  O   UNL     1     -43.035  54.606 -55.671  1.00  0.00    -0.272 OA
HETATM    4  H   UNL     1     -41.407  56.943 -57.049  1.00  0.00     0.169 HD
ENDROOT
BRANCH   1   5
HETATM    5  C   UNL     1     -43.158  56.402 -58.036  1.00  0.00     0.042 A 
HETATM    6  C   UNL     1     -44.276  57.247 -57.833  1.00  0.00    -0.006 A 
HETATM    7  C   UNL     1     -45.266  57.333 -58.834  1.00  0.00     0.011 A 
HETATM    8  C   UNL     1     -45.157  56.602 -60.014  1.00  0.00     0.001 A 
HETATM    9  C   UNL     1     -44.054  55.785 -60.215  1.00  0.00     0.002 A 
HETATM   10  C   UNL     1     -43.063  55.687 -59.235  1.00  0.00     0.030 A 
BRANCH   6  11
HETATM   11  C   UNL     1     -44.421  58.143 -56.633  1.00  0.00     0.273 C 
BRANCH  11  12
HETATM   12  N   UNL     1     -45.403  57.582 -55.657  1.00  0.00    -0.072 N 
HETATM   13  H   UNL     1     -45.721  56.670 -56.014  1.00  0.00     0.277 HD
HETATM   14  H   UNL     1     -46.247  58.174 -55.653  1.00  0.00     0.277 HD
BRANCH  12  15
HETATM   15  C   UNL     1     -44.886  57.434 -54.268  1.00  0.00     0.228 C 
HETATM   16  C   UNL     1     -44.301  58.756 -53.814  1.00  0.00     0.034 C 
ENDBRANCH  12  15
ENDBRANCH  11  12
ENDBRANCH   6  11
ENDBRANCH   1   5
BRANCH   2  17
HETATM   17  C   UNL     1     -40.954  55.572 -55.002  1.00  0.00     0.122 C 
HETATM   18  C   UNL     1     -40.639  54.328 -54.200  1.00  0.00    -0.028 A 
HETATM   19  C   UNL     1     -41.050  54.379 -52.862  1.00  0.00     0.007 A 
HETATM   20  C   UNL     1     -40.049  53.175 -54.706  1.00  0.00     0.009 A 
HETATM   21  C   UNL     1     -40.877  53.300 -52.012  1.00  0.00     0.019 A 
HETATM   22  S   UNL     1     -41.846  55.909 -52.473  1.00  0.00    -0.128 SA
HETATM   23  C   UNL     1     -40.277  52.145 -52.516  1.00  0.00     0.001 A 
HETATM   24  C   UNL     1     -39.869  52.082 -53.855  1.00  0.00     0.001 A 
HETATM   25  C   UNL     1     -41.171  56.699 -53.979  1.00  0.00     0.098 C 
ENDBRANCH   2  17
TORSDOF 5
ENDMDL
MODEL 4
REMARK VINA RESULT:      -7.0      3.802      7.517
REMARK  5 active torsions:
REMARK  status: ('A' for Active; 'I' for Inactive)
REMARK    1  A    between atoms: C_2  and  N_3 
REMARK    2  A    between atoms: N_3  and  C_6 
REMARK    3  A    between atoms: C_6  and  C_7 
REMARK    4  A    between atoms: C_8  and  N_9 
REMARK       I    between atoms: N_9  and  C_10 
REMARK    5  A    between atoms: C_10  and  C_11 
ROOT
HETATM    1  N   UNL     1     -42.471  55.897 -57.260  1.00  0.00    -0.326 N 
HETATM    2  C   UNL     1     -42.424  55.210 -56.052  1.00  0.00     0.231 C 
HETATM    3  O   UNL     1     -43.239  54.369 -55.685  1.00  0.00    -0.272 OA
HETATM    4  H   UNL     1     -41.716  56.550 -57.398  1.00  0.00     0.169 HD
ENDROOT
BRANCH   1   5
HETATM    5  C   UNL     1     -43.495  55.871 -58.237  1.00  0.00     0.042 A 
HETATM    6  C   UNL     1     -44.307  57.015 -58.424  1.00  0.00    -0.006 A 
HETATM    7  C   UNL     1     -45.344  56.978 -59.379  1.00  0.00     0.011 A 
HETATM    8  C   UNL     1     -45.578  55.834 -60.137  1.00  0.00     0.001 A 
HETATM    9  C   UNL     1     -44.774  54.718 -59.962  1.00  0.00     0.002 A 
HETATM   10  C   UNL     1     -43.741  54.737 -59.021  1.00  0.00     0.030 A 
BRANCH   6  11
HETATM   11  C   UNL     1     -44.059  58.321 -57.717  1.00  0.00     0.273 C 
BRANCH  11  12
HETATM   12  N   UNL     1     -43.546  59.357 -58.664  1.00  0.00    -0.072 N 
HETATM   13  H   UNL     1     -43.695  60.282 -58.234  1.00  0.00     0.277 HD
HETATM   14  H   UNL     1     -44.136  59.360 -59.509  1.00  0.00     0.277 HD
BRANCH  12  15
HETATM   15  C   UNL     1     -42.116  59.197 -59.048  1.00  0.00     0.228 C 
HETATM   16  C   UNL     1     -42.035  58.849 -60.520  1.00  0.00     0.034 C 
ENDBRANCH  12  15
ENDBRANCH  11  12
ENDBRANCH   6  11
ENDBRANCH   1   5
BRANCH   2  17
HETATM   17  C   UNL     1     -41.152  55.438 -55.226  1.00  0.00     0.122 C 
HETATM   18  C   UNL     1     -40.752  54.282 -54.334  1.00  0.00    -0.028 A 
HETATM   19  C   UNL     1     -41.104  54.438 -52.987  1.00  0.00     0.007 A 
HETATM   20  C   UNL     1     -40.140  53.111 -54.765  1.00  0.00     0.009 A 
HETATM   21  C   UNL     1     -40.850  53.446 -52.056  1.00  0.00     0.019 A 
HETATM   22  S   UNL     1     -41.943  55.967 -52.696  1.00  0.00    -0.128 SA
HETATM   23  C   UNL     1     -40.229  52.272 -52.485  1.00  0.00     0.001 A 
HETATM   24  C   UNL     1     -39.879  52.105 -53.832  1.00  0.00     0.001 A 
HETATM   25  C   UNL     1     -41.367  56.643 -54.296  1.00  0.00     0.098 C 
ENDBRANCH   2  17
TORSDOF 5
ENDMDL
MODEL 5
REMARK VINA RESULT:      -6.9      1.841      3.632
REMARK  5 active torsions:
REMARK  status: ('A' for Active; 'I' for Inactive)
REMARK    1  A    between atoms: C_2  and  N_3 
REMARK    2  A    between atoms: N_3  and  C_6 
REMARK    3  A    between atoms: C_6  and  C_7 
REMARK    4  A    between atoms: C_8  and  N_9 
REMARK       I    between atoms: N_9  and  C_10 
REMARK    5  A    between atoms: C_10  and  C_11 
ROOT
HETATM    1  N   UNL     1     -41.157  54.403 -51.618  1.00  0.00    -0.326 N 
HETATM    2  C   UNL     1     -42.500  54.715 -51.437  1.00  0.00     0.231 C 
HETATM    3  O   UNL     1     -43.443  54.007 -51.779  1.00  0.00    -0.272 OA
HETATM    4  H   UNL     1     -40.516  55.100 -51.272  1.00  0.00     0.169 HD
ENDROOT
BRANCH   1   5
HETATM    5  C   UNL     1     -40.606  53.304 -52.320  1.00  0.00     0.042 A 
HETATM    6  C   UNL     1     -40.657  53.288 -53.735  1.00  0.00    -0.006 A 
HETATM    7  C   UNL     1     -40.132  52.180 -54.433  1.00  0.00     0.011 A 
HETATM    8  C   UNL     1     -39.566  51.108 -53.750  1.00  0.00     0.001 A 
HETATM    9  C   UNL     1     -39.505  51.131 -52.364  1.00  0.00     0.002 A 
HETATM   10  C   UNL     1     -40.020  52.220 -51.656  1.00  0.00     0.030 A 
BRANCH   6  11
HETATM   11  C   UNL     1     -41.162  54.448 -54.551  1.00  0.00     0.273 C 
BRANCH  11  12
HETATM   12  N   UNL     1     -42.625  54.319 -54.823  1.00  0.00    -0.072 N 
HETATM   13  H   UNL     1     -43.049  53.793 -54.045  1.00  0.00     0.277 HD
HETATM   14  H   UNL     1     -42.761  53.721 -55.652  1.00  0.00     0.277 HD
BRANCH  12  15
HETATM   15  C   UNL     1     -43.340  55.612 -55.013  1.00  0.00     0.228 C 
HETATM   16  C   UNL     1     -42.324  56.733 -55.084  1.00  0.00     0.034 C 
ENDBRANCH  12  15
ENDBRANCH  11  12
ENDBRANCH   6  11
ENDBRANCH   1   5
BRANCH   2  17
HETATM   17  C   UNL     1     -42.766  55.971 -50.597  1.00  0.00     0.122 C 
HETATM   18  C   UNL     1     -43.254  57.173 -51.378  1.00  0.00    -0.028 A 
HETATM   19  C   UNL     1     -42.265  58.125 -51.657  1.00  0.00     0.007 A 
HETATM   20  C   UNL     1     -44.546  57.346 -51.860  1.00  0.00     0.009 A 
HETATM   21  C   UNL     1     -42.545  59.256 -52.405  1.00  0.00     0.019 A 
HETATM   22  S   UNL     1     -40.688  57.649 -51.015  1.00  0.00    -0.128 SA
HETATM   23  C   UNL     1     -43.844  59.435 -52.882  1.00  0.00     0.001 A 
HETATM   24  C   UNL     1     -44.837  58.485 -52.613  1.00  0.00     0.001 A 
HETATM   25  C   UNL     1     -41.457  56.404 -49.916  1.00  0.00     0.098 C 
ENDBRANCH   2  17
TORSDOF 5
ENDMDL
MODEL 6
REMARK VINA RESULT:      -6.7      2.331      6.931
REMARK  5 active torsions:
REMARK  status: ('A' for Active; 'I' for Inactive)
REMARK    1  A    between atoms: C_2  and  N_3 
REMARK    2  A    between atoms: N_3  and  C_6 
REMARK    3  A    between atoms: C_6  and  C_7 
REMARK    4  A    between atoms: C_8  and  N_9 
REMARK       I    between atoms: N_9  and  C_10 
REMARK    5  A    between atoms: C_10  and  C_11 
ROOT
HETATM    1  N   UNL     1     -41.692  55.728 -52.097  1.00  0.00    -0.326 N 
HETATM    2  C   UNL     1     -41.627  54.339 -52.062  1.00  0.00     0.231 C 
HETATM    3  O   UNL     1     -42.581  53.583 -52.215  1.00  0.00    -0.272 OA
HETATM    4  H   UNL     1     -40.808  56.191 -51.956  1.00  0.00     0.169 HD
ENDROOT
BRANCH   1   5
HETATM    5  C   UNL     1     -42.846  56.543 -52.186  1.00  0.00     0.042 A 
HETATM    6  C   UNL     1     -43.122  57.227 -53.395  1.00  0.00    -0.006 A 
HETATM    7  C   UNL     1     -44.257  58.060 -53.473  1.00  0.00     0.011 A 
HETATM    8  C   UNL     1     -45.107  58.217 -52.382  1.00  0.00     0.001 A 
HETATM    9  C   UNL     1     -44.841  57.537 -51.202  1.00  0.00     0.002 A 
HETATM   10  C   UNL     1     -43.722  56.707 -51.106  1.00  0.00     0.030 A 
BRANCH   6  11
HETATM   11  C   UNL     1     -42.312  57.036 -54.649  1.00  0.00     0.273 C 
BRANCH  11  12
HETATM   12  N   UNL     1     -43.183  56.645 -55.799  1.00  0.00    -0.072 N 
HETATM   13  H   UNL     1     -43.199  57.429 -56.466  1.00  0.00     0.277 HD
HETATM   14  H   UNL     1     -44.155  56.558 -55.468  1.00  0.00     0.277 HD
BRANCH  12  15
HETATM   15  C   UNL     1     -42.773  55.392 -56.492  1.00  0.00     0.228 C 
HETATM   16  C   UNL     1     -43.007  54.215 -55.567  1.00  0.00     0.034 C 
ENDBRANCH  12  15
ENDBRANCH  11  12
ENDBRANCH   6  11
ENDBRANCH   1   5
BRANCH   2  17
HETATM   17  C   UNL     1     -40.208  53.759 -51.989  1.00  0.00     0.122 C 
HETATM   18  C   UNL     1     -40.036  52.405 -52.644  1.00  0.00    -0.028 A 
HETATM   19  C   UNL     1     -40.031  51.325 -51.753  1.00  0.00     0.007 A 
HETATM   20  C   UNL     1     -39.946  52.182 -54.013  1.00  0.00     0.009 A 
HETATM   21  C   UNL     1     -39.931  50.019 -52.203  1.00  0.00     0.019 A 
HETATM   22  S   UNL     1     -40.240  51.848 -50.077  1.00  0.00    -0.128 SA
HETATM   23  C   UNL     1     -39.833  49.794 -53.577  1.00  0.00     0.001 A 
HETATM   24  C   UNL     1     -39.843  50.868 -54.476  1.00  0.00     0.001 A 
HETATM   25  C   UNL     1     -39.818  53.575 -50.513  1.00  0.00     0.098 C 
ENDBRANCH   2  17
TORSDOF 5
ENDMDL
MODEL 7
REMARK VINA RESULT:      -6.7     14.506     15.774
REMARK  5 active torsions:
REMARK  status: ('A' for Active; 'I' for Inactive)
REMARK    1  A    between atoms: C_2  and  N_3 
REMARK    2  A    between atoms: N_3  and  C_6 
REMARK    3  A    between atoms: C_6  and  C_7 
REMARK    4  A    between atoms: C_8  and  N_9 
REMARK       I    between atoms: N_9  and  C_10 
REMARK    5  A    between atoms: C_10  and  C_11 
ROOT
HETATM    1  N   UNL     1     -37.365  41.328 -54.457  1.00  0.00    -0.326 N 
HETATM    2  C   UNL     1     -37.164  40.244 -53.608  1.00  0.00     0.231 C 
HETATM    3  O   UNL     1     -36.817  39.122 -53.964  1.00  0.00    -0.272 OA
HETATM    4  H   UNL     1     -37.645  42.176 -53.992  1.00  0.00     0.169 HD
ENDROOT
BRANCH   1   5
HETATM    5  C   UNL     1     -37.337  41.341 -55.873  1.00  0.00     0.042 A 
HETATM    6  C   UNL     1     -36.255  41.964 -56.541  1.00  0.00    -0.006 A 
HETATM    7  C   UNL     1     -36.242  42.000 -57.950  1.00  0.00     0.011 A 
HETATM    8  C   UNL     1     -37.276  41.433 -58.690  1.00  0.00     0.001 A 
HETATM    9  C   UNL     1     -38.329  40.812 -58.034  1.00  0.00     0.002 A 
HETATM   10  C   UNL     1     -38.358  40.766 -56.638  1.00  0.00     0.030 A 
BRANCH   6  11
HETATM   11  C   UNL     1     -35.053  42.513 -55.820  1.00  0.00     0.273 C 
BRANCH  11  12
HETATM   12  N   UNL     1     -33.900  41.565 -55.896  1.00  0.00    -0.072 N 
HETATM   13  H   UNL     1     -33.035  42.121 -55.965  1.00  0.00     0.277 HD
HETATM   14  H   UNL     1     -33.951  41.045 -56.784  1.00  0.00     0.277 HD
BRANCH  12  15
HETATM   15  C   UNL     1     -33.802  40.610 -54.757  1.00  0.00     0.228 C 
HETATM   16  C   UNL     1     -32.350  40.231 -54.552  1.00  0.00     0.034 C 
ENDBRANCH  12  15
ENDBRANCH  11  12
ENDBRANCH   6  11
ENDBRANCH   1   5
BRANCH   2  17
HETATM   17  C   UNL     1     -37.236  40.572 -52.112  1.00  0.00     0.122 C 
HETATM   18  C   UNL     1     -35.904  40.572 -51.392  1.00  0.00    -0.028 A 
HETATM   19  C   UNL     1     -35.640  39.409 -50.657  1.00  0.00     0.007 A 
HETATM   20  C   UNL     1     -34.953  41.583 -51.464  1.00  0.00     0.009 A 
HETATM   21  C   UNL     1     -34.443  39.238 -49.984  1.00  0.00     0.019 A 
HETATM   22  S   UNL     1     -36.957  38.236 -50.782  1.00  0.00    -0.128 SA
HETATM   23  C   UNL     1     -33.490  40.256 -50.049  1.00  0.00     0.001 A 
HETATM   24  C   UNL     1     -33.742  41.419 -50.786  1.00  0.00     0.001 A 
HETATM   25  C   UNL     1     -38.104  39.517 -51.408  1.00  0.00     0.098 C 
ENDBRANCH   2  17
TORSDOF 5
ENDMDL
MODEL 8
REMARK VINA RESULT:      -6.6      3.555      5.092
REMARK  5 active torsions:
REMARK  status: ('A' for Active; 'I' for Inactive)
REMARK    1  A    between atoms: C_2  and  N_3 
REMARK    2  A    between atoms: N_3  and  C_6 
REMARK    3  A    between atoms: C_6  and  C_7 
REMARK    4  A    between atoms: C_8  and  N_9 
REMARK       I    between atoms: N_9  and  C_10 
REMARK    5  A    between atoms: C_10  and  C_11 
ROOT
HETATM    1  N   UNL     1     -41.879  55.741 -56.151  1.00  0.00    -0.326 N 
HETATM    2  C   UNL     1     -42.801  55.537 -57.172  1.00  0.00     0.231 C 
HETATM    3  O   UNL     1     -43.528  54.553 -57.283  1.00  0.00    -0.272 OA
HETATM    4  H   UNL     1     -41.370  56.608 -56.215  1.00  0.00     0.169 HD
ENDROOT
BRANCH   1   5
HETATM    5  C   UNL     1     -41.501  54.839 -55.127  1.00  0.00     0.042 A 
HETATM    6  C   UNL     1     -42.145  54.907 -53.868  1.00  0.00    -0.006 A 
HETATM    7  C   UNL     1     -41.749  54.026 -52.840  1.00  0.00     0.011 A 
HETATM    8  C   UNL     1     -40.736  53.094 -53.048  1.00  0.00     0.001 A 
HETATM    9  C   UNL     1     -40.115  53.020 -54.286  1.00  0.00     0.002 A 
HETATM   10  C   UNL     1     -40.495  53.884 -55.316  1.00  0.00     0.030 A 
BRANCH   6  11
HETATM   11  C   UNL     1     -43.312  55.817 -53.592  1.00  0.00     0.273 C 
BRANCH  11  12
HETATM   12  N   UNL     1     -43.841  55.611 -52.210  1.00  0.00    -0.072 N 
HETATM   13  H   UNL     1     -43.411  54.757 -51.828  1.00  0.00     0.277 HD
HETATM   14  H   UNL     1     -44.848  55.399 -52.264  1.00  0.00     0.277 HD
BRANCH  12  15
HETATM   15  C   UNL     1     -43.617  56.754 -51.281  1.00  0.00     0.228 C 
HETATM   16  C   UNL     1     -44.874  57.597 -51.222  1.00  0.00     0.034 C 
ENDBRANCH  12  15
ENDBRANCH  11  12
ENDBRANCH   6  11
ENDBRANCH   1   5
BRANCH   2  17
HETATM   17  C   UNL     1     -43.002  56.733 -58.111  1.00  0.00     0.122 C 
HETATM   18  C   UNL     1     -44.397  57.321 -58.110  1.00  0.00    -0.028 A 
HETATM   19  C   UNL     1     -45.197  56.923 -59.188  1.00  0.00     0.007 A 
HETATM   20  C   UNL     1     -44.921  58.142 -57.117  1.00  0.00     0.009 A 
HETATM   21  C   UNL     1     -46.513  57.337 -59.302  1.00  0.00     0.019 A 
HETATM   22  S   UNL     1     -44.343  55.817 -60.272  1.00  0.00    -0.128 SA
HETATM   23  C   UNL     1     -47.038  58.168 -58.311  1.00  0.00     0.001 A 
HETATM   24  C   UNL     1     -46.247  58.565 -57.224  1.00  0.00     0.001 A 
HETATM   25  C   UNL     1     -42.726  56.287 -59.556  1.00  0.00     0.098 C 
ENDBRANCH   2  17
TORSDOF 5
ENDMDL
MODEL 9
REMARK VINA RESULT:      -6.4      2.437      6.947
REMARK  5 active torsions:
REMARK  status: ('A' for Active; 'I' for Inactive)
REMARK    1  A    between atoms: C_2  and  N_3 
REMARK    2  A    between atoms: N_3  and  C_6 
REMARK    3  A    between atoms: C_6  and  C_7 
REMARK    4  A    between atoms: C_8  and  N_9 
REMARK       I    between atoms: N_9  and  C_10 
REMARK    5  A    between atoms: C_10  and  C_11 
ROOT
HETATM    1  N   UNL     1     -42.695  56.761 -51.500  1.00  0.00    -0.326 N 
HETATM    2  C   UNL     1     -42.086  56.006 -52.497  1.00  0.00     0.231 C 
HETATM    3  O   UNL     1     -41.117  56.362 -53.161  1.00  0.00    -0.272 OA
HETATM    4  H   UNL     1     -43.478  56.310 -51.055  1.00  0.00     0.169 HD
ENDROOT
BRANCH   1   5
HETATM    5  C   UNL     1     -42.421  58.102 -51.134  1.00  0.00     0.042 A 
HETATM    6  C   UNL     1     -43.397  59.100 -51.370  1.00  0.00    -0.006 A 
HETATM    7  C   UNL     1     -43.112  60.438 -51.029  1.00  0.00     0.011 A 
HETATM    8  C   UNL     1     -41.888  60.789 -50.466  1.00  0.00     0.001 A 
HETATM    9  C   UNL     1     -40.938  59.807 -50.224  1.00  0.00     0.002 A 
HETATM   10  C   UNL     1     -41.203  58.476 -50.555  1.00  0.00     0.030 A 
BRANCH   6  11
HETATM   11  C   UNL     1     -44.778  58.791 -51.883  1.00  0.00     0.273 C 
BRANCH  11  12
HETATM   12  N   UNL     1     -44.888  59.084 -53.344  1.00  0.00    -0.072 N 
HETATM   13  H   UNL     1     -44.119  59.720 -53.600  1.00  0.00     0.277 HD
HETATM   14  H   UNL     1     -45.748  59.626 -53.514  1.00  0.00     0.277 HD
BRANCH  12  15
HETATM   15  C   UNL     1     -44.869  57.881 -54.223  1.00  0.00     0.228 C 
HETATM   16  C   UNL     1     -45.267  58.288 -55.627  1.00  0.00     0.034 C 
ENDBRANCH  12  15
ENDBRANCH  11  12
ENDBRANCH   6  11
ENDBRANCH   1   5
BRANCH   2  17
HETATM   17  C   UNL     1     -42.600  54.566 -52.623  1.00  0.00     0.122 C 
HETATM   18  C   UNL     1     -41.523  53.514 -52.780  1.00  0.00    -0.028 A 
HETATM   19  C   UNL     1     -41.326  53.074 -54.095  1.00  0.00     0.007 A 
HETATM   20  C   UNL     1     -40.719  53.029 -51.754  1.00  0.00     0.009 A 
HETATM   21  C   UNL     1     -40.344  52.149 -54.407  1.00  0.00     0.019 A 
HETATM   22  S   UNL     1     -42.406  53.890 -55.233  1.00  0.00    -0.128 SA
HETATM   23  C   UNL     1     -39.542  51.656 -53.377  1.00  0.00     0.001 A 
HETATM   24  C   UNL     1     -39.727  52.095 -52.060  1.00  0.00     0.001 A 
HETATM   25  C   UNL     1     -43.489  54.459 -53.873  1.00  0.00     0.098 C 
ENDBRANCH   2  17
TORSDOF 5
ENDMDL
MODEL 10
REMARK VINA RESULT:      -6.4     14.160     16.422
REMARK  5 active torsions:
REMARK  status: ('A' for Active; 'I' for Inactive)
REMARK    1  A    between atoms: C_2  and  N_3 
REMARK    2  A    between atoms: N_3  and  C_6 
REMARK    3  A    between atoms: C_6  and  C_7 
REMARK    4  A    between atoms: C_8  and  N_9 
REMARK       I    between atoms: N_9  and  C_10 
REMARK    5  A    between atoms: C_10  and  C_11 
ROOT
HETATM    1  N   UNL     1     -34.875  39.523 -56.290  1.00  0.00    -0.326 N 
HETATM    2  C   UNL     1     -35.342  38.945 -55.115  1.00  0.00     0.231 C 
HETATM    3  O   UNL     1     -36.523  38.757 -54.840  1.00  0.00    -0.272 OA
HETATM    4  H   UNL     1     -33.871  39.596 -56.350  1.00  0.00     0.169 HD
ENDROOT
BRANCH   1   5
HETATM    5  C   UNL     1     -35.632  40.114 -57.330  1.00  0.00     0.042 A 
HETATM    6  C   UNL     1     -35.979  41.484 -57.245  1.00  0.00    -0.006 A 
HETATM    7  C   UNL     1     -36.757  42.064 -58.268  1.00  0.00     0.011 A 
HETATM    8  C   UNL     1     -37.186  41.310 -59.357  1.00  0.00     0.001 A 
HETATM    9  C   UNL     1     -36.834  39.971 -59.445  1.00  0.00     0.002 A 
HETATM   10  C   UNL     1     -36.064  39.379 -58.441  1.00  0.00     0.030 A 
BRANCH   6  11
HETATM   11  C   UNL     1     -35.476  42.392 -56.155  1.00  0.00     0.273 C 
BRANCH  11  12
HETATM   12  N   UNL     1     -36.466  42.495 -55.040  1.00  0.00    -0.072 N 
HETATM   13  H   UNL     1     -37.227  41.828 -55.228  1.00  0.00     0.277 HD
HETATM   14  H   UNL     1     -36.913  43.424 -55.074  1.00  0.00     0.277 HD
BRANCH  12  15
HETATM   15  C   UNL     1     -35.901  42.257 -53.682  1.00  0.00     0.228 C 
HETATM   16  C   UNL     1     -36.985  41.691 -52.788  1.00  0.00     0.034 C 
ENDBRANCH  12  15
ENDBRANCH  11  12
ENDBRANCH   6  11
ENDBRANCH   1   5
BRANCH   2  17
HETATM   17  C   UNL     1     -34.254  38.367 -54.201  1.00  0.00     0.122 C 
HETATM   18  C   UNL     1     -34.099  39.067 -52.867  1.00  0.00    -0.028 A 
HETATM   19  C   UNL     1     -33.030  39.970 -52.805  1.00  0.00     0.007 A 
HETATM   20  C   UNL     1     -34.951  38.917 -51.779  1.00  0.00     0.009 A 
HETATM   21  C   UNL     1     -32.788  40.724 -51.669  1.00  0.00     0.019 A 
HETATM   22  S   UNL     1     -32.143  40.051 -54.332  1.00  0.00    -0.128 SA
HETATM   23  C   UNL     1     -33.637  40.568 -50.573  1.00  0.00     0.001 A 
HETATM   24  C   UNL     1     -34.713  39.672 -50.628  1.00  0.00     0.001 A 
HETATM   25  C   UNL     1     -32.893  38.483 -54.906  1.00  0.00     0.098 C 
ENDBRANCH   2  17
TORSDOF 5
ENDMDL
