MODEL 1
REMARK VINA RESULT:      -8.3      0.000      0.000
REMARK  5 active torsions:
REMARK  status: ('A' for Active; 'I' for Inactive)
REMARK    1  A    between atoms: C_9  and  C_10 
REMARK       I    between atoms: C_10  and  N_11 
REMARK    2  A    between atoms: N_11  and  C_12 
REMARK    3  A    between atoms: C_12  and  C_13 
REMARK    4  A    between atoms: C_16  and  N_17 
REMARK       I    between atoms: N_17  and  C_18 
REMARK    5  A    between atoms: C_18  and  O_19 
ROOT
HETATM    1  C   UNL     1     -40.917  55.358 -53.811  1.00  0.00     0.273 C 
HETATM    2  N   UNL     1     -42.171  55.928 -53.801  1.00  0.00    -0.351 N 
HETATM    3  O   UNL     1     -40.063  55.639 -54.648  1.00  0.00    -0.266 OA
HETATM    4  H   UNL     1     -42.756  55.702 -53.001  1.00  0.00     0.163 HD
ENDROOT
BRANCH   2   5
HETATM    5  C   UNL     1     -42.506  57.009 -54.685  1.00  0.00     0.161 C 
BRANCH   5   6
HETATM    6  C   UNL     1     -42.813  56.516 -56.071  1.00  0.00    -0.040 A 
HETATM    7  C   UNL     1     -43.131  55.173 -56.299  1.00  0.00     0.011 A 
HETATM    8  C   UNL     1     -43.432  54.713 -57.589  1.00  0.00     0.030 A 
HETATM    9  C   UNL     1     -43.415  55.587 -58.677  1.00  0.00     0.036 A 
HETATM   10  C   UNL     1     -43.069  56.926 -58.450  1.00  0.00     0.030 A 
HETATM   11  C   UNL     1     -42.768  57.387 -57.164  1.00  0.00     0.011 A 
BRANCH   9  12
HETATM   12  N   UNL     1     -43.719  55.234 -60.003  1.00  0.00    -0.303 N 
HETATM   13  C   UNL     1     -44.902  55.115 -60.683  1.00  0.00     0.364 C 
HETATM   14  O   UNL     1     -44.902  54.792 -61.867  1.00  0.00    -0.238 OA
HETATM   15  H   UNL     1     -42.936  55.040 -60.614  1.00  0.00     0.171 HD
BRANCH  13  16
HETATM   16  O   UNL     1     -46.024  55.381 -59.969  1.00  0.00    -0.309 OA
HETATM   17  C   UNL     1     -46.862  56.384 -60.544  1.00  0.00     0.215 C 
ENDBRANCH  13  16
ENDBRANCH   9  12
ENDBRANCH   5   6
ENDBRANCH   2   5
BRANCH   1  18
HETATM   18  C   UNL     1     -40.698  54.401 -52.716  1.00  0.00     0.157 A 
HETATM   19  C   UNL     1     -40.354  53.021 -52.834  1.00  0.00     0.029 A 
HETATM   20  C   UNL     1     -40.121  52.119 -53.891  1.00  0.00     0.023 A 
HETATM   21  C   UNL     1     -40.249  52.562 -51.526  1.00  0.00     0.063 A 
HETATM   22  C   UNL     1     -39.790  50.784 -53.603  1.00  0.00    -0.061 A 
HETATM   23  C   UNL     1     -39.533  49.808 -54.715  1.00  0.00     0.048 C 
HETATM   24  C   UNL     1     -39.694  50.363 -52.270  1.00  0.00     0.009 A 
HETATM   25  C   UNL     1     -39.922  51.242 -51.204  1.00  0.00     0.032 A 
HETATM   26  N   UNL     1     -40.526  53.646 -50.741  1.00  0.00    -0.277 N 
HETATM   27  H   UNL     1     -40.544  53.679 -49.728  1.00  0.00     0.189 HD
HETATM   28  N   UNL     1     -40.795  54.775 -51.421  1.00  0.00    -0.168 NA
ENDBRANCH   1  18
TORSDOF 5
ENDMDL
MODEL 2
REMARK VINA RESULT:      -8.3      1.849      2.535
REMARK  5 active torsions:
REMARK  status: ('A' for Active; 'I' for Inactive)
REMARK    1  A    between atoms: C_9  and  C_10 
REMARK       I    between atoms: C_10  and  N_11 
REMARK    2  A    between atoms: N_11  and  C_12 
REMARK    3  A    between atoms: C_12  and  C_13 
REMARK    4  A    between atoms: C_16  and  N_17 
REMARK       I    between atoms: N_17  and  C_18 
REMARK    5  A    between atoms: C_18  and  O_19 
ROOT
HETATM    1  C   UNL     1     -41.327  58.437 -53.547  1.00  0.00     0.273 C 
HETATM    2  N   UNL     1     -42.087  58.012 -54.614  1.00  0.00    -0.351 N 
HETATM    3  O   UNL     1     -40.665  59.472 -53.569  1.00  0.00    -0.266 OA
HETATM    4  H   UNL     1     -42.677  57.201 -54.444  1.00  0.00     0.163 HD
ENDROOT
BRANCH   2   5
HETATM    5  C   UNL     1     -42.276  58.840 -55.771  1.00  0.00     0.161 C 
BRANCH   5   6
HETATM    6  C   UNL     1     -42.638  58.026 -56.982  1.00  0.00    -0.040 A 
HETATM    7  C   UNL     1     -42.781  56.636 -56.893  1.00  0.00     0.011 A 
HETATM    8  C   UNL     1     -43.132  55.876 -58.017  1.00  0.00     0.030 A 
HETATM    9  C   UNL     1     -43.340  56.489 -59.253  1.00  0.00     0.036 A 
HETATM   10  C   UNL     1     -43.169  57.877 -59.345  1.00  0.00     0.030 A 
HETATM   11  C   UNL     1     -42.819  58.638 -58.225  1.00  0.00     0.011 A 
BRANCH   9  12
HETATM   12  N   UNL     1     -43.713  55.824 -60.434  1.00  0.00    -0.303 N 
HETATM   13  C   UNL     1     -44.905  55.315 -60.875  1.00  0.00     0.364 C 
HETATM   14  O   UNL     1     -44.975  54.773 -61.974  1.00  0.00    -0.238 OA
HETATM   15  H   UNL     1     -42.990  55.691 -61.130  1.00  0.00     0.171 HD
BRANCH  13  16
HETATM   16  O   UNL     1     -45.958  55.462 -60.033  1.00  0.00    -0.309 OA
HETATM   17  C   UNL     1     -46.914  56.436 -60.454  1.00  0.00     0.215 C 
ENDBRANCH  13  16
ENDBRANCH   9  12
ENDBRANCH   5   6
ENDBRANCH   2   5
BRANCH   1  18
HETATM   18  C   UNL     1     -41.401  57.545 -52.379  1.00  0.00     0.157 A 
HETATM   19  C   UNL     1     -41.238  56.127 -52.367  1.00  0.00     0.029 A 
HETATM   20  C   UNL     1     -40.983  55.125 -53.325  1.00  0.00     0.023 A 
HETATM   21  C   UNL     1     -41.386  55.758 -51.036  1.00  0.00     0.063 A 
HETATM   22  C   UNL     1     -40.885  53.784 -52.917  1.00  0.00    -0.061 A 
HETATM   23  C   UNL     1     -40.610  52.703 -53.921  1.00  0.00     0.048 C 
HETATM   24  C   UNL     1     -41.039  53.456 -51.564  1.00  0.00     0.009 A 
HETATM   25  C   UNL     1     -41.294  54.435 -50.595  1.00  0.00     0.032 A 
HETATM   26  N   UNL     1     -41.618  56.925 -50.363  1.00  0.00    -0.277 N 
HETATM   27  H   UNL     1     -41.776  57.037 -49.367  1.00  0.00     0.189 HD
HETATM   28  N   UNL     1     -41.628  58.025 -51.137  1.00  0.00    -0.168 NA
ENDBRANCH   1  18
TORSDOF 5
ENDMDL
MODEL 3
REMARK VINA RESULT:      -8.2      1.854      2.313
REMARK  5 active torsions:
REMARK  status: ('A' for Active; 'I' for Inactive)
REMARK    1  A    between atoms: C_9  and  C_10 
REMARK       I    between atoms: C_10  and  N_11 
REMARK    2  A    between atoms: N_11  and  C_12 
REMARK    3  A    between atoms: C_12  and  C_13 
REMARK    4  A    between atoms: C_16  and  N_17 
REMARK       I    between atoms: N_17  and  C_18 
REMARK    5  A    between atoms: C_18  and  O_19 
ROOT
HETATM    1  C   UNL     1     -42.060  56.558 -51.635  1.00  0.00     0.273 C 
HETATM    2  N   UNL     1     -41.286  57.003 -52.683  1.00  0.00    -0.351 N 
HETATM    3  O   UNL     1     -43.135  57.071 -51.332  1.00  0.00    -0.266 OA
HETATM    4  H   UNL     1     -40.473  56.436 -52.908  1.00  0.00     0.163 HD
ENDROOT
BRANCH   2   5
HETATM    5  C   UNL     1     -41.768  58.006 -53.591  1.00  0.00     0.161 C 
BRANCH   5   6
HETATM    6  C   UNL     1     -42.274  57.399 -54.869  1.00  0.00    -0.040 A 
HETATM    7  C   UNL     1     -41.944  56.084 -55.217  1.00  0.00     0.011 A 
HETATM    8  C   UNL     1     -42.427  55.511 -56.402  1.00  0.00     0.030 A 
HETATM    9  C   UNL     1     -43.243  56.243 -57.265  1.00  0.00     0.036 A 
HETATM   10  C   UNL     1     -43.549  57.568 -56.928  1.00  0.00     0.030 A 
HETATM   11  C   UNL     1     -43.069  58.143 -55.747  1.00  0.00     0.011 A 
BRANCH   9  12
HETATM   12  N   UNL     1     -43.794  55.758 -58.464  1.00  0.00    -0.303 N 
HETATM   13  C   UNL     1     -43.334  55.737 -59.754  1.00  0.00     0.364 C 
HETATM   14  O   UNL     1     -44.018  55.238 -60.643  1.00  0.00    -0.238 OA
HETATM   15  H   UNL     1     -44.700  55.313 -58.402  1.00  0.00     0.171 HD
BRANCH  13  16
HETATM   16  O   UNL     1     -42.109  56.282 -59.955  1.00  0.00    -0.309 OA
HETATM   17  C   UNL     1     -42.134  57.658 -60.338  1.00  0.00     0.215 C 
ENDBRANCH  13  16
ENDBRANCH   9  12
ENDBRANCH   5   6
ENDBRANCH   2   5
BRANCH   1  18
HETATM   18  C   UNL     1     -41.485  55.401 -50.930  1.00  0.00     0.157 A 
HETATM   19  C   UNL     1     -40.986  54.198 -51.513  1.00  0.00     0.029 A 
HETATM   20  C   UNL     1     -40.857  53.678 -52.816  1.00  0.00     0.023 A 
HETATM   21  C   UNL     1     -40.547  53.432 -50.440  1.00  0.00     0.063 A 
HETATM   22  C   UNL     1     -40.291  52.405 -53.002  1.00  0.00    -0.061 A 
HETATM   23  C   UNL     1     -40.140  51.835 -54.383  1.00  0.00     0.048 C 
HETATM   24  C   UNL     1     -39.860  51.667 -51.893  1.00  0.00     0.009 A 
HETATM   25  C   UNL     1     -39.980  52.164 -50.589  1.00  0.00     0.032 A 
HETATM   26  N   UNL     1     -40.800  54.189 -49.330  1.00  0.00    -0.277 N 
HETATM   27  H   UNL     1     -40.609  53.943 -48.365  1.00  0.00     0.189 HD
HETATM   28  N   UNL     1     -41.359  55.385 -49.584  1.00  0.00    -0.168 NA
ENDBRANCH   1  18
TORSDOF 5
ENDMDL
MODEL 4
REMARK VINA RESULT:      -7.8      3.240      7.975
REMARK  5 active torsions:
REMARK  status: ('A' for Active; 'I' for Inactive)
REMARK    1  A    between atoms: C_9  and  C_10 
REMARK       I    between atoms: C_10  and  N_11 
REMARK    2  A    between atoms: N_11  and  C_12 
REMARK    3  A    between atoms: C_12  and  C_13 
REMARK    4  A    between atoms: C_16  and  N_17 
REMARK       I    between atoms: N_17  and  C_18 
REMARK    5  A    between atoms: C_18  and  O_19 
ROOT
HETATM    1  C   UNL     1     -42.579  58.510 -55.001  1.00  0.00     0.273 C 
HETATM    2  N   UNL     1     -42.506  57.475 -54.095  1.00  0.00    -0.351 N 
HETATM    3  O   UNL     1     -41.625  59.238 -55.262  1.00  0.00    -0.266 OA
HETATM    4  H   UNL     1     -43.324  56.873 -54.041  1.00  0.00     0.163 HD
ENDROOT
BRANCH   2   5
HETATM    5  C   UNL     1     -41.255  57.084 -53.509  1.00  0.00     0.161 C 
BRANCH   5   6
HETATM    6  C   UNL     1     -41.009  55.609 -53.661  1.00  0.00    -0.040 A 
HETATM    7  C   UNL     1     -41.422  54.709 -52.672  1.00  0.00     0.011 A 
HETATM    8  C   UNL     1     -41.207  53.332 -52.818  1.00  0.00     0.030 A 
HETATM    9  C   UNL     1     -40.569  52.828 -53.951  1.00  0.00     0.036 A 
HETATM   10  C   UNL     1     -40.132  53.734 -54.928  1.00  0.00     0.030 A 
HETATM   11  C   UNL     1     -40.345  55.109 -54.784  1.00  0.00     0.011 A 
BRANCH   9  12
HETATM   12  N   UNL     1     -40.322  51.467 -54.204  1.00  0.00    -0.303 N 
HETATM   13  C   UNL     1     -39.651  50.501 -53.503  1.00  0.00     0.364 C 
HETATM   14  O   UNL     1     -39.582  49.357 -53.944  1.00  0.00    -0.238 OA
HETATM   15  H   UNL     1     -40.716  51.083 -55.053  1.00  0.00     0.171 HD
BRANCH  13  16
HETATM   16  O   UNL     1     -39.103  50.895 -52.328  1.00  0.00    -0.309 OA
HETATM   17  C   UNL     1     -39.642  50.240 -51.179  1.00  0.00     0.215 C 
ENDBRANCH  13  16
ENDBRANCH   9  12
ENDBRANCH   5   6
ENDBRANCH   2   5
BRANCH   1  18
HETATM   18  C   UNL     1     -43.900  58.643 -55.636  1.00  0.00     0.157 A 
HETATM   19  C   UNL     1     -44.320  58.078 -56.877  1.00  0.00     0.029 A 
HETATM   20  C   UNL     1     -43.736  57.277 -57.878  1.00  0.00     0.023 A 
HETATM   21  C   UNL     1     -45.642  58.480 -57.028  1.00  0.00     0.063 A 
HETATM   22  C   UNL     1     -44.495  56.905 -59.000  1.00  0.00    -0.061 A 
HETATM   23  C   UNL     1     -43.893  56.048 -60.076  1.00  0.00     0.048 C 
HETATM   24  C   UNL     1     -45.825  57.332 -59.113  1.00  0.00     0.009 A 
HETATM   25  C   UNL     1     -46.425  58.129 -58.130  1.00  0.00     0.032 A 
HETATM   26  N   UNL     1     -45.919  59.230 -55.919  1.00  0.00    -0.277 N 
HETATM   27  H   UNL     1     -46.794  59.689 -55.694  1.00  0.00     0.189 HD
HETATM   28  N   UNL     1     -44.897  59.346 -55.053  1.00  0.00    -0.168 NA
ENDBRANCH   1  18
TORSDOF 5
ENDMDL
MODEL 5
REMARK VINA RESULT:      -7.6      3.285      3.864
REMARK  5 active torsions:
REMARK  status: ('A' for Active; 'I' for Inactive)
REMARK    1  A    between atoms: C_9  and  C_10 
REMARK       I    between atoms: C_10  and  N_11 
REMARK    2  A    between atoms: N_11  and  C_12 
REMARK    3  A    between atoms: C_12  and  C_13 
REMARK    4  A    between atoms: C_16  and  N_17 
REMARK       I    between atoms: N_17  and  C_18 
REMARK    5  A    between atoms: C_18  and  O_19 
ROOT
HETATM    1  C   UNL     1     -42.829  54.444 -55.649  1.00  0.00     0.273 C 
HETATM    2  N   UNL     1     -42.486  55.507 -56.455  1.00  0.00    -0.351 N 
HETATM    3  O   UNL     1     -43.676  53.613 -55.966  1.00  0.00    -0.266 OA
HETATM    4  H   UNL     1     -41.698  56.067 -56.140  1.00  0.00     0.163 HD
ENDROOT
BRANCH   2   5
HETATM    5  C   UNL     1     -42.991  55.621 -57.794  1.00  0.00     0.161 C 
BRANCH   5   6
HETATM    6  C   UNL     1     -42.647  56.951 -58.404  1.00  0.00    -0.040 A 
HETATM    7  C   UNL     1     -42.402  57.067 -59.777  1.00  0.00     0.011 A 
HETATM    8  C   UNL     1     -42.095  58.308 -60.351  1.00  0.00     0.030 A 
HETATM    9  C   UNL     1     -42.018  59.456 -59.563  1.00  0.00     0.036 A 
HETATM   10  C   UNL     1     -42.236  59.333 -58.183  1.00  0.00     0.030 A 
HETATM   11  C   UNL     1     -42.543  58.095 -57.608  1.00  0.00     0.011 A 
BRANCH   9  12
HETATM   12  N   UNL     1     -41.737  60.749 -60.039  1.00  0.00    -0.303 N 
HETATM   13  C   UNL     1     -42.490  61.672 -60.715  1.00  0.00     0.364 C 
HETATM   14  O   UNL     1     -42.005  62.757 -61.019  1.00  0.00    -0.238 OA
HETATM   15  H   UNL     1     -40.813  61.113 -59.850  1.00  0.00     0.171 HD
BRANCH  13  16
HETATM   16  O   UNL     1     -43.763  61.303 -60.999  1.00  0.00    -0.309 OA
HETATM   17  C   UNL     1     -43.976  60.924 -62.360  1.00  0.00     0.215 C 
ENDBRANCH  13  16
ENDBRANCH   9  12
ENDBRANCH   5   6
ENDBRANCH   2   5
BRANCH   1  18
HETATM   18  C   UNL     1     -42.072  54.393 -54.388  1.00  0.00     0.157 A 
HETATM   19  C   UNL     1     -41.240  53.331 -53.926  1.00  0.00     0.029 A 
HETATM   20  C   UNL     1     -40.852  52.062 -54.403  1.00  0.00     0.023 A 
HETATM   21  C   UNL     1     -40.747  53.765 -52.701  1.00  0.00     0.063 A 
HETATM   22  C   UNL     1     -39.981  51.270 -53.636  1.00  0.00    -0.061 A 
HETATM   23  C   UNL     1     -39.553  49.918 -54.129  1.00  0.00     0.048 C 
HETATM   24  C   UNL     1     -39.507  51.746 -52.407  1.00  0.00     0.009 A 
HETATM   25  C   UNL     1     -39.880  53.003 -51.914  1.00  0.00     0.032 A 
HETATM   26  N   UNL     1     -41.291  55.005 -52.514  1.00  0.00    -0.277 N 
HETATM   27  H   UNL     1     -41.150  55.621 -51.721  1.00  0.00     0.189 HD
HETATM   28  N   UNL     1     -42.090  55.422 -53.512  1.00  0.00    -0.168 NA
ENDBRANCH   1  18
TORSDOF 5
ENDMDL
MODEL 6
REMARK VINA RESULT:      -7.6     14.048     15.577
REMARK  5 active torsions:
REMARK  status: ('A' for Active; 'I' for Inactive)
REMARK    1  A    between atoms: C_9  and  C_10 
REMARK       I    between atoms: C_10  and  N_11 
REMARK    2  A    between atoms: N_11  and  C_12 
REMARK    3  A    between atoms: C_12  and  C_13 
REMARK    4  A    between atoms: C_16  and  N_17 
REMARK       I    between atoms: N_17  and  C_18 
REMARK    5  A    between atoms: C_18  and  O_19 
ROOT
HETATM    1  C   UNL     1     -36.338  41.896 -53.396  1.00  0.00     0.273 C 
HETATM    2  N   UNL     1     -36.816  41.473 -54.616  1.00  0.00    -0.351 N 
HETATM    3  O   UNL     1     -35.721  42.948 -53.248  1.00  0.00    -0.266 OA
HETATM    4  H   UNL     1     -37.404  40.644 -54.600  1.00  0.00     0.163 HD
ENDROOT
BRANCH   2   5
HETATM    5  C   UNL     1     -36.756  42.320 -55.774  1.00  0.00     0.161 C 
BRANCH   5   6
HETATM    6  C   UNL     1     -37.076  41.562 -57.032  1.00  0.00    -0.040 A 
HETATM    7  C   UNL     1     -37.513  40.234 -56.976  1.00  0.00     0.011 A 
HETATM    8  C   UNL     1     -37.825  39.529 -58.146  1.00  0.00     0.030 A 
HETATM    9  C   UNL     1     -37.699  40.135 -59.396  1.00  0.00     0.036 A 
HETATM   10  C   UNL     1     -37.234  41.457 -59.452  1.00  0.00     0.030 A 
HETATM   11  C   UNL     1     -36.922  42.162 -58.285  1.00  0.00     0.011 A 
BRANCH   9  12
HETATM   12  N   UNL     1     -38.003  39.526 -60.626  1.00  0.00    -0.303 N 
HETATM   13  C   UNL     1     -37.222  38.965 -61.602  1.00  0.00     0.364 C 
HETATM   14  O   UNL     1     -37.741  38.482 -62.603  1.00  0.00    -0.238 OA
HETATM   15  H   UNL     1     -38.983  39.452 -60.868  1.00  0.00     0.171 HD
BRANCH  13  16
HETATM   16  O   UNL     1     -35.886  38.981 -61.371  1.00  0.00    -0.309 OA
HETATM   17  C   UNL     1     -35.222  37.756 -61.682  1.00  0.00     0.215 C 
ENDBRANCH  13  16
ENDBRANCH   9  12
ENDBRANCH   5   6
ENDBRANCH   2   5
BRANCH   1  18
HETATM   18  C   UNL     1     -36.654  40.978 -52.290  1.00  0.00     0.157 A 
HETATM   19  C   UNL     1     -35.740  40.417 -51.349  1.00  0.00     0.029 A 
HETATM   20  C   UNL     1     -34.352  40.486 -51.114  1.00  0.00     0.023 A 
HETATM   21  C   UNL     1     -36.523  39.633 -50.509  1.00  0.00     0.063 A 
HETATM   22  C   UNL     1     -33.792  39.766 -50.045  1.00  0.00    -0.061 A 
HETATM   23  C   UNL     1     -32.317  39.830 -49.776  1.00  0.00     0.048 C 
HETATM   24  C   UNL     1     -34.618  38.989 -49.223  1.00  0.00     0.009 A 
HETATM   25  C   UNL     1     -35.999  38.905 -49.437  1.00  0.00     0.032 A 
HETATM   26  N   UNL     1     -37.799  39.765 -50.980  1.00  0.00    -0.277 N 
HETATM   27  H   UNL     1     -38.636  39.329 -50.609  1.00  0.00     0.189 HD
HETATM   28  N   UNL     1     -37.920  40.573 -52.048  1.00  0.00    -0.168 NA
ENDBRANCH   1  18
TORSDOF 5
ENDMDL
MODEL 7
REMARK VINA RESULT:      -7.5      2.470      3.210
REMARK  5 active torsions:
REMARK  status: ('A' for Active; 'I' for Inactive)
REMARK    1  A    between atoms: C_9  and  C_10 
REMARK       I    between atoms: C_10  and  N_11 
REMARK    2  A    between atoms: N_11  and  C_12 
REMARK    3  A    between atoms: C_12  and  C_13 
REMARK    4  A    between atoms: C_16  and  N_17 
REMARK       I    between atoms: N_17  and  C_18 
REMARK    5  A    between atoms: C_18  and  O_19 
ROOT
HETATM    1  C   UNL     1     -42.711  55.829 -50.673  1.00  0.00     0.273 C 
HETATM    2  N   UNL     1     -42.028  56.900 -51.205  1.00  0.00    -0.351 N 
HETATM    3  O   UNL     1     -43.931  55.820 -50.530  1.00  0.00    -0.266 OA
HETATM    4  H   UNL     1     -41.037  56.754 -51.377  1.00  0.00     0.163 HD
ENDROOT
BRANCH   2   5
HETATM    5  C   UNL     1     -42.724  58.021 -51.773  1.00  0.00     0.161 C 
BRANCH   5   6
HETATM    6  C   UNL     1     -43.158  57.745 -53.185  1.00  0.00    -0.040 A 
HETATM    7  C   UNL     1     -44.470  58.007 -53.595  1.00  0.00     0.011 A 
HETATM    8  C   UNL     1     -44.874  57.765 -54.915  1.00  0.00     0.030 A 
HETATM    9  C   UNL     1     -43.976  57.247 -55.849  1.00  0.00     0.036 A 
HETATM   10  C   UNL     1     -42.670  56.958 -55.429  1.00  0.00     0.030 A 
HETATM   11  C   UNL     1     -42.265  57.200 -54.112  1.00  0.00     0.011 A 
BRANCH   9  12
HETATM   12  N   UNL     1     -44.272  56.985 -57.198  1.00  0.00    -0.303 N 
HETATM   13  C   UNL     1     -44.279  57.777 -58.316  1.00  0.00     0.364 C 
HETATM   14  O   UNL     1     -44.574  57.298 -59.407  1.00  0.00    -0.238 OA
HETATM   15  H   UNL     1     -44.516  56.033 -57.435  1.00  0.00     0.171 HD
BRANCH  13  16
HETATM   16  O   UNL     1     -43.938  59.075 -58.124  1.00  0.00    -0.309 OA
HETATM   17  C   UNL     1     -45.026  59.992 -58.246  1.00  0.00     0.215 C 
ENDBRANCH  13  16
ENDBRANCH   9  12
ENDBRANCH   5   6
ENDBRANCH   2   5
BRANCH   1  18
HETATM   18  C   UNL     1     -41.842  54.697 -50.314  1.00  0.00     0.157 A 
HETATM   19  C   UNL     1     -41.208  53.782 -51.206  1.00  0.00     0.029 A 
HETATM   20  C   UNL     1     -41.155  53.594 -52.601  1.00  0.00     0.023 A 
HETATM   21  C   UNL     1     -40.496  52.914 -50.386  1.00  0.00     0.063 A 
HETATM   22  C   UNL     1     -40.390  52.541 -53.131  1.00  0.00    -0.061 A 
HETATM   23  C   UNL     1     -40.318  52.327 -54.615  1.00  0.00     0.048 C 
HETATM   24  C   UNL     1     -39.687  51.690 -52.269  1.00  0.00     0.009 A 
HETATM   25  C   UNL     1     -39.726  51.858 -50.879  1.00  0.00     0.032 A 
HETATM   26  N   UNL     1     -40.739  53.343 -49.111  1.00  0.00    -0.277 N 
HETATM   27  H   UNL     1     -40.380  52.941 -48.252  1.00  0.00     0.189 HD
HETATM   28  N   UNL     1     -41.540  54.419 -49.026  1.00  0.00    -0.168 NA
ENDBRANCH   1  18
TORSDOF 5
ENDMDL
MODEL 8
REMARK VINA RESULT:      -7.4      3.634      5.976
REMARK  5 active torsions:
REMARK  status: ('A' for Active; 'I' for Inactive)
REMARK    1  A    between atoms: C_9  and  C_10 
REMARK       I    between atoms: C_10  and  N_11 
REMARK    2  A    between atoms: N_11  and  C_12 
REMARK    3  A    between atoms: C_12  and  C_13 
REMARK    4  A    between atoms: C_16  and  N_17 
REMARK       I    between atoms: N_17  and  C_18 
REMARK    5  A    between atoms: C_18  and  O_19 
ROOT
HETATM    1  C   UNL     1     -40.675  53.885 -54.769  1.00  0.00     0.273 C 
HETATM    2  N   UNL     1     -42.027  54.011 -54.999  1.00  0.00    -0.351 N 
HETATM    3  O   UNL     1     -39.855  54.725 -55.130  1.00  0.00    -0.266 OA
HETATM    4  H   UNL     1     -42.620  53.310 -54.560  1.00  0.00     0.163 HD
ENDROOT
BRANCH   2   5
HETATM    5  C   UNL     1     -42.581  55.218 -55.544  1.00  0.00     0.161 C 
BRANCH   5   6
HETATM    6  C   UNL     1     -43.295  56.023 -54.494  1.00  0.00    -0.040 A 
HETATM    7  C   UNL     1     -44.124  57.092 -54.851  1.00  0.00     0.011 A 
HETATM    8  C   UNL     1     -44.802  57.835 -53.875  1.00  0.00     0.030 A 
HETATM    9  C   UNL     1     -44.657  57.529 -52.521  1.00  0.00     0.036 A 
HETATM   10  C   UNL     1     -43.804  56.476 -52.164  1.00  0.00     0.030 A 
HETATM   11  C   UNL     1     -43.127  55.733 -53.137  1.00  0.00     0.011 A 
BRANCH   9  12
HETATM   12  N   UNL     1     -45.305  58.196 -51.467  1.00  0.00    -0.303 N 
HETATM   13  C   UNL     1     -44.975  59.302 -50.728  1.00  0.00     0.364 C 
HETATM   14  O   UNL     1     -45.730  59.699 -49.846  1.00  0.00    -0.238 OA
HETATM   15  H   UNL     1     -46.202  57.829 -51.178  1.00  0.00     0.171 HD
BRANCH  13  16
HETATM   16  O   UNL     1     -43.801  59.899 -51.048  1.00  0.00    -0.309 OA
HETATM   17  C   UNL     1     -43.412  60.946 -50.158  1.00  0.00     0.215 C 
ENDBRANCH  13  16
ENDBRANCH   9  12
ENDBRANCH   5   6
ENDBRANCH   2   5
BRANCH   1  18
HETATM   18  C   UNL     1     -40.315  52.661 -54.035  1.00  0.00     0.157 A 
HETATM   19  C   UNL     1     -40.308  52.476 -52.620  1.00  0.00     0.029 A 
HETATM   20  C   UNL     1     -40.592  53.269 -51.490  1.00  0.00     0.023 A 
HETATM   21  C   UNL     1     -39.910  51.158 -52.430  1.00  0.00     0.063 A 
HETATM   22  C   UNL     1     -40.469  52.714 -50.205  1.00  0.00    -0.061 A 
HETATM   23  C   UNL     1     -40.771  53.541 -48.988  1.00  0.00     0.048 C 
HETATM   24  C   UNL     1     -40.066  51.381 -50.059  1.00  0.00     0.009 A 
HETATM   25  C   UNL     1     -39.777  50.575 -51.167  1.00  0.00     0.032 A 
HETATM   26  N   UNL     1     -39.712  50.658 -53.687  1.00  0.00    -0.277 N 
HETATM   27  H   UNL     1     -39.413  49.720 -53.932  1.00  0.00     0.189 HD
HETATM   28  N   UNL     1     -39.952  51.531 -54.681  1.00  0.00    -0.168 NA
ENDBRANCH   1  18
TORSDOF 5
ENDMDL
MODEL 9
REMARK VINA RESULT:      -7.4      3.581      4.998
REMARK  5 active torsions:
REMARK  status: ('A' for Active; 'I' for Inactive)
REMARK    1  A    between atoms: C_9  and  C_10 
REMARK       I    between atoms: C_10  and  N_11 
REMARK    2  A    between atoms: N_11  and  C_12 
REMARK    3  A    between atoms: C_12  and  C_13 
REMARK    4  A    between atoms: C_16  and  N_17 
REMARK       I    between atoms: N_17  and  C_18 
REMARK    5  A    between atoms: C_18  and  O_19 
ROOT
HETATM    1  C   UNL     1     -41.573  54.861 -50.061  1.00  0.00     0.273 C 
HETATM    2  N   UNL     1     -40.817  55.994 -50.263  1.00  0.00    -0.351 N 
HETATM    3  O   UNL     1     -42.677  54.881 -49.522  1.00  0.00    -0.266 OA
HETATM    4  H   UNL     1     -39.971  55.873 -50.815  1.00  0.00     0.163 HD
ENDROOT
BRANCH   2   5
HETATM    5  C   UNL     1     -41.346  57.301 -49.991  1.00  0.00     0.161 C 
BRANCH   5   6
HETATM    6  C   UNL     1     -41.465  58.122 -51.244  1.00  0.00    -0.040 A 
HETATM    7  C   UNL     1     -40.943  57.657 -52.457  1.00  0.00     0.011 A 
HETATM    8  C   UNL     1     -41.066  58.414 -53.630  1.00  0.00     0.030 A 
HETATM    9  C   UNL     1     -41.704  59.654 -53.613  1.00  0.00     0.036 A 
HETATM   10  C   UNL     1     -42.201  60.130 -52.391  1.00  0.00     0.030 A 
HETATM   11  C   UNL     1     -42.080  59.377 -51.219  1.00  0.00     0.011 A 
BRANCH   9  12
HETATM   12  N   UNL     1     -41.897  60.482 -54.733  1.00  0.00    -0.303 N 
HETATM   13  C   UNL     1     -42.702  60.377 -55.836  1.00  0.00     0.364 C 
HETATM   14  O   UNL     1     -42.693  61.258 -56.690  1.00  0.00    -0.238 OA
HETATM   15  H   UNL     1     -41.368  61.344 -54.758  1.00  0.00     0.171 HD
BRANCH  13  16
HETATM   16  O   UNL     1     -43.482  59.270 -55.895  1.00  0.00    -0.309 OA
HETATM   17  C   UNL     1     -43.076  58.317 -56.879  1.00  0.00     0.215 C 
ENDBRANCH  13  16
ENDBRANCH   9  12
ENDBRANCH   5   6
ENDBRANCH   2   5
BRANCH   1  18
HETATM   18  C   UNL     1     -40.940  53.634 -50.571  1.00  0.00     0.157 A 
HETATM   19  C   UNL     1     -40.621  53.329 -51.928  1.00  0.00     0.029 A 
HETATM   20  C   UNL     1     -40.762  53.971 -53.174  1.00  0.00     0.023 A 
HETATM   21  C   UNL     1     -40.033  52.070 -51.886  1.00  0.00     0.063 A 
HETATM   22  C   UNL     1     -40.309  53.331 -54.340  1.00  0.00    -0.061 A 
HETATM   23  C   UNL     1     -40.446  54.000 -55.677  1.00  0.00     0.048 C 
HETATM   24  C   UNL     1     -39.721  52.062 -54.253  1.00  0.00     0.009 A 
HETATM   25  C   UNL     1     -39.572  51.405 -53.025  1.00  0.00     0.032 A 
HETATM   26  N   UNL     1     -40.037  51.715 -50.566  1.00  0.00    -0.277 N 
HETATM   27  H   UNL     1     -39.685  50.853 -50.164  1.00  0.00     0.189 HD
HETATM   28  N   UNL     1     -40.569  52.634 -49.741  1.00  0.00    -0.168 NA
ENDBRANCH   1  18
TORSDOF 5
ENDMDL
MODEL 10
REMARK VINA RESULT:      -7.3      2.501      4.082
REMARK  5 active torsions:
REMARK  status: ('A' for Active; 'I' for Inactive)
REMARK    1  A    between atoms: C_9  and  C_10 
REMARK       I    between atoms: C_10  and  N_11 
REMARK    2  A    between atoms: N_11  and  C_12 
REMARK    3  A    between atoms: C_12  and  C_13 
REMARK    4  A    between atoms: C_16  and  N_17 
REMARK       I    between atoms: N_17  and  C_18 
REMARK    5  A    between atoms: C_18  and  O_19 
ROOT
HETATM    1  C   UNL     1     -42.750  56.751 -56.515  1.00  0.00     0.273 C 
HETATM    2  N   UNL     1     -42.944  55.848 -57.537  1.00  0.00    -0.351 N 
HETATM    3  O   UNL     1     -42.359  57.900 -56.705  1.00  0.00    -0.266 OA
HETATM    4  H   UNL     1     -43.371  54.964 -57.274  1.00  0.00     0.163 HD
ENDROOT
BRANCH   2   5
HETATM    5  C   UNL     1     -42.848  56.248 -58.913  1.00  0.00     0.161 C 
BRANCH   5   6
HETATM    6  C   UNL     1     -44.198  56.295 -59.571  1.00  0.00    -0.040 A 
HETATM    7  C   UNL     1     -45.174  57.200 -59.140  1.00  0.00     0.011 A 
HETATM    8  C   UNL     1     -46.429  57.256 -59.762  1.00  0.00     0.030 A 
HETATM    9  C   UNL     1     -46.736  56.401 -60.822  1.00  0.00     0.036 A 
HETATM   10  C   UNL     1     -45.766  55.476 -61.233  1.00  0.00     0.030 A 
HETATM   11  C   UNL     1     -44.513  55.419 -60.614  1.00  0.00     0.011 A 
BRANCH   9  12
HETATM   12  N   UNL     1     -47.953  56.388 -61.525  1.00  0.00    -0.303 N 
HETATM   13  C   UNL     1     -48.634  57.353 -62.218  1.00  0.00     0.364 C 
HETATM   14  O   UNL     1     -49.699  57.082 -62.763  1.00  0.00    -0.238 OA
HETATM   15  H   UNL     1     -48.446  55.506 -61.565  1.00  0.00     0.171 HD
BRANCH  13  16
HETATM   16  O   UNL     1     -48.050  58.576 -62.258  1.00  0.00    -0.309 OA
HETATM   17  C   UNL     1     -48.437  59.376 -63.376  1.00  0.00     0.215 C 
ENDBRANCH  13  16
ENDBRANCH   9  12
ENDBRANCH   5   6
ENDBRANCH   2   5
BRANCH   1  18
HETATM   18  C   UNL     1     -43.074  56.212 -55.185  1.00  0.00     0.157 A 
HETATM   19  C   UNL     1     -42.442  55.117 -54.522  1.00  0.00     0.029 A 
HETATM   20  C   UNL     1     -41.400  54.216 -54.817  1.00  0.00     0.023 A 
HETATM   21  C   UNL     1     -43.094  55.010 -53.300  1.00  0.00     0.063 A 
HETATM   22  C   UNL     1     -41.045  53.234 -53.876  1.00  0.00    -0.061 A 
HETATM   23  C   UNL     1     -39.935  52.267 -54.168  1.00  0.00     0.048 C 
HETATM   24  C   UNL     1     -41.728  53.162 -52.655  1.00  0.00     0.009 A 
HETATM   25  C   UNL     1     -42.767  54.047 -52.342  1.00  0.00     0.032 A 
HETATM   26  N   UNL     1     -44.035  56.001 -53.306  1.00  0.00    -0.277 N 
HETATM   27  H   UNL     1     -44.700  56.219 -52.572  1.00  0.00     0.189 HD
HETATM   28  N   UNL     1     -44.050  56.751 -54.422  1.00  0.00    -0.168 NA
ENDBRANCH   1  18
TORSDOF 5
ENDMDL
