MODEL 1
REMARK VINA RESULT:      -9.0      0.000      0.000
REMARK  5 active torsions:
REMARK  status: ('A' for Active; 'I' for Inactive)
REMARK    1  A    between atoms: C_2  and  C_3 
REMARK    2  A    between atoms: C_3  and  C_4 
REMARK    3  A    between atoms: C_8  and  N_9 
REMARK       I    between atoms: N_9  and  C_10 
REMARK    4  A    between atoms: C_10  and  C_11 
REMARK    5  A    between atoms: N_13  and  C_14 
ROOT
HETATM    1  C   UNL     1     -43.149  57.837 -52.843  1.00  0.00     0.106 C 
HETATM    2  C   UNL     1     -41.807  57.217 -52.526  1.00  0.00     0.148 C 
HETATM    3  N   UNL     1     -42.138  56.030 -51.780  1.00  0.00    -0.299 N 
HETATM    4  C   UNL     1     -43.422  56.123 -51.218  1.00  0.00     0.226 C 
HETATM    5  O   UNL     1     -44.020  55.345 -50.493  1.00  0.00    -0.273 OA
HETATM    6  C   UNL     1     -44.038  57.421 -51.684  1.00  0.00     0.119 C 
ENDROOT
BRANCH   1   7
HETATM    7  C   UNL     1     -43.692  57.383 -54.198  1.00  0.00     0.242 C 
HETATM    8  N   UNL     1     -42.798  57.481 -55.248  1.00  0.00    -0.156 N 
HETATM    9  H   UNL     1     -41.873  57.869 -55.107  1.00  0.00     0.187 HD
HETATM   10  O   UNL     1     -44.854  56.987 -54.262  1.00  0.00    -0.272 OA
BRANCH   8  11
HETATM   11  C   UNL     1     -43.123  57.072 -56.519  1.00  0.00     0.725 A 
HETATM   12  N   UNL     1     -42.552  55.967 -57.096  1.00  0.00    -0.106 N 
HETATM   13  N   UNL     1     -43.011  55.761 -58.340  1.00  0.00    -0.144 NA
HETATM   14  H   UNL     1     -41.866  55.331 -56.710  1.00  0.00     0.208 HD
HETATM   15  C   UNL     1     -43.879  56.772 -58.467  1.00  0.00     0.166 A 
HETATM   16  N   UNL     1     -43.971  57.589 -57.373  1.00  0.00    -0.046 NA
BRANCH  15  17
HETATM   17  C   UNL     1     -44.697  56.993 -59.690  1.00  0.00     0.087 C 
BRANCH  17  18
HETATM   18  C   UNL     1     -45.587  55.793 -60.059  1.00  0.00    -0.016 C 
HETATM   19  C   UNL     1     -45.025  55.005 -61.246  1.00  0.00     0.010 C 
HETATM   20  C   UNL     1     -47.002  56.275 -60.384  1.00  0.00     0.010 C 
ENDBRANCH  17  18
ENDBRANCH  15  17
ENDBRANCH   8  11
ENDBRANCH   1   7
BRANCH   3  21
HETATM   21  C   UNL     1     -41.298  54.938 -51.577  1.00  0.00     0.165 A 
HETATM   22  N   UNL     1     -40.624  54.767 -50.435  1.00  0.00    -0.155 NA
HETATM   23  N   UNL     1     -39.925  53.642 -50.609  1.00  0.00    -0.275 N 
HETATM   24  H   UNL     1     -39.302  53.346 -49.864  1.00  0.00     0.189 HD
HETATM   25  C   UNL     1     -40.161  53.014 -51.797  1.00  0.00     0.065 A 
HETATM   26  C   UNL     1     -41.063  53.836 -52.470  1.00  0.00     0.040 A 
HETATM   27  C   UNL     1     -39.654  51.821 -52.325  1.00  0.00     0.051 A 
HETATM   28  C   UNL     1     -41.473  53.444 -53.763  1.00  0.00     0.019 A 
HETATM   29  C   UNL     1     -40.983  52.251 -54.314  1.00  0.00     0.020 A 
HETATM   30  C   UNL     1     -40.089  51.457 -53.600  1.00  0.00     0.013 A 
HETATM   31 BR   UNL     1     -39.442  49.856 -54.374  1.00  0.00    -0.051 Br
ENDBRANCH   3  21
TORSDOF 5
ENDMDL
MODEL 2
REMARK VINA RESULT:      -8.9      1.888      2.408
REMARK  5 active torsions:
REMARK  status: ('A' for Active; 'I' for Inactive)
REMARK    1  A    between atoms: C_2  and  C_3 
REMARK    2  A    between atoms: C_3  and  C_4 
REMARK    3  A    between atoms: C_8  and  N_9 
REMARK       I    between atoms: N_9  and  C_10 
REMARK    4  A    between atoms: C_10  and  C_11 
REMARK    5  A    between atoms: N_13  and  C_14 
ROOT
HETATM    1  C   UNL     1     -41.790  58.743 -51.663  1.00  0.00     0.106 C 
HETATM    2  C   UNL     1     -40.870  57.765 -50.967  1.00  0.00     0.148 C 
HETATM    3  N   UNL     1     -41.509  56.488 -51.157  1.00  0.00    -0.299 N 
HETATM    4  C   UNL     1     -42.877  56.639 -51.440  1.00  0.00     0.226 C 
HETATM    5  O   UNL     1     -43.742  55.796 -51.612  1.00  0.00    -0.273 OA
HETATM    6  C   UNL     1     -43.168  58.119 -51.533  1.00  0.00     0.119 C 
ENDROOT
BRANCH   1   7
HETATM    7  C   UNL     1     -41.385  58.985 -53.117  1.00  0.00     0.242 C 
HETATM    8  N   UNL     1     -42.421  58.916 -54.031  1.00  0.00    -0.156 N 
HETATM    9  H   UNL     1     -43.359  58.677 -53.733  1.00  0.00     0.187 HD
HETATM   10  O   UNL     1     -40.203  59.206 -53.368  1.00  0.00    -0.272 OA
BRANCH   8  11
HETATM   11  C   UNL     1     -42.225  59.152 -55.370  1.00  0.00     0.725 A 
HETATM   12  N   UNL     1     -41.764  60.356 -55.835  1.00  0.00    -0.106 N 
HETATM   13  N   UNL     1     -41.656  60.365 -57.173  1.00  0.00    -0.144 NA
HETATM   14  H   UNL     1     -41.512  61.186 -55.313  1.00  0.00     0.208 HD
HETATM   15  C   UNL     1     -42.055  59.123 -57.474  1.00  0.00     0.166 A 
HETATM   16  N   UNL     1     -42.407  58.358 -56.395  1.00  0.00    -0.046 NA
BRANCH  15  17
HETATM   17  C   UNL     1     -42.102  58.598 -58.865  1.00  0.00     0.087 C 
BRANCH  17  18
HETATM   18  C   UNL     1     -43.124  57.463 -59.058  1.00  0.00    -0.016 C 
HETATM   19  C   UNL     1     -42.488  56.219 -59.685  1.00  0.00     0.010 C 
HETATM   20  C   UNL     1     -44.281  57.947 -59.934  1.00  0.00     0.010 C 
ENDBRANCH  17  18
ENDBRANCH  15  17
ENDBRANCH   8  11
ENDBRANCH   1   7
BRANCH   3  21
HETATM   21  C   UNL     1     -40.893  55.245 -51.031  1.00  0.00     0.165 A 
HETATM   22  N   UNL     1     -40.348  54.840 -49.880  1.00  0.00    -0.155 NA
HETATM   23  N   UNL     1     -39.849  53.628 -50.139  1.00  0.00    -0.275 N 
HETATM   24  H   UNL     1     -39.346  53.150 -49.398  1.00  0.00     0.189 HD
HETATM   25  C   UNL     1     -40.103  53.177 -51.401  1.00  0.00     0.065 A 
HETATM   26  C   UNL     1     -40.791  54.213 -52.027  1.00  0.00     0.040 A 
HETATM   27  C   UNL     1     -39.777  51.968 -52.030  1.00  0.00     0.051 A 
HETATM   28  C   UNL     1     -41.167  54.035 -53.377  1.00  0.00     0.019 A 
HETATM   29  C   UNL     1     -40.856  52.833 -54.030  1.00  0.00     0.020 A 
HETATM   30  C   UNL     1     -40.174  51.821 -53.360  1.00  0.00     0.013 A 
HETATM   31 BR   UNL     1     -39.765  50.213 -54.271  1.00  0.00    -0.051 Br
ENDBRANCH   3  21
TORSDOF 5
ENDMDL
MODEL 3
REMARK VINA RESULT:      -8.3      2.780      3.527
REMARK  5 active torsions:
REMARK  status: ('A' for Active; 'I' for Inactive)
REMARK    1  A    between atoms: C_2  and  C_3 
REMARK    2  A    between atoms: C_3  and  C_4 
REMARK    3  A    between atoms: C_8  and  N_9 
REMARK       I    between atoms: N_9  and  C_10 
REMARK    4  A    between atoms: C_10  and  C_11 
REMARK    5  A    between atoms: N_13  and  C_14 
ROOT
HETATM    1  C   UNL     1     -41.775  58.605 -51.700  1.00  0.00     0.106 C 
HETATM    2  C   UNL     1     -40.858  57.644 -50.977  1.00  0.00     0.148 C 
HETATM    3  N   UNL     1     -41.524  56.372 -51.091  1.00  0.00    -0.299 N 
HETATM    4  C   UNL     1     -42.895  56.536 -51.350  1.00  0.00     0.226 C 
HETATM    5  O   UNL     1     -43.779  55.702 -51.461  1.00  0.00    -0.273 OA
HETATM    6  C   UNL     1     -43.161  58.015 -51.509  1.00  0.00     0.119 C 
ENDROOT
BRANCH   1   7
HETATM    7  C   UNL     1     -41.400  58.768 -53.172  1.00  0.00     0.242 C 
HETATM    8  N   UNL     1     -42.471  58.826 -54.045  1.00  0.00    -0.156 N 
HETATM    9  H   UNL     1     -43.420  58.720 -53.708  1.00  0.00     0.187 HD
HETATM   10  O   UNL     1     -40.209  58.823 -53.473  1.00  0.00    -0.272 OA
BRANCH   8  11
HETATM   11  C   UNL     1     -42.298  59.013 -55.395  1.00  0.00     0.725 A 
HETATM   12  N   UNL     1     -42.637  58.051 -56.311  1.00  0.00    -0.106 N 
HETATM   13  N   UNL     1     -42.375  58.445 -57.568  1.00  0.00    -0.144 NA
HETATM   14  H   UNL     1     -43.037  57.135 -56.154  1.00  0.00     0.208 HD
HETATM   15  C   UNL     1     -41.886  59.673 -57.358  1.00  0.00     0.166 A 
HETATM   16  N   UNL     1     -41.828  60.049 -56.043  1.00  0.00    -0.046 NA
BRANCH  15  17
HETATM   17  C   UNL     1     -41.451  60.575 -58.458  1.00  0.00     0.087 C 
BRANCH  17  18
HETATM   18  C   UNL     1     -41.377  62.056 -58.045  1.00  0.00    -0.016 C 
HETATM   19  C   UNL     1     -42.681  62.801 -58.344  1.00  0.00     0.010 C 
HETATM   20  C   UNL     1     -40.215  62.740 -58.768  1.00  0.00     0.010 C 
ENDBRANCH  17  18
ENDBRANCH  15  17
ENDBRANCH   8  11
ENDBRANCH   1   7
BRANCH   3  21
HETATM   21  C   UNL     1     -40.929  55.125 -50.917  1.00  0.00     0.165 A 
HETATM   22  N   UNL     1     -40.496  54.707 -49.723  1.00  0.00    -0.155 NA
HETATM   23  N   UNL     1     -39.981  53.495 -49.944  1.00  0.00    -0.275 N 
HETATM   24  H   UNL     1     -39.552  53.008 -49.163  1.00  0.00     0.189 HD
HETATM   25  C   UNL     1     -40.117  53.055 -51.228  1.00  0.00     0.065 A 
HETATM   26  C   UNL     1     -40.738  54.100 -51.907  1.00  0.00     0.040 A 
HETATM   27  C   UNL     1     -39.738  51.850 -51.834  1.00  0.00     0.051 A 
HETATM   28  C   UNL     1     -40.985  53.935 -53.289  1.00  0.00     0.019 A 
HETATM   29  C   UNL     1     -40.620  52.736 -53.919  1.00  0.00     0.020 A 
HETATM   30  C   UNL     1     -40.008  51.715 -53.197  1.00  0.00     0.013 A 
HETATM   31 BR   UNL     1     -39.523  50.113 -54.079  1.00  0.00    -0.051 Br
ENDBRANCH   3  21
TORSDOF 5
ENDMDL
MODEL 4
REMARK VINA RESULT:      -8.0      1.902      2.261
REMARK  5 active torsions:
REMARK  status: ('A' for Active; 'I' for Inactive)
REMARK    1  A    between atoms: C_2  and  C_3 
REMARK    2  A    between atoms: C_3  and  C_4 
REMARK    3  A    between atoms: C_8  and  N_9 
REMARK       I    between atoms: N_9  and  C_10 
REMARK    4  A    between atoms: C_10  and  C_11 
REMARK    5  A    between atoms: N_13  and  C_14 
ROOT
HETATM    1  C   UNL     1     -41.713  58.372 -53.887  1.00  0.00     0.106 C 
HETATM    2  C   UNL     1     -40.631  57.317 -53.864  1.00  0.00     0.148 C 
HETATM    3  N   UNL     1     -41.341  56.093 -53.594  1.00  0.00    -0.299 N 
HETATM    4  C   UNL     1     -42.586  56.348 -52.995  1.00  0.00     0.226 C 
HETATM    5  O   UNL     1     -43.435  55.572 -52.585  1.00  0.00    -0.273 OA
HETATM    6  C   UNL     1     -42.771  57.846 -52.933  1.00  0.00     0.119 C 
ENDROOT
BRANCH   1   7
HETATM    7  C   UNL     1     -42.256  58.615 -55.295  1.00  0.00     0.242 C 
HETATM    8  N   UNL     1     -42.167  57.531 -56.150  1.00  0.00    -0.156 N 
HETATM    9  H   UNL     1     -41.729  56.668 -55.850  1.00  0.00     0.187 HD
HETATM   10  O   UNL     1     -42.708  59.724 -55.567  1.00  0.00    -0.272 OA
BRANCH   8  11
HETATM   11  C   UNL     1     -42.650  57.579 -57.436  1.00  0.00     0.725 A 
HETATM   12  N   UNL     1     -41.830  57.800 -58.512  1.00  0.00    -0.106 N 
HETATM   13  N   UNL     1     -42.516  57.814 -59.666  1.00  0.00    -0.144 NA
HETATM   14  H   UNL     1     -40.828  57.945 -58.530  1.00  0.00     0.208 HD
HETATM   15  C   UNL     1     -43.760  57.579 -59.231  1.00  0.00     0.166 A 
HETATM   16  N   UNL     1     -43.874  57.430 -57.876  1.00  0.00    -0.046 NA
BRANCH  15  17
HETATM   17  C   UNL     1     -44.933  57.472 -60.140  1.00  0.00     0.087 C 
BRANCH  17  18
HETATM   18  C   UNL     1     -45.670  56.125 -60.035  1.00  0.00    -0.016 C 
HETATM   19  C   UNL     1     -44.877  54.986 -60.683  1.00  0.00     0.010 C 
HETATM   20  C   UNL     1     -47.047  56.232 -60.692  1.00  0.00     0.010 C 
ENDBRANCH  17  18
ENDBRANCH  15  17
ENDBRANCH   8  11
ENDBRANCH   1   7
BRANCH   3  21
HETATM   21  C   UNL     1     -40.863  54.807 -53.832  1.00  0.00     0.165 A 
HETATM   22  N   UNL     1     -40.546  54.386 -55.061  1.00  0.00    -0.155 NA
HETATM   23  N   UNL     1     -40.147  53.121 -54.904  1.00  0.00    -0.275 N 
HETATM   24  H   UNL     1     -39.896  52.593 -55.733  1.00  0.00     0.189 HD
HETATM   25  C   UNL     1     -40.116  52.702 -53.606  1.00  0.00     0.065 A 
HETATM   26  C   UNL     1     -40.582  53.783 -52.862  1.00  0.00     0.040 A 
HETATM   27  C   UNL     1     -39.735  51.477 -53.043  1.00  0.00     0.051 A 
HETATM   28  C   UNL     1     -40.687  53.625 -51.463  1.00  0.00     0.019 A 
HETATM   29  C   UNL     1     -40.308  52.410 -50.873  1.00  0.00     0.020 A 
HETATM   30  C   UNL     1     -39.840  51.359 -51.656  1.00  0.00     0.013 A 
HETATM   31 BR   UNL     1     -39.342  49.731 -50.829  1.00  0.00    -0.051 Br
ENDBRANCH   3  21
TORSDOF 5
ENDMDL
MODEL 5
REMARK VINA RESULT:      -7.7      4.770      9.288
REMARK  5 active torsions:
REMARK  status: ('A' for Active; 'I' for Inactive)
REMARK    1  A    between atoms: C_2  and  C_3 
REMARK    2  A    between atoms: C_3  and  C_4 
REMARK    3  A    between atoms: C_8  and  N_9 
REMARK       I    between atoms: N_9  and  C_10 
REMARK    4  A    between atoms: C_10  and  C_11 
REMARK    5  A    between atoms: N_13  and  C_14 
ROOT
HETATM    1  C   UNL     1     -44.206  56.997 -58.964  1.00  0.00     0.106 C 
HETATM    2  C   UNL     1     -43.534  57.564 -60.194  1.00  0.00     0.148 C 
HETATM    3  N   UNL     1     -43.589  58.990 -59.997  1.00  0.00    -0.299 N 
HETATM    4  C   UNL     1     -44.599  59.339 -59.085  1.00  0.00     0.226 C 
HETATM    5  O   UNL     1     -44.971  60.439 -58.708  1.00  0.00    -0.273 OA
HETATM    6  C   UNL     1     -45.212  58.062 -58.562  1.00  0.00     0.119 C 
ENDROOT
BRANCH   1   7
HETATM    7  C   UNL     1     -43.206  56.678 -57.852  1.00  0.00     0.242 C 
HETATM    8  N   UNL     1     -43.447  55.499 -57.171  1.00  0.00    -0.156 N 
HETATM    9  H   UNL     1     -44.259  54.933 -57.386  1.00  0.00     0.187 HD
HETATM   10  O   UNL     1     -42.293  57.472 -57.638  1.00  0.00    -0.272 OA
BRANCH   8  11
HETATM   11  C   UNL     1     -42.614  55.054 -56.173  1.00  0.00     0.725 A 
HETATM   12  N   UNL     1     -41.353  55.563 -55.998  1.00  0.00    -0.106 N 
HETATM   13  N   UNL     1     -40.717  54.977 -54.971  1.00  0.00    -0.144 NA
HETATM   14  H   UNL     1     -40.881  56.286 -56.525  1.00  0.00     0.208 HD
HETATM   15  C   UNL     1     -41.652  54.119 -54.543  1.00  0.00     0.166 A 
HETATM   16  N   UNL     1     -42.820  54.143 -55.255  1.00  0.00    -0.046 NA
BRANCH  15  17
HETATM   17  C   UNL     1     -41.454  53.216 -53.378  1.00  0.00     0.087 C 
BRANCH  17  18
HETATM   18  C   UNL     1     -40.156  52.390 -53.455  1.00  0.00    -0.016 C 
HETATM   19  C   UNL     1     -40.329  51.130 -54.307  1.00  0.00     0.010 C 
HETATM   20  C   UNL     1     -39.703  52.001 -52.047  1.00  0.00     0.010 C 
ENDBRANCH  17  18
ENDBRANCH  15  17
ENDBRANCH   8  11
ENDBRANCH   1   7
BRANCH   3  21
HETATM   21  C   UNL     1     -42.798  59.931 -60.651  1.00  0.00     0.165 A 
HETATM   22  N   UNL     1     -42.868  60.119 -61.973  1.00  0.00    -0.155 NA
HETATM   23  N   UNL     1     -41.970  61.072 -62.237  1.00  0.00    -0.275 N 
HETATM   24  H   UNL     1     -41.830  61.341 -63.206  1.00  0.00     0.189 HD
HETATM   25  C   UNL     1     -41.352  61.580 -61.132  1.00  0.00     0.065 A 
HETATM   26  C   UNL     1     -41.868  60.855 -60.061  1.00  0.00     0.040 A 
HETATM   27  C   UNL     1     -40.391  62.590 -60.997  1.00  0.00     0.051 A 
HETATM   28  C   UNL     1     -41.381  61.151 -58.768  1.00  0.00     0.019 A 
HETATM   29  C   UNL     1     -40.421  62.161 -58.605  1.00  0.00     0.020 A 
HETATM   30  C   UNL     1     -39.940  62.865 -59.705  1.00  0.00     0.013 A 
HETATM   31 BR   UNL     1     -38.641  64.217 -59.451  1.00  0.00    -0.051 Br
ENDBRANCH   3  21
TORSDOF 5
ENDMDL
MODEL 6
REMARK VINA RESULT:      -7.7      4.329      7.543
REMARK  5 active torsions:
REMARK  status: ('A' for Active; 'I' for Inactive)
REMARK    1  A    between atoms: C_2  and  C_3 
REMARK    2  A    between atoms: C_3  and  C_4 
REMARK    3  A    between atoms: C_8  and  N_9 
REMARK       I    between atoms: N_9  and  C_10 
REMARK    4  A    between atoms: C_10  and  C_11 
REMARK    5  A    between atoms: N_13  and  C_14 
ROOT
HETATM    1  C   UNL     1     -43.360  59.281 -53.413  1.00  0.00     0.106 C 
HETATM    2  C   UNL     1     -43.141  57.786 -53.478  1.00  0.00     0.148 C 
HETATM    3  N   UNL     1     -41.882  57.588 -52.808  1.00  0.00    -0.299 N 
HETATM    4  C   UNL     1     -41.123  58.770 -52.787  1.00  0.00     0.226 C 
HETATM    5  O   UNL     1     -40.000  58.976 -52.355  1.00  0.00    -0.273 OA
HETATM    6  C   UNL     1     -41.958  59.865 -53.408  1.00  0.00     0.119 C 
ENDROOT
BRANCH   1   7
HETATM    7  C   UNL     1     -44.177  59.694 -52.190  1.00  0.00     0.242 C 
HETATM    8  N   UNL     1     -43.806  60.899 -51.619  1.00  0.00    -0.156 N 
HETATM    9  H   UNL     1     -43.018  61.422 -51.981  1.00  0.00     0.187 HD
HETATM   10  O   UNL     1     -45.072  58.947 -51.801  1.00  0.00    -0.272 OA
BRANCH   8  11
HETATM   11  C   UNL     1     -44.472  61.426 -50.539  1.00  0.00     0.725 A 
HETATM   12  N   UNL     1     -45.820  61.251 -50.361  1.00  0.00    -0.106 N 
HETATM   13  N   UNL     1     -46.258  61.858 -49.246  1.00  0.00    -0.144 NA
HETATM   14  H   UNL     1     -46.478  60.746 -50.941  1.00  0.00     0.208 HD
HETATM   15  C   UNL     1     -45.121  62.381 -48.772  1.00  0.00     0.166 A 
HETATM   16  N   UNL     1     -44.013  62.134 -49.538  1.00  0.00    -0.046 NA
BRANCH  15  17
HETATM   17  C   UNL     1     -45.049  63.160 -47.506  1.00  0.00     0.087 C 
BRANCH  17  18
HETATM   18  C   UNL     1     -45.457  62.348 -46.263  1.00  0.00    -0.016 C 
HETATM   19  C   UNL     1     -45.172  63.107 -44.964  1.00  0.00     0.010 C 
HETATM   20  C   UNL     1     -44.716  61.010 -46.250  1.00  0.00     0.010 C 
ENDBRANCH  17  18
ENDBRANCH  15  17
ENDBRANCH   8  11
ENDBRANCH   1   7
BRANCH   3  21
HETATM   21  C   UNL     1     -41.421  56.382 -52.285  1.00  0.00     0.165 A 
HETATM   22  N   UNL     1     -41.262  56.195 -50.971  1.00  0.00    -0.155 NA
HETATM   23  N   UNL     1     -40.800  54.948 -50.850  1.00  0.00    -0.275 N 
HETATM   24  H   UNL     1     -40.568  54.612 -49.921  1.00  0.00     0.189 HD
HETATM   25  C   UNL     1     -40.711  54.267 -52.029  1.00  0.00     0.065 A 
HETATM   26  C   UNL     1     -41.112  55.177 -53.005  1.00  0.00     0.040 A 
HETATM   27  C   UNL     1     -40.306  52.956 -52.307  1.00  0.00     0.051 A 
HETATM   28  C   UNL     1     -41.093  54.749 -54.352  1.00  0.00     0.019 A 
HETATM   29  C   UNL     1     -40.696  53.439 -54.658  1.00  0.00     0.020 A 
HETATM   30  C   UNL     1     -40.312  52.563 -53.647  1.00  0.00     0.013 A 
HETATM   31 BR   UNL     1     -39.776  50.803 -54.094  1.00  0.00    -0.051 Br
ENDBRANCH   3  21
TORSDOF 5
ENDMDL
MODEL 7
REMARK VINA RESULT:      -7.7     15.340     16.887
REMARK  5 active torsions:
REMARK  status: ('A' for Active; 'I' for Inactive)
REMARK    1  A    between atoms: C_2  and  C_3 
REMARK    2  A    between atoms: C_3  and  C_4 
REMARK    3  A    between atoms: C_8  and  N_9 
REMARK       I    between atoms: N_9  and  C_10 
REMARK    4  A    between atoms: C_10  and  C_11 
REMARK    5  A    between atoms: N_13  and  C_14 
ROOT
HETATM    1  C   UNL     1     -37.425  42.206 -56.208  1.00  0.00     0.106 C 
HETATM    2  C   UNL     1     -36.105  42.500 -55.533  1.00  0.00     0.148 C 
HETATM    3  N   UNL     1     -35.834  41.314 -54.763  1.00  0.00    -0.299 N 
HETATM    4  C   UNL     1     -37.009  40.585 -54.519  1.00  0.00     0.226 C 
HETATM    5  O   UNL     1     -37.181  39.564 -53.871  1.00  0.00    -0.273 OA
HETATM    6  C   UNL     1     -38.140  41.275 -55.244  1.00  0.00     0.119 C 
ENDROOT
BRANCH   1   7
HETATM    7  C   UNL     1     -37.243  41.593 -57.596  1.00  0.00     0.242 C 
HETATM    8  N   UNL     1     -37.982  40.447 -57.830  1.00  0.00    -0.156 N 
HETATM    9  H   UNL     1     -38.559  40.045 -57.101  1.00  0.00     0.187 HD
HETATM   10  O   UNL     1     -36.467  42.134 -58.380  1.00  0.00    -0.272 OA
BRANCH   8  11
HETATM   11  C   UNL     1     -37.958  39.803 -59.043  1.00  0.00     0.725 A 
HETATM   12  N   UNL     1     -36.910  39.936 -59.916  1.00  0.00    -0.106 N 
HETATM   13  N   UNL     1     -37.102  39.226 -61.039  1.00  0.00    -0.144 NA
HETATM   14  H   UNL     1     -36.060  40.476 -59.812  1.00  0.00     0.208 HD
HETATM   15  C   UNL     1     -38.291  38.663 -60.789  1.00  0.00     0.166 A 
HETATM   16  N   UNL     1     -38.839  38.995 -59.579  1.00  0.00    -0.046 NA
BRANCH  15  17
HETATM   17  C   UNL     1     -38.968  37.737 -61.736  1.00  0.00     0.087 C 
BRANCH  17  18
HETATM   18  C   UNL     1     -40.478  38.001 -61.878  1.00  0.00    -0.016 C 
HETATM   19  C   UNL     1     -41.307  37.086 -60.972  1.00  0.00     0.010 C 
HETATM   20  C   UNL     1     -40.905  37.808 -63.334  1.00  0.00     0.010 C 
ENDBRANCH  17  18
ENDBRANCH  15  17
ENDBRANCH   8  11
ENDBRANCH   1   7
BRANCH   3  21
HETATM   21  C   UNL     1     -34.590  40.937 -54.262  1.00  0.00     0.165 A 
HETATM   22  N   UNL     1     -33.532  40.755 -55.060  1.00  0.00    -0.155 NA
HETATM   23  N   UNL     1     -32.539  40.391 -54.244  1.00  0.00    -0.275 N 
HETATM   24  H   UNL     1     -31.641  40.161 -54.657  1.00  0.00     0.189 HD
HETATM   25  C   UNL     1     -32.873  40.392 -52.922  1.00  0.00     0.065 A 
HETATM   26  C   UNL     1     -34.220  40.747 -52.887  1.00  0.00     0.040 A 
HETATM   27  C   UNL     1     -32.115  40.103 -51.780  1.00  0.00     0.051 A 
HETATM   28  C   UNL     1     -34.854  40.802 -51.625  1.00  0.00     0.019 A 
HETATM   29  C   UNL     1     -34.117  40.521 -50.466  1.00  0.00     0.020 A 
HETATM   30  C   UNL     1     -32.770  40.179 -50.550  1.00  0.00     0.013 A 
HETATM   31 BR   UNL     1     -31.805  39.800 -48.966  1.00  0.00    -0.051 Br
ENDBRANCH   3  21
TORSDOF 5
ENDMDL
MODEL 8
REMARK VINA RESULT:      -7.7      2.794      3.605
REMARK  5 active torsions:
REMARK  status: ('A' for Active; 'I' for Inactive)
REMARK    1  A    between atoms: C_2  and  C_3 
REMARK    2  A    between atoms: C_3  and  C_4 
REMARK    3  A    between atoms: C_8  and  N_9 
REMARK       I    between atoms: N_9  and  C_10 
REMARK    4  A    between atoms: C_10  and  C_11 
REMARK    5  A    between atoms: N_13  and  C_14 
ROOT
HETATM    1  C   UNL     1     -41.617  59.048 -52.451  1.00  0.00     0.106 C 
HETATM    2  C   UNL     1     -40.654  57.967 -52.888  1.00  0.00     0.148 C 
HETATM    3  N   UNL     1     -41.491  56.812 -53.085  1.00  0.00    -0.299 N 
HETATM    4  C   UNL     1     -42.700  56.932 -52.380  1.00  0.00     0.226 C 
HETATM    5  O   UNL     1     -43.627  56.145 -52.269  1.00  0.00    -0.273 OA
HETATM    6  C   UNL     1     -42.723  58.296 -51.731  1.00  0.00     0.119 C 
ENDROOT
BRANCH   1   7
HETATM    7  C   UNL     1     -42.133  59.875 -53.628  1.00  0.00     0.242 C 
HETATM    8  N   UNL     1     -41.689  59.463 -54.871  1.00  0.00    -0.156 N 
HETATM    9  H   UNL     1     -41.036  58.694 -54.959  1.00  0.00     0.187 HD
HETATM   10  O   UNL     1     -42.874  60.828 -53.396  1.00  0.00    -0.272 OA
BRANCH   8  11
HETATM   11  C   UNL     1     -42.098  60.079 -56.029  1.00  0.00     0.725 A 
HETATM   12  N   UNL     1     -43.382  60.528 -56.198  1.00  0.00    -0.106 N 
HETATM   13  N   UNL     1     -43.559  61.088 -57.406  1.00  0.00    -0.144 NA
HETATM   14  H   UNL     1     -44.161  60.487 -55.553  1.00  0.00     0.208 HD
HETATM   15  C   UNL     1     -42.334  60.964 -57.931  1.00  0.00     0.166 A 
HETATM   16  N   UNL     1     -41.421  60.353 -57.116  1.00  0.00    -0.046 NA
BRANCH  15  17
HETATM   17  C   UNL     1     -41.977  61.458 -59.288  1.00  0.00     0.087 C 
BRANCH  17  18
HETATM   18  C   UNL     1     -42.540  60.588 -60.426  1.00  0.00    -0.016 C 
HETATM   19  C   UNL     1     -42.090  59.129 -60.308  1.00  0.00     0.010 C 
HETATM   20  C   UNL     1     -42.103  61.154 -61.778  1.00  0.00     0.010 C 
ENDBRANCH  17  18
ENDBRANCH  15  17
ENDBRANCH   8  11
ENDBRANCH   1   7
BRANCH   3  21
HETATM   21  C   UNL     1     -41.154  55.682 -53.827  1.00  0.00     0.165 A 
HETATM   22  N   UNL     1     -41.093  55.705 -55.162  1.00  0.00    -0.155 NA
HETATM   23  N   UNL     1     -40.761  54.460 -55.517  1.00  0.00    -0.275 N 
HETATM   24  H   UNL     1     -40.701  54.246 -56.507  1.00  0.00     0.189 HD
HETATM   25  C   UNL     1     -40.527  53.623 -54.466  1.00  0.00     0.065 A 
HETATM   26  C   UNL     1     -40.775  54.388 -53.328  1.00  0.00     0.040 A 
HETATM   27  C   UNL     1     -40.137  52.279 -54.429  1.00  0.00     0.051 A 
HETATM   28  C   UNL     1     -40.638  53.762 -52.070  1.00  0.00     0.019 A 
HETATM   29  C   UNL     1     -40.245  52.417 -52.004  1.00  0.00     0.020 A 
HETATM   30  C   UNL     1     -39.999  51.695 -53.168  1.00  0.00     0.013 A 
HETATM   31 BR   UNL     1     -39.476  49.880 -53.045  1.00  0.00    -0.051 Br
ENDBRANCH   3  21
TORSDOF 5
ENDMDL
MODEL 9
REMARK VINA RESULT:      -7.6      2.803      7.045
REMARK  5 active torsions:
REMARK  status: ('A' for Active; 'I' for Inactive)
REMARK    1  A    between atoms: C_2  and  C_3 
REMARK    2  A    between atoms: C_3  and  C_4 
REMARK    3  A    between atoms: C_8  and  N_9 
REMARK       I    between atoms: N_9  and  C_10 
REMARK    4  A    between atoms: C_10  and  C_11 
REMARK    5  A    between atoms: N_13  and  C_14 
ROOT
HETATM    1  C   UNL     1     -43.541  57.533 -51.228  1.00  0.00     0.106 C 
HETATM    2  C   UNL     1     -44.531  57.401 -52.364  1.00  0.00     0.148 C 
HETATM    3  N   UNL     1     -44.144  58.437 -53.287  1.00  0.00    -0.299 N 
HETATM    4  C   UNL     1     -43.394  59.437 -52.646  1.00  0.00     0.226 C 
HETATM    5  O   UNL     1     -42.939  60.481 -53.085  1.00  0.00    -0.273 OA
HETATM    6  C   UNL     1     -43.184  59.010 -51.212  1.00  0.00     0.119 C 
ENDROOT
BRANCH   1   7
HETATM    7  C   UNL     1     -42.321  56.632 -51.414  1.00  0.00     0.242 C 
HETATM    8  N   UNL     1     -42.610  55.299 -51.648  1.00  0.00    -0.156 N 
HETATM    9  H   UNL     1     -43.567  54.969 -51.647  1.00  0.00     0.187 HD
HETATM   10  O   UNL     1     -41.202  57.133 -51.332  1.00  0.00    -0.272 OA
BRANCH   8  11
HETATM   11  C   UNL     1     -41.622  54.372 -51.877  1.00  0.00     0.725 A 
HETATM   12  N   UNL     1     -40.733  54.003 -50.902  1.00  0.00    -0.106 N 
HETATM   13  N   UNL     1     -39.853  53.092 -51.349  1.00  0.00    -0.144 NA
HETATM   14  H   UNL     1     -40.671  54.321 -49.943  1.00  0.00     0.208 HD
HETATM   15  C   UNL     1     -40.266  52.931 -52.612  1.00  0.00     0.166 A 
HETATM   16  N   UNL     1     -41.344  53.697 -52.964  1.00  0.00    -0.046 NA
BRANCH  15  17
HETATM   17  C   UNL     1     -39.622  51.986 -53.564  1.00  0.00     0.087 C 
BRANCH  17  18
HETATM   18  C   UNL     1     -40.175  50.552 -53.473  1.00  0.00    -0.016 C 
HETATM   19  C   UNL     1     -39.587  49.786 -52.284  1.00  0.00     0.010 C 
HETATM   20  C   UNL     1     -39.876  49.797 -54.770  1.00  0.00     0.010 C 
ENDBRANCH  17  18
ENDBRANCH  15  17
ENDBRANCH   8  11
ENDBRANCH   1   7
BRANCH   3  21
HETATM   21  C   UNL     1     -44.497  58.499 -54.633  1.00  0.00     0.165 A 
HETATM   22  N   UNL     1     -45.316  59.443 -55.107  1.00  0.00    -0.155 NA
HETATM   23  N   UNL     1     -45.433  59.179 -56.411  1.00  0.00    -0.275 N 
HETATM   24  H   UNL     1     -46.055  59.762 -56.963  1.00  0.00     0.189 HD
HETATM   25  C   UNL     1     -44.667  58.136 -56.842  1.00  0.00     0.065 A 
HETATM   26  C   UNL     1     -44.031  57.655 -55.700  1.00  0.00     0.040 A 
HETATM   27  C   UNL     1     -44.498  57.582 -58.117  1.00  0.00     0.051 A 
HETATM   28  C   UNL     1     -43.179  56.538 -55.840  1.00  0.00     0.019 A 
HETATM   29  C   UNL     1     -42.989  55.966 -57.107  1.00  0.00     0.020 A 
HETATM   30  C   UNL     1     -43.639  56.487 -58.222  1.00  0.00     0.013 A 
HETATM   31 BR   UNL     1     -43.366  55.689 -59.917  1.00  0.00    -0.051 Br
ENDBRANCH   3  21
TORSDOF 5
ENDMDL
MODEL 10
REMARK VINA RESULT:      -7.6      2.077      2.183
REMARK  5 active torsions:
REMARK  status: ('A' for Active; 'I' for Inactive)
REMARK    1  A    between atoms: C_2  and  C_3 
REMARK    2  A    between atoms: C_3  and  C_4 
REMARK    3  A    between atoms: C_8  and  N_9 
REMARK       I    between atoms: N_9  and  C_10 
REMARK    4  A    between atoms: C_10  and  C_11 
REMARK    5  A    between atoms: N_13  and  C_14 
ROOT
HETATM    1  C   UNL     1     -43.294  57.899 -51.753  1.00  0.00     0.106 C 
HETATM    2  C   UNL     1     -41.950  57.302 -51.402  1.00  0.00     0.148 C 
HETATM    3  N   UNL     1     -42.241  55.917 -51.133  1.00  0.00    -0.299 N 
HETATM    4  C   UNL     1     -43.598  55.733 -50.817  1.00  0.00     0.226 C 
HETATM    5  O   UNL     1     -44.199  54.722 -50.491  1.00  0.00    -0.273 OA
HETATM    6  C   UNL     1     -44.291  57.067 -50.965  1.00  0.00     0.119 C 
ENDROOT
BRANCH   1   7
HETATM    7  C   UNL     1     -43.563  57.874 -53.257  1.00  0.00     0.242 C 
HETATM    8  N   UNL     1     -44.703  58.550 -53.658  1.00  0.00    -0.156 N 
HETATM    9  H   UNL     1     -45.316  58.980 -52.976  1.00  0.00     0.187 HD
HETATM   10  O   UNL     1     -42.782  57.266 -53.985  1.00  0.00    -0.272 OA
BRANCH   8  11
HETATM   11  C   UNL     1     -45.057  58.654 -54.981  1.00  0.00     0.725 A 
HETATM   12  N   UNL     1     -45.451  57.566 -55.716  1.00  0.00    -0.106 N 
HETATM   13  N   UNL     1     -45.742  57.899 -56.983  1.00  0.00    -0.144 NA
HETATM   14  H   UNL     1     -45.541  56.601 -55.425  1.00  0.00     0.208 HD
HETATM   15  C   UNL     1     -45.520  59.219 -56.962  1.00  0.00     0.166 A 
HETATM   16  N   UNL     1     -45.102  59.710 -55.754  1.00  0.00    -0.046 NA
BRANCH  15  17
HETATM   17  C   UNL     1     -45.720  60.097 -58.146  1.00  0.00     0.087 C 
BRANCH  17  18
HETATM   18  C   UNL     1     -46.130  59.330 -59.416  1.00  0.00    -0.016 C 
HETATM   19  C   UNL     1     -45.193  59.623 -60.591  1.00  0.00     0.010 C 
HETATM   20  C   UNL     1     -47.566  59.691 -59.801  1.00  0.00     0.010 C 
ENDBRANCH  17  18
ENDBRANCH  15  17
ENDBRANCH   8  11
ENDBRANCH   1   7
BRANCH   3  21
HETATM   21  C   UNL     1     -41.313  54.879 -51.126  1.00  0.00     0.165 A 
HETATM   22  N   UNL     1     -40.480  54.682 -50.100  1.00  0.00    -0.155 NA
HETATM   23  N   UNL     1     -39.741  53.625 -50.449  1.00  0.00    -0.275 N 
HETATM   24  H   UNL     1     -39.005  53.327 -49.817  1.00  0.00     0.189 HD
HETATM   25  C   UNL     1     -40.098  53.062 -51.639  1.00  0.00     0.065 A 
HETATM   26  C   UNL     1     -41.133  53.859 -52.123  1.00  0.00     0.040 A 
HETATM   27  C   UNL     1     -39.592  51.947 -52.319  1.00  0.00     0.051 A 
HETATM   28  C   UNL     1     -41.691  53.525 -53.377  1.00  0.00     0.019 A 
HETATM   29  C   UNL     1     -41.205  52.410 -54.077  1.00  0.00     0.020 A 
HETATM   30  C   UNL     1     -40.174  51.638 -53.549  1.00  0.00     0.013 A 
HETATM   31 BR   UNL     1     -39.538  50.144 -54.521  1.00  0.00    -0.051 Br
ENDBRANCH   3  21
TORSDOF 5
ENDMDL
