MODEL 1
REMARK VINA RESULT:      -8.7      0.000      0.000
REMARK  7 active torsions:
REMARK  status: ('A' for Active; 'I' for Inactive)
REMARK    1  A    between atoms: C_2  and  C_3 
REMARK    2  A    between atoms: C_3  and  N_4 
REMARK       I    between atoms: N_4  and  C_5 
REMARK    3  A    between atoms: C_5  and  C_6 
REMARK    4  A    between atoms: C_7  and  N_8 
REMARK    5  A    between atoms: N_9  and  N_10 
REMARK    6  A    between atoms: C_11  and  C_12 
REMARK    7  A    between atoms: C_13  and  O_14 
ROOT
HETATM    1  C   UNL     1     -42.354  58.749 -56.377  1.00  0.00     0.104 C 
HETATM    2  C   UNL     1     -42.040  58.053 -55.216  1.00  0.00     0.123 C 
HETATM    3  N   UNL     1     -41.987  56.699 -55.529  1.00  0.00    -0.202 N 
HETATM    4  C   UNL     1     -42.670  56.514 -56.719  1.00  0.00     0.183 A 
HETATM    5  C   UNL     1     -42.878  57.776 -57.271  1.00  0.00     0.124 A 
HETATM    6  N   UNL     1     -43.461  57.916 -58.489  1.00  0.00    -0.242 NA
HETATM    7  C   UNL     1     -43.867  56.775 -59.063  1.00  0.00     0.086 A 
HETATM    8  C   UNL     1     -43.663  55.503 -58.468  1.00  0.00     0.088 A 
HETATM    9  N   UNL     1     -43.039  55.340 -57.289  1.00  0.00    -0.225 NA
HETATM   10  C   UNL     1     -44.520  56.851 -60.286  1.00  0.00     0.034 A 
HETATM   11  C   UNL     1     -44.983  55.708 -60.939  1.00  0.00     0.002 A 
HETATM   12  C   UNL     1     -44.785  54.463 -60.359  1.00  0.00     0.002 A 
HETATM   13  C   UNL     1     -44.126  54.373 -59.133  1.00  0.00     0.034 A 
ENDROOT
BRANCH   3  14
HETATM   14  N   UNL     1     -41.272  55.839 -54.724  1.00  0.00    -0.176 NA
HETATM   15  C   UNL     1     -41.938  54.902 -54.129  1.00  0.00     0.153 C 
BRANCH  15  16
HETATM   16  C   UNL     1     -41.213  53.815 -53.427  1.00  0.00     0.017 A 
HETATM   17  C   UNL     1     -40.721  53.976 -52.124  1.00  0.00     0.077 A 
HETATM   18  C   UNL     1     -39.961  52.976 -51.523  1.00  0.00     0.039 A 
HETATM   19  C   UNL     1     -39.683  51.805 -52.227  1.00  0.00     0.022 A 
HETATM   20  C   UNL     1     -40.172  51.643 -53.525  1.00  0.00     0.012 A 
HETATM   21 BR   UNL     1     -39.773  50.061 -54.480  1.00  0.00    -0.051 Br
HETATM   22  C   UNL     1     -40.936  52.641 -54.133  1.00  0.00     0.034 A 
BRANCH  17  23
HETATM   23  O   UNL     1     -40.920  55.114 -51.389  1.00  0.00    -0.360 OA
HETATM   24  H   UNL     1     -40.852  54.846 -50.447  1.00  0.00     0.217 HD
ENDBRANCH  17  23
ENDBRANCH  15  16
ENDBRANCH   3  14
BRANCH   2  25
HETATM   25  N   UNL     1     -41.677  58.503 -53.974  1.00  0.00    -0.286 NA
HETATM   26  H   UNL     1     -42.220  58.159 -53.179  1.00  0.00     0.125 HD
HETATM   27  H   UNL     1     -40.680  58.443 -53.750  1.00  0.00     0.125 HD
ENDBRANCH   2  25
BRANCH   1  28
HETATM   28  C   UNL     1     -42.122  60.169 -56.628  1.00  0.00     0.257 C 
HETATM   29  N   UNL     1     -41.534  60.412 -57.858  1.00  0.00    -0.352 N 
HETATM   30  H   UNL     1     -41.408  59.579 -58.425  1.00  0.00     0.163 HD
HETATM   31  O   UNL     1     -42.511  61.059 -55.884  1.00  0.00    -0.267 OA
BRANCH  29  32
HETATM   32  C   UNL     1     -41.692  61.665 -58.581  1.00  0.00     0.080 C 
HETATM   33  C   UNL     1     -40.346  62.341 -58.844  1.00  0.00     0.032 C 
BRANCH  32  34
HETATM   34  C   UNL     1     -42.418  61.421 -59.920  1.00  0.00     0.020 C 
HETATM   35  C   UNL     1     -41.896  60.208 -60.685  1.00  0.00     0.007 C 
ENDBRANCH  32  34
ENDBRANCH  29  32
ENDBRANCH   1  28
TORSDOF 7
ENDMDL
MODEL 2
REMARK VINA RESULT:      -8.3      4.518      7.054
REMARK  7 active torsions:
REMARK  status: ('A' for Active; 'I' for Inactive)
REMARK    1  A    between atoms: C_2  and  C_3 
REMARK    2  A    between atoms: C_3  and  N_4 
REMARK       I    between atoms: N_4  and  C_5 
REMARK    3  A    between atoms: C_5  and  C_6 
REMARK    4  A    between atoms: C_7  and  N_8 
REMARK    5  A    between atoms: N_9  and  N_10 
REMARK    6  A    between atoms: C_11  and  C_12 
REMARK    7  A    between atoms: C_13  and  O_14 
ROOT
HETATM    1  C   UNL     1     -43.718  57.242 -55.577  1.00  0.00     0.104 C 
HETATM    2  C   UNL     1     -44.603  57.825 -54.679  1.00  0.00     0.123 C 
HETATM    3  N   UNL     1     -44.165  57.530 -53.393  1.00  0.00    -0.202 N 
HETATM    4  C   UNL     1     -43.308  56.446 -53.477  1.00  0.00     0.183 A 
HETATM    5  C   UNL     1     -42.998  56.274 -54.825  1.00  0.00     0.124 A 
HETATM    6  N   UNL     1     -42.109  55.328 -55.220  1.00  0.00    -0.242 NA
HETATM    7  C   UNL     1     -41.624  54.554 -54.240  1.00  0.00     0.086 A 
HETATM    8  C   UNL     1     -41.974  54.736 -52.876  1.00  0.00     0.088 A 
HETATM    9  N   UNL     1     -42.809  55.703 -52.460  1.00  0.00    -0.225 NA
HETATM   10  C   UNL     1     -40.750  53.530 -54.581  1.00  0.00     0.034 A 
HETATM   11  C   UNL     1     -40.213  52.676 -53.617  1.00  0.00     0.002 A 
HETATM   12  C   UNL     1     -40.554  52.851 -52.284  1.00  0.00     0.002 A 
HETATM   13  C   UNL     1     -41.427  53.880 -51.927  1.00  0.00     0.034 A 
ENDROOT
BRANCH   3  14
HETATM   14  N   UNL     1     -44.556  58.326 -52.339  1.00  0.00    -0.176 NA
HETATM   15  C   UNL     1     -43.650  59.084 -51.808  1.00  0.00     0.153 C 
BRANCH  15  16
HETATM   16  C   UNL     1     -44.041  60.121 -50.823  1.00  0.00     0.017 A 
HETATM   17  C   UNL     1     -45.124  59.940 -49.950  1.00  0.00     0.077 A 
HETATM   18  C   UNL     1     -45.531  60.966 -49.101  1.00  0.00     0.039 A 
HETATM   19  C   UNL     1     -44.858  62.187 -49.123  1.00  0.00     0.022 A 
HETATM   20  C   UNL     1     -43.780  62.369 -49.992  1.00  0.00     0.012 A 
HETATM   21 BR   UNL     1     -42.886  64.034 -50.031  1.00  0.00    -0.051 Br
HETATM   22  C   UNL     1     -43.366  61.344 -50.845  1.00  0.00     0.034 A 
BRANCH  17  23
HETATM   23  O   UNL     1     -45.856  58.784 -49.902  1.00  0.00    -0.360 OA
HETATM   24  H   UNL     1     -46.457  58.872 -49.131  1.00  0.00     0.217 HD
ENDBRANCH  17  23
ENDBRANCH  15  16
ENDBRANCH   3  14
BRANCH   2  25
HETATM   25  N   UNL     1     -45.654  58.680 -54.886  1.00  0.00    -0.286 NA
HETATM   26  H   UNL     1     -45.982  59.216 -54.079  1.00  0.00     0.125 HD
HETATM   27  H   UNL     1     -45.571  59.305 -55.692  1.00  0.00     0.125 HD
ENDBRANCH   2  25
BRANCH   1  28
HETATM   28  C   UNL     1     -43.535  57.608 -56.979  1.00  0.00     0.257 C 
HETATM   29  N   UNL     1     -43.195  56.531 -57.780  1.00  0.00    -0.352 N 
HETATM   30  H   UNL     1     -43.183  55.642 -57.290  1.00  0.00     0.163 HD
HETATM   31  O   UNL     1     -43.771  58.724 -57.423  1.00  0.00    -0.267 OA
BRANCH  29  32
HETATM   32  C   UNL     1     -43.486  56.477 -59.206  1.00  0.00     0.080 C 
HETATM   33  C   UNL     1     -42.263  56.839 -60.047  1.00  0.00     0.032 C 
BRANCH  32  34
HETATM   34  C   UNL     1     -43.983  55.070 -59.595  1.00  0.00     0.020 C 
HETATM   35  C   UNL     1     -44.914  55.064 -60.804  1.00  0.00     0.007 C 
ENDBRANCH  32  34
ENDBRANCH  29  32
ENDBRANCH   1  28
TORSDOF 7
ENDMDL
MODEL 3
REMARK VINA RESULT:      -8.2      2.563      4.042
REMARK  7 active torsions:
REMARK  status: ('A' for Active; 'I' for Inactive)
REMARK    1  A    between atoms: C_2  and  C_3 
REMARK    2  A    between atoms: C_3  and  N_4 
REMARK       I    between atoms: N_4  and  C_5 
REMARK    3  A    between atoms: C_5  and  C_6 
REMARK    4  A    between atoms: C_7  and  N_8 
REMARK    5  A    between atoms: N_9  and  N_10 
REMARK    6  A    between atoms: C_11  and  C_12 
REMARK    7  A    between atoms: C_13  and  O_14 
ROOT
HETATM    1  C   UNL     1     -43.946  58.177 -53.876  1.00  0.00     0.104 C 
HETATM    2  C   UNL     1     -43.969  56.924 -53.275  1.00  0.00     0.123 C 
HETATM    3  N   UNL     1     -43.380  56.019 -54.152  1.00  0.00    -0.202 N 
HETATM    4  C   UNL     1     -43.393  56.584 -55.415  1.00  0.00     0.183 A 
HETATM    5  C   UNL     1     -43.714  57.931 -55.256  1.00  0.00     0.124 A 
HETATM    6  N   UNL     1     -43.728  58.773 -56.320  1.00  0.00    -0.242 NA
HETATM    7  C   UNL     1     -43.483  58.201 -57.507  1.00  0.00     0.086 A 
HETATM    8  C   UNL     1     -43.181  56.821 -57.644  1.00  0.00     0.088 A 
HETATM    9  N   UNL     1     -43.108  55.982 -56.595  1.00  0.00    -0.225 NA
HETATM   10  C   UNL     1     -43.536  58.996 -58.644  1.00  0.00     0.034 A 
HETATM   11  C   UNL     1     -43.303  58.469 -59.915  1.00  0.00     0.002 A 
HETATM   12  C   UNL     1     -43.009  57.120 -60.052  1.00  0.00     0.002 A 
HETATM   13  C   UNL     1     -42.948  56.312 -58.916  1.00  0.00     0.034 A 
ENDROOT
BRANCH   3  14
HETATM   14  N   UNL     1     -42.858  54.840 -53.666  1.00  0.00    -0.176 NA
HETATM   15  C   UNL     1     -41.605  54.614 -53.896  1.00  0.00     0.153 C 
BRANCH  15  16
HETATM   16  C   UNL     1     -40.925  53.480 -53.222  1.00  0.00     0.017 A 
HETATM   17  C   UNL     1     -40.497  53.563 -51.889  1.00  0.00     0.077 A 
HETATM   18  C   UNL     1     -39.776  52.521 -51.309  1.00  0.00     0.039 A 
HETATM   19  C   UNL     1     -39.472  51.389 -52.064  1.00  0.00     0.022 A 
HETATM   20  C   UNL     1     -39.898  51.306 -53.392  1.00  0.00     0.012 A 
HETATM   21 BR   UNL     1     -39.465  49.777 -54.415  1.00  0.00    -0.051 Br
HETATM   22  C   UNL     1     -40.622  52.346 -53.979  1.00  0.00     0.034 A 
BRANCH  17  23
HETATM   23  O   UNL     1     -40.723  54.659 -51.101  1.00  0.00    -0.360 OA
HETATM   24  H   UNL     1     -40.404  54.422 -50.204  1.00  0.00     0.217 HD
ENDBRANCH  17  23
ENDBRANCH  15  16
ENDBRANCH   3  14
BRANCH   2  25
HETATM   25  N   UNL     1     -44.329  56.545 -52.009  1.00  0.00    -0.286 NA
HETATM   26  H   UNL     1     -43.990  57.125 -51.237  1.00  0.00     0.125 HD
HETATM   27  H   UNL     1     -45.323  56.346 -51.867  1.00  0.00     0.125 HD
ENDBRANCH   2  25
BRANCH   1  28
HETATM   28  C   UNL     1     -44.070  59.466 -53.201  1.00  0.00     0.257 C 
HETATM   29  N   UNL     1     -43.634  59.433 -51.887  1.00  0.00    -0.352 N 
HETATM   30  H   UNL     1     -43.239  58.541 -51.606  1.00  0.00     0.163 HD
HETATM   31  O   UNL     1     -44.413  60.496 -53.767  1.00  0.00    -0.267 OA
BRANCH  29  32
HETATM   32  C   UNL     1     -43.135  60.607 -51.185  1.00  0.00     0.080 C 
HETATM   33  C   UNL     1     -44.121  61.093 -50.122  1.00  0.00     0.032 C 
BRANCH  32  34
HETATM   34  C   UNL     1     -41.776  60.296 -50.525  1.00  0.00     0.020 C 
HETATM   35  C   UNL     1     -41.323  58.851 -50.712  1.00  0.00     0.007 C 
ENDBRANCH  32  34
ENDBRANCH  29  32
ENDBRANCH   1  28
TORSDOF 7
ENDMDL
MODEL 4
REMARK VINA RESULT:      -8.2      3.369      7.597
REMARK  7 active torsions:
REMARK  status: ('A' for Active; 'I' for Inactive)
REMARK    1  A    between atoms: C_2  and  C_3 
REMARK    2  A    between atoms: C_3  and  N_4 
REMARK       I    between atoms: N_4  and  C_5 
REMARK    3  A    between atoms: C_5  and  C_6 
REMARK    4  A    between atoms: C_7  and  N_8 
REMARK    5  A    between atoms: N_9  and  N_10 
REMARK    6  A    between atoms: C_11  and  C_12 
REMARK    7  A    between atoms: C_13  and  O_14 
ROOT
HETATM    1  C   UNL     1     -41.252  55.691 -52.734  1.00  0.00     0.104 C 
HETATM    2  C   UNL     1     -41.178  56.137 -54.047  1.00  0.00     0.123 C 
HETATM    3  N   UNL     1     -41.150  55.021 -54.878  1.00  0.00    -0.202 N 
HETATM    4  C   UNL     1     -40.774  53.933 -54.110  1.00  0.00     0.183 A 
HETATM    5  C   UNL     1     -40.862  54.324 -52.775  1.00  0.00     0.124 A 
HETATM    6  N   UNL     1     -40.627  53.440 -51.773  1.00  0.00    -0.242 NA
HETATM    7  C   UNL     1     -40.248  52.217 -52.166  1.00  0.00     0.086 A 
HETATM    8  C   UNL     1     -40.145  51.849 -53.534  1.00  0.00     0.088 A 
HETATM    9  N   UNL     1     -40.427  52.695 -54.540  1.00  0.00    -0.225 NA
HETATM   10  C   UNL     1     -39.940  51.278 -51.190  1.00  0.00     0.034 A 
HETATM   11  C   UNL     1     -39.527  49.987 -51.523  1.00  0.00     0.002 A 
HETATM   12  C   UNL     1     -39.424  49.626 -52.858  1.00  0.00     0.002 A 
HETATM   13  C   UNL     1     -39.737  50.559 -53.849  1.00  0.00     0.034 A 
ENDROOT
BRANCH   3  14
HETATM   14  N   UNL     1     -41.532  55.141 -56.196  1.00  0.00    -0.176 NA
HETATM   15  C   UNL     1     -42.797  55.283 -56.430  1.00  0.00     0.153 C 
BRANCH  15  16
HETATM   16  C   UNL     1     -43.259  55.636 -57.795  1.00  0.00     0.017 A 
HETATM   17  C   UNL     1     -43.976  54.729 -58.589  1.00  0.00     0.077 A 
HETATM   18  C   UNL     1     -44.315  55.049 -59.901  1.00  0.00     0.039 A 
HETATM   19  C   UNL     1     -43.933  56.281 -60.432  1.00  0.00     0.022 A 
HETATM   20  C   UNL     1     -43.219  57.184 -59.642  1.00  0.00     0.012 A 
HETATM   21 BR   UNL     1     -42.686  58.844 -60.374  1.00  0.00    -0.051 Br
HETATM   22  C   UNL     1     -42.877  56.871 -58.325  1.00  0.00     0.034 A 
BRANCH  17  23
HETATM   23  O   UNL     1     -44.350  53.488 -58.149  1.00  0.00    -0.360 OA
HETATM   24  H   UNL     1     -43.592  53.142 -57.629  1.00  0.00     0.217 HD
ENDBRANCH  17  23
ENDBRANCH  15  16
ENDBRANCH   3  14
BRANCH   2  25
HETATM   25  N   UNL     1     -41.265  57.400 -54.570  1.00  0.00    -0.286 NA
HETATM   26  H   UNL     1     -41.124  57.496 -55.578  1.00  0.00     0.125 HD
HETATM   27  H   UNL     1     -42.087  57.944 -54.293  1.00  0.00     0.125 HD
ENDBRANCH   2  25
BRANCH   1  28
HETATM   28  C   UNL     1     -41.704  56.462 -51.579  1.00  0.00     0.257 C 
HETATM   29  N   UNL     1     -41.125  57.718 -51.506  1.00  0.00    -0.352 N 
HETATM   30  H   UNL     1     -40.523  57.940 -52.294  1.00  0.00     0.163 HD
HETATM   31  O   UNL     1     -42.588  56.087 -50.819  1.00  0.00    -0.267 OA
BRANCH  29  32
HETATM   32  C   UNL     1     -41.758  58.848 -50.842  1.00  0.00     0.080 C 
HETATM   33  C   UNL     1     -40.756  59.648 -50.009  1.00  0.00     0.032 C 
BRANCH  32  34
HETATM   34  C   UNL     1     -42.422  59.775 -51.881  1.00  0.00     0.020 C 
HETATM   35  C   UNL     1     -43.848  59.368 -52.238  1.00  0.00     0.007 C 
ENDBRANCH  32  34
ENDBRANCH  29  32
ENDBRANCH   1  28
TORSDOF 7
ENDMDL
MODEL 5
REMARK VINA RESULT:      -8.1      3.603      8.860
REMARK  7 active torsions:
REMARK  status: ('A' for Active; 'I' for Inactive)
REMARK    1  A    between atoms: C_2  and  C_3 
REMARK    2  A    between atoms: C_3  and  N_4 
REMARK       I    between atoms: N_4  and  C_5 
REMARK    3  A    between atoms: C_5  and  C_6 
REMARK    4  A    between atoms: C_7  and  N_8 
REMARK    5  A    between atoms: N_9  and  N_10 
REMARK    6  A    between atoms: C_11  and  C_12 
REMARK    7  A    between atoms: C_13  and  O_14 
ROOT
HETATM    1  C   UNL     1     -41.975  54.983 -53.962  1.00  0.00     0.104 C 
HETATM    2  C   UNL     1     -42.699  55.309 -55.103  1.00  0.00     0.123 C 
HETATM    3  N   UNL     1     -42.663  56.692 -55.252  1.00  0.00    -0.202 N 
HETATM    4  C   UNL     1     -42.317  57.240 -54.029  1.00  0.00     0.183 A 
HETATM    5  C   UNL     1     -41.859  56.195 -53.228  1.00  0.00     0.124 A 
HETATM    6  N   UNL     1     -41.372  56.433 -51.984  1.00  0.00    -0.242 NA
HETATM    7  C   UNL     1     -41.431  57.709 -51.581  1.00  0.00     0.086 A 
HETATM    8  C   UNL     1     -41.922  58.753 -52.409  1.00  0.00     0.088 A 
HETATM    9  N   UNL     1     -42.358  58.544 -53.664  1.00  0.00    -0.225 NA
HETATM   10  C   UNL     1     -40.997  58.015 -50.297  1.00  0.00     0.034 A 
HETATM   11  C   UNL     1     -41.039  59.319 -49.803  1.00  0.00     0.002 A 
HETATM   12  C   UNL     1     -41.520  60.340 -50.610  1.00  0.00     0.002 A 
HETATM   13  C   UNL     1     -41.953  60.047 -51.904  1.00  0.00     0.034 A 
ENDROOT
BRANCH   3  14
HETATM   14  N   UNL     1     -42.886  57.251 -56.491  1.00  0.00    -0.176 NA
HETATM   15  C   UNL     1     -42.052  58.159 -56.884  1.00  0.00     0.153 C 
BRANCH  15  16
HETATM   16  C   UNL     1     -42.097  58.646 -58.285  1.00  0.00     0.017 A 
HETATM   17  C   UNL     1     -42.134  57.762 -59.373  1.00  0.00     0.077 A 
HETATM   18  C   UNL     1     -42.080  58.241 -60.679  1.00  0.00     0.039 A 
HETATM   19  C   UNL     1     -41.982  59.613 -60.906  1.00  0.00     0.022 A 
HETATM   20  C   UNL     1     -41.946  60.495 -59.824  1.00  0.00     0.012 A 
HETATM   21 BR   UNL     1     -41.793  62.352 -60.139  1.00  0.00    -0.051 Br
HETATM   22  C   UNL     1     -42.001  60.021 -58.512  1.00  0.00     0.034 A 
BRANCH  17  23
HETATM   23  O   UNL     1     -42.189  56.402 -59.225  1.00  0.00    -0.360 OA
HETATM   24  H   UNL     1     -42.770  56.233 -58.452  1.00  0.00     0.217 HD
ENDBRANCH  17  23
ENDBRANCH  15  16
ENDBRANCH   3  14
BRANCH   2  25
HETATM   25  N   UNL     1     -43.257  54.512 -56.066  1.00  0.00    -0.286 NA
HETATM   26  H   UNL     1     -44.266  54.351 -56.008  1.00  0.00     0.125 HD
HETATM   27  H   UNL     1     -43.008  54.737 -57.033  1.00  0.00     0.125 HD
ENDBRANCH   2  25
BRANCH   1  28
HETATM   28  C   UNL     1     -41.405  53.678 -53.639  1.00  0.00     0.257 C 
HETATM   29  N   UNL     1     -40.676  53.683 -52.461  1.00  0.00    -0.352 N 
HETATM   30  H   UNL     1     -40.697  54.570 -51.968  1.00  0.00     0.163 HD
HETATM   31  O   UNL     1     -41.641  52.660 -54.276  1.00  0.00    -0.267 OA
BRANCH  29  32
HETATM   32  C   UNL     1     -40.482  52.495 -51.641  1.00  0.00     0.080 C 
HETATM   33  C   UNL     1     -39.202  51.751 -52.018  1.00  0.00     0.032 C 
BRANCH  32  34
HETATM   34  C   UNL     1     -40.437  52.880 -50.149  1.00  0.00     0.020 C 
HETATM   35  C   UNL     1     -39.668  54.169 -49.873  1.00  0.00     0.007 C 
ENDBRANCH  32  34
ENDBRANCH  29  32
ENDBRANCH   1  28
TORSDOF 7
ENDMDL
MODEL 6
REMARK VINA RESULT:      -7.9      3.491      7.431
REMARK  7 active torsions:
REMARK  status: ('A' for Active; 'I' for Inactive)
REMARK    1  A    between atoms: C_2  and  C_3 
REMARK    2  A    between atoms: C_3  and  N_4 
REMARK       I    between atoms: N_4  and  C_5 
REMARK    3  A    between atoms: C_5  and  C_6 
REMARK    4  A    between atoms: C_7  and  N_8 
REMARK    5  A    between atoms: N_9  and  N_10 
REMARK    6  A    between atoms: C_11  and  C_12 
REMARK    7  A    between atoms: C_13  and  O_14 
ROOT
HETATM    1  C   UNL     1     -41.530  57.430 -52.958  1.00  0.00     0.104 C 
HETATM    2  C   UNL     1     -41.552  57.930 -54.254  1.00  0.00     0.123 C 
HETATM    3  N   UNL     1     -41.613  56.850 -55.129  1.00  0.00    -0.202 N 
HETATM    4  C   UNL     1     -41.198  55.724 -54.439  1.00  0.00     0.183 A 
HETATM    5  C   UNL     1     -41.172  56.060 -53.086  1.00  0.00     0.124 A 
HETATM    6  N   UNL     1     -40.875  55.131 -52.143  1.00  0.00    -0.242 NA
HETATM    7  C   UNL     1     -40.554  53.919 -52.615  1.00  0.00     0.086 A 
HETATM    8  C   UNL     1     -40.567  53.608 -54.001  1.00  0.00     0.088 A 
HETATM    9  N   UNL     1     -40.912  54.500 -54.945  1.00  0.00    -0.225 NA
HETATM   10  C   UNL     1     -40.188  52.935 -51.707  1.00  0.00     0.034 A 
HETATM   11  C   UNL     1     -39.829  51.652 -52.124  1.00  0.00     0.002 A 
HETATM   12  C   UNL     1     -39.840  51.346 -53.477  1.00  0.00     0.002 A 
HETATM   13  C   UNL     1     -40.212  52.325 -54.400  1.00  0.00     0.034 A 
ENDROOT
BRANCH   3  14
HETATM   14  N   UNL     1     -42.096  57.032 -56.406  1.00  0.00    -0.176 NA
HETATM   15  C   UNL     1     -43.329  56.700 -56.620  1.00  0.00     0.153 C 
BRANCH  15  16
HETATM   16  C   UNL     1     -43.979  57.068 -57.901  1.00  0.00     0.017 A 
HETATM   17  C   UNL     1     -43.410  56.740 -59.140  1.00  0.00     0.077 A 
HETATM   18  C   UNL     1     -43.991  57.180 -60.327  1.00  0.00     0.039 A 
HETATM   19  C   UNL     1     -45.146  57.959 -60.282  1.00  0.00     0.022 A 
HETATM   20  C   UNL     1     -45.714  58.287 -59.049  1.00  0.00     0.012 A 
HETATM   21 BR   UNL     1     -47.269  59.361 -58.995  1.00  0.00    -0.051 Br
HETATM   22  C   UNL     1     -45.138  57.848 -57.855  1.00  0.00     0.034 A 
BRANCH  17  23
HETATM   23  O   UNL     1     -42.256  56.013 -59.259  1.00  0.00    -0.360 OA
HETATM   24  H   UNL     1     -42.492  55.205 -59.763  1.00  0.00     0.217 HD
ENDBRANCH  17  23
ENDBRANCH  15  16
ENDBRANCH   3  14
BRANCH   2  25
HETATM   25  N   UNL     1     -41.655  59.216 -54.715  1.00  0.00    -0.286 NA
HETATM   26  H   UNL     1     -42.440  59.424 -55.337  1.00  0.00     0.125 HD
HETATM   27  H   UNL     1     -41.582  59.952 -54.009  1.00  0.00     0.125 HD
ENDBRANCH   2  25
BRANCH   1  28
HETATM   28  C   UNL     1     -41.873  58.159 -51.740  1.00  0.00     0.257 C 
HETATM   29  N   UNL     1     -42.674  59.263 -51.977  1.00  0.00    -0.352 N 
HETATM   30  H   UNL     1     -42.954  59.367 -52.948  1.00  0.00     0.163 HD
HETATM   31  O   UNL     1     -41.582  57.773 -50.616  1.00  0.00    -0.267 OA
BRANCH  29  32
HETATM   32  C   UNL     1     -43.583  59.815 -50.982  1.00  0.00     0.080 C 
HETATM   33  C   UNL     1     -43.002  61.059 -50.313  1.00  0.00     0.032 C 
BRANCH  32  34
HETATM   34  C   UNL     1     -44.938  60.163 -51.632  1.00  0.00     0.020 C 
HETATM   35  C   UNL     1     -45.178  59.452 -52.961  1.00  0.00     0.007 C 
ENDBRANCH  32  34
ENDBRANCH  29  32
ENDBRANCH   1  28
TORSDOF 7
ENDMDL
MODEL 7
REMARK VINA RESULT:      -7.9      3.229      7.529
REMARK  7 active torsions:
REMARK  status: ('A' for Active; 'I' for Inactive)
REMARK    1  A    between atoms: C_2  and  C_3 
REMARK    2  A    between atoms: C_3  and  N_4 
REMARK       I    between atoms: N_4  and  C_5 
REMARK    3  A    between atoms: C_5  and  C_6 
REMARK    4  A    between atoms: C_7  and  N_8 
REMARK    5  A    between atoms: N_9  and  N_10 
REMARK    6  A    between atoms: C_11  and  C_12 
REMARK    7  A    between atoms: C_13  and  O_14 
ROOT
HETATM    1  C   UNL     1     -42.522  56.986 -52.330  1.00  0.00     0.104 C 
HETATM    2  C   UNL     1     -42.189  57.484 -53.583  1.00  0.00     0.123 C 
HETATM    3  N   UNL     1     -41.727  56.424 -54.356  1.00  0.00    -0.202 N 
HETATM    4  C   UNL     1     -41.367  55.400 -53.497  1.00  0.00     0.183 A 
HETATM    5  C   UNL     1     -41.880  55.721 -52.242  1.00  0.00     0.124 A 
HETATM    6  N   UNL     1     -41.755  54.863 -51.198  1.00  0.00    -0.242 NA
HETATM    7  C   UNL     1     -41.057  53.748 -51.454  1.00  0.00     0.086 A 
HETATM    8  C   UNL     1     -40.525  53.455 -52.737  1.00  0.00     0.088 A 
HETATM    9  N   UNL     1     -40.687  54.267 -53.797  1.00  0.00    -0.225 NA
HETATM   10  C   UNL     1     -40.845  52.851 -50.415  1.00  0.00     0.034 A 
HETATM   11  C   UNL     1     -40.119  51.674 -50.603  1.00  0.00     0.002 A 
HETATM   12  C   UNL     1     -39.597  51.387 -51.856  1.00  0.00     0.002 A 
HETATM   13  C   UNL     1     -39.808  52.277 -52.909  1.00  0.00     0.034 A 
ENDROOT
BRANCH   3  14
HETATM   14  N   UNL     1     -41.760  56.515 -55.730  1.00  0.00    -0.176 NA
HETATM   15  C   UNL     1     -42.923  56.448 -56.295  1.00  0.00     0.153 C 
BRANCH  15  16
HETATM   16  C   UNL     1     -43.059  56.756 -57.740  1.00  0.00     0.017 A 
HETATM   17  C   UNL     1     -42.600  57.965 -58.284  1.00  0.00     0.077 A 
HETATM   18  C   UNL     1     -42.826  58.271 -59.623  1.00  0.00     0.039 A 
HETATM   19  C   UNL     1     -43.520  57.370 -60.429  1.00  0.00     0.022 A 
HETATM   20  C   UNL     1     -43.978  56.167 -59.889  1.00  0.00     0.012 A 
HETATM   21 BR   UNL     1     -44.936  54.959 -60.983  1.00  0.00    -0.051 Br
HETATM   22  C   UNL     1     -43.754  55.852 -58.547  1.00  0.00     0.034 A 
BRANCH  17  23
HETATM   23  O   UNL     1     -41.948  58.914 -57.544  1.00  0.00    -0.360 OA
HETATM   24  H   UNL     1     -42.556  59.682 -57.486  1.00  0.00     0.217 HD
ENDBRANCH  17  23
ENDBRANCH  15  16
ENDBRANCH   3  14
BRANCH   2  25
HETATM   25  N   UNL     1     -42.375  58.726 -54.132  1.00  0.00    -0.286 NA
HETATM   26  H   UNL     1     -41.804  59.488 -53.758  1.00  0.00     0.125 HD
HETATM   27  H   UNL     1     -42.366  58.770 -55.154  1.00  0.00     0.125 HD
ENDBRANCH   2  25
BRANCH   1  28
HETATM   28  C   UNL     1     -43.405  57.617 -51.352  1.00  0.00     0.257 C 
HETATM   29  N   UNL     1     -43.061  58.930 -51.079  1.00  0.00    -0.352 N 
HETATM   30  H   UNL     1     -42.289  59.278 -51.641  1.00  0.00     0.163 HD
HETATM   31  O   UNL     1     -44.412  57.083 -50.906  1.00  0.00    -0.267 OA
BRANCH  29  32
HETATM   32  C   UNL     1     -44.018  59.924 -50.616  1.00  0.00     0.080 C 
HETATM   33  C   UNL     1     -43.327  61.086 -49.902  1.00  0.00     0.032 C 
BRANCH  32  34
HETATM   34  C   UNL     1     -44.844  60.463 -51.801  1.00  0.00     0.020 C 
HETATM   35  C   UNL     1     -46.339  60.183 -51.681  1.00  0.00     0.007 C 
ENDBRANCH  32  34
ENDBRANCH  29  32
ENDBRANCH   1  28
TORSDOF 7
ENDMDL
MODEL 8
REMARK VINA RESULT:      -7.9      3.822      8.815
REMARK  7 active torsions:
REMARK  status: ('A' for Active; 'I' for Inactive)
REMARK    1  A    between atoms: C_2  and  C_3 
REMARK    2  A    between atoms: C_3  and  N_4 
REMARK       I    between atoms: N_4  and  C_5 
REMARK    3  A    between atoms: C_5  and  C_6 
REMARK    4  A    between atoms: C_7  and  N_8 
REMARK    5  A    between atoms: N_9  and  N_10 
REMARK    6  A    between atoms: C_11  and  C_12 
REMARK    7  A    between atoms: C_13  and  O_14 
ROOT
HETATM    1  C   UNL     1     -41.678  55.275 -54.307  1.00  0.00     0.104 C 
HETATM    2  C   UNL     1     -42.844  55.321 -55.060  1.00  0.00     0.123 C 
HETATM    3  N   UNL     1     -43.364  56.607 -54.965  1.00  0.00    -0.202 N 
HETATM    4  C   UNL     1     -42.801  57.210 -53.854  1.00  0.00     0.183 A 
HETATM    5  C   UNL     1     -41.733  56.410 -53.452  1.00  0.00     0.124 A 
HETATM    6  N   UNL     1     -40.931  56.784 -52.424  1.00  0.00    -0.242 NA
HETATM    7  C   UNL     1     -41.284  57.919 -51.806  1.00  0.00     0.086 A 
HETATM    8  C   UNL     1     -42.391  58.705 -52.221  1.00  0.00     0.088 A 
HETATM    9  N   UNL     1     -43.164  58.379 -53.272  1.00  0.00    -0.225 NA
HETATM   10  C   UNL     1     -40.537  58.332 -50.711  1.00  0.00     0.034 A 
HETATM   11  C   UNL     1     -40.851  59.497 -50.009  1.00  0.00     0.002 A 
HETATM   12  C   UNL     1     -41.933  60.266 -50.413  1.00  0.00     0.002 A 
HETATM   13  C   UNL     1     -42.688  59.865 -51.515  1.00  0.00     0.034 A 
ENDROOT
BRANCH   3  14
HETATM   14  N   UNL     1     -44.225  57.069 -55.937  1.00  0.00    -0.176 NA
HETATM   15  C   UNL     1     -43.722  57.839 -56.848  1.00  0.00     0.153 C 
BRANCH  15  16
HETATM   16  C   UNL     1     -44.530  58.194 -58.041  1.00  0.00     0.017 A 
HETATM   17  C   UNL     1     -44.944  57.226 -58.967  1.00  0.00     0.077 A 
HETATM   18  C   UNL     1     -45.619  57.596 -60.128  1.00  0.00     0.039 A 
HETATM   19  C   UNL     1     -45.880  58.944 -60.373  1.00  0.00     0.022 A 
HETATM   20  C   UNL     1     -45.468  59.909 -59.451  1.00  0.00     0.012 A 
HETATM   21 BR   UNL     1     -45.807  61.736 -59.800  1.00  0.00    -0.051 Br
HETATM   22  C   UNL     1     -44.792  59.544 -58.285  1.00  0.00     0.034 A 
BRANCH  17  23
HETATM   23  O   UNL     1     -44.688  55.890 -58.813  1.00  0.00    -0.360 OA
HETATM   24  H   UNL     1     -43.778  55.745 -59.149  1.00  0.00     0.217 HD
ENDBRANCH  17  23
ENDBRANCH  15  16
ENDBRANCH   3  14
BRANCH   2  25
HETATM   25  N   UNL     1     -43.401  54.397 -55.904  1.00  0.00    -0.286 NA
HETATM   26  H   UNL     1     -43.246  53.411 -55.680  1.00  0.00     0.125 HD
HETATM   27  H   UNL     1     -44.388  54.538 -56.133  1.00  0.00     0.125 HD
ENDBRANCH   2  25
BRANCH   1  28
HETATM   28  C   UNL     1     -40.601  54.295 -54.431  1.00  0.00     0.257 C 
HETATM   29  N   UNL     1     -40.376  53.587 -53.262  1.00  0.00    -0.352 N 
HETATM   30  H   UNL     1     -41.028  53.808 -52.515  1.00  0.00     0.163 HD
HETATM   31  O   UNL     1     -40.035  54.042 -55.486  1.00  0.00    -0.267 OA
BRANCH  29  32
HETATM   32  C   UNL     1     -39.803  52.249 -53.240  1.00  0.00     0.080 C 
HETATM   33  C   UNL     1     -39.712  51.695 -51.818  1.00  0.00     0.032 C 
BRANCH  32  34
HETATM   34  C   UNL     1     -40.642  51.295 -54.114  1.00  0.00     0.020 C 
HETATM   35  C   UNL     1     -39.912  50.008 -54.487  1.00  0.00     0.007 C 
ENDBRANCH  32  34
ENDBRANCH  29  32
ENDBRANCH   1  28
TORSDOF 7
ENDMDL
MODEL 9
REMARK VINA RESULT:      -7.8      2.513      5.349
REMARK  7 active torsions:
REMARK  status: ('A' for Active; 'I' for Inactive)
REMARK    1  A    between atoms: C_2  and  C_3 
REMARK    2  A    between atoms: C_3  and  N_4 
REMARK       I    between atoms: N_4  and  C_5 
REMARK    3  A    between atoms: C_5  and  C_6 
REMARK    4  A    between atoms: C_7  and  N_8 
REMARK    5  A    between atoms: N_9  and  N_10 
REMARK    6  A    between atoms: C_11  and  C_12 
REMARK    7  A    between atoms: C_13  and  O_14 
ROOT
HETATM    1  C   UNL     1     -43.269  57.810 -55.561  1.00  0.00     0.104 C 
HETATM    2  C   UNL     1     -42.191  56.940 -55.463  1.00  0.00     0.123 C 
HETATM    3  N   UNL     1     -41.723  56.983 -54.154  1.00  0.00    -0.202 N 
HETATM    4  C   UNL     1     -42.194  58.149 -53.576  1.00  0.00     0.183 A 
HETATM    5  C   UNL     1     -43.176  58.658 -54.424  1.00  0.00     0.124 A 
HETATM    6  N   UNL     1     -43.884  59.765 -54.084  1.00  0.00    -0.242 NA
HETATM    7  C   UNL     1     -43.520  60.347 -52.934  1.00  0.00     0.086 A 
HETATM    8  C   UNL     1     -42.500  59.820 -52.098  1.00  0.00     0.088 A 
HETATM    9  N   UNL     1     -41.826  58.694 -52.391  1.00  0.00    -0.225 NA
HETATM   10  C   UNL     1     -44.167  61.515 -52.553  1.00  0.00     0.034 A 
HETATM   11  C   UNL     1     -43.834  62.183 -51.374  1.00  0.00     0.002 A 
HETATM   12  C   UNL     1     -42.837  61.671 -50.557  1.00  0.00     0.002 A 
HETATM   13  C   UNL     1     -42.183  60.495 -50.925  1.00  0.00     0.034 A 
ENDROOT
BRANCH   3  14
HETATM   14  N   UNL     1     -40.991  55.928 -53.656  1.00  0.00    -0.176 NA
HETATM   15  C   UNL     1     -41.609  55.101 -52.875  1.00  0.00     0.153 C 
BRANCH  15  16
HETATM   16  C   UNL     1     -40.954  53.831 -52.478  1.00  0.00     0.017 A 
HETATM   17  C   UNL     1     -40.403  53.651 -51.201  1.00  0.00     0.077 A 
HETATM   18  C   UNL     1     -39.709  52.486 -50.885  1.00  0.00     0.039 A 
HETATM   19  C   UNL     1     -39.556  51.491 -51.850  1.00  0.00     0.022 A 
HETATM   20  C   UNL     1     -40.104  51.669 -53.122  1.00  0.00     0.012 A 
HETATM   21 BR   UNL     1     -39.875  50.325 -54.432  1.00  0.00    -0.051 Br
HETATM   22  C   UNL     1     -40.802  52.834 -53.446  1.00  0.00     0.034 A 
BRANCH  17  23
HETATM   23  O   UNL     1     -40.479  54.600 -50.217  1.00  0.00    -0.360 OA
HETATM   24  H   UNL     1     -41.432  54.696 -50.002  1.00  0.00     0.217 HD
ENDBRANCH  17  23
ENDBRANCH  15  16
ENDBRANCH   3  14
BRANCH   2  25
HETATM   25  N   UNL     1     -41.684  56.039 -56.363  1.00  0.00    -0.286 NA
HETATM   26  H   UNL     1     -40.934  55.426 -56.032  1.00  0.00     0.125 HD
HETATM   27  H   UNL     1     -42.372  55.482 -56.875  1.00  0.00     0.125 HD
ENDBRANCH   2  25
BRANCH   1  28
HETATM   28  C   UNL     1     -44.306  57.796 -56.590  1.00  0.00     0.257 C 
HETATM   29  N   UNL     1     -43.818  57.486 -57.848  1.00  0.00    -0.352 N 
HETATM   30  H   UNL     1     -42.829  57.255 -57.859  1.00  0.00     0.163 HD
HETATM   31  O   UNL     1     -45.499  57.929 -56.349  1.00  0.00    -0.267 OA
BRANCH  29  32
HETATM   32  C   UNL     1     -44.632  56.878 -58.890  1.00  0.00     0.080 C 
HETATM   33  C   UNL     1     -44.986  57.880 -59.989  1.00  0.00     0.032 C 
BRANCH  32  34
HETATM   34  C   UNL     1     -43.896  55.672 -59.508  1.00  0.00     0.020 C 
HETATM   35  C   UNL     1     -44.809  54.736 -60.293  1.00  0.00     0.007 C 
ENDBRANCH  32  34
ENDBRANCH  29  32
ENDBRANCH   1  28
TORSDOF 7
ENDMDL
MODEL 10
REMARK VINA RESULT:      -7.8      4.377      7.842
REMARK  7 active torsions:
REMARK  status: ('A' for Active; 'I' for Inactive)
REMARK    1  A    between atoms: C_2  and  C_3 
REMARK    2  A    between atoms: C_3  and  N_4 
REMARK       I    between atoms: N_4  and  C_5 
REMARK    3  A    between atoms: C_5  and  C_6 
REMARK    4  A    between atoms: C_7  and  N_8 
REMARK    5  A    between atoms: N_9  and  N_10 
REMARK    6  A    between atoms: C_11  and  C_12 
REMARK    7  A    between atoms: C_13  and  O_14 
ROOT
HETATM    1  C   UNL     1     -44.232  58.112 -51.822  1.00  0.00     0.104 C 
HETATM    2  C   UNL     1     -44.122  58.506 -53.150  1.00  0.00     0.123 C 
HETATM    3  N   UNL     1     -43.568  57.450 -53.866  1.00  0.00    -0.202 N 
HETATM    4  C   UNL     1     -42.948  56.605 -52.961  1.00  0.00     0.183 A 
HETATM    5  C   UNL     1     -43.375  56.985 -51.690  1.00  0.00     0.124 A 
HETATM    6  N   UNL     1     -42.994  56.287 -50.590  1.00  0.00    -0.242 NA
HETATM    7  C   UNL     1     -42.146  55.276 -50.819  1.00  0.00     0.086 A 
HETATM    8  C   UNL     1     -41.709  54.923 -52.123  1.00  0.00     0.088 A 
HETATM    9  N   UNL     1     -42.118  55.568 -53.229  1.00  0.00    -0.225 NA
HETATM   10  C   UNL     1     -41.674  54.553 -49.731  1.00  0.00     0.034 A 
HETATM   11  C   UNL     1     -40.779  53.494 -49.891  1.00  0.00     0.002 A 
HETATM   12  C   UNL     1     -40.350  53.148 -51.163  1.00  0.00     0.002 A 
HETATM   13  C   UNL     1     -40.821  53.863 -52.265  1.00  0.00     0.034 A 
ENDROOT
BRANCH   3  14
HETATM   14  N   UNL     1     -43.760  57.373 -55.228  1.00  0.00    -0.176 NA
HETATM   15  C   UNL     1     -42.743  57.647 -55.980  1.00  0.00     0.153 C 
BRANCH  15  16
HETATM   16  C   UNL     1     -42.810  57.375 -57.437  1.00  0.00     0.017 A 
HETATM   17  C   UNL     1     -43.089  56.094 -57.937  1.00  0.00     0.077 A 
HETATM   18  C   UNL     1     -43.053  55.843 -59.307  1.00  0.00     0.039 A 
HETATM   19  C   UNL     1     -42.729  56.875 -60.188  1.00  0.00     0.022 A 
HETATM   20  C   UNL     1     -42.450  58.150 -59.691  1.00  0.00     0.012 A 
HETATM   21 BR   UNL     1     -41.992  59.538 -60.890  1.00  0.00    -0.051 Br
HETATM   22  C   UNL     1     -42.487  58.409 -58.320  1.00  0.00     0.034 A 
BRANCH  17  23
HETATM   23  O   UNL     1     -43.375  55.026 -57.131  1.00  0.00    -0.360 OA
HETATM   24  H   UNL     1     -43.048  55.263 -56.236  1.00  0.00     0.217 HD
ENDBRANCH  17  23
ENDBRANCH  15  16
ENDBRANCH   3  14
BRANCH   2  25
HETATM   25  N   UNL     1     -44.576  59.628 -53.790  1.00  0.00    -0.286 NA
HETATM   26  H   UNL     1     -44.412  59.686 -54.798  1.00  0.00     0.125 HD
HETATM   27  H   UNL     1     -45.544  59.897 -53.592  1.00  0.00     0.125 HD
ENDBRANCH   2  25
BRANCH   1  28
HETATM   28  C   UNL     1     -45.102  58.703 -50.809  1.00  0.00     0.257 C 
HETATM   29  N   UNL     1     -44.571  59.848 -50.240  1.00  0.00    -0.352 N 
HETATM   30  H   UNL     1     -43.689  60.141 -50.651  1.00  0.00     0.163 HD
HETATM   31  O   UNL     1     -46.232  58.299 -50.570  1.00  0.00    -0.267 OA
BRANCH  29  32
HETATM   32  C   UNL     1     -45.390  60.902 -49.659  1.00  0.00     0.080 C 
HETATM   33  C   UNL     1     -44.792  61.430 -48.356  1.00  0.00     0.032 C 
BRANCH  32  34
HETATM   34  C   UNL     1     -45.555  62.063 -50.660  1.00  0.00     0.020 C 
HETATM   35  C   UNL     1     -46.733  61.885 -51.614  1.00  0.00     0.007 C 
ENDBRANCH  32  34
ENDBRANCH  29  32
ENDBRANCH   1  28
TORSDOF 7
ENDMDL
