MODEL 1
REMARK VINA RESULT:      -8.7      0.000      0.000
REMARK  5 active torsions:
REMARK  status: ('A' for Active; 'I' for Inactive)
REMARK    1  A    between atoms: O_2  and  C_3 
REMARK    2  A    between atoms: C_4  and  O_5 
REMARK    3  A    between atoms: C_8  and  C_9 
REMARK    4  A    between atoms: N_10  and  N_11 
REMARK       I    between atoms: N_11  and  C_12 
REMARK    5  A    between atoms: C_12  and  C_13 
ROOT
HETATM    1  N   UNL     1     -42.676  56.840 -52.758  1.00  0.00    -0.242 N 
HETATM    2  C   UNL     1     -41.384  56.843 -53.262  1.00  0.00     0.292 C 
HETATM    3  O   UNL     1     -40.647  57.825 -53.313  1.00  0.00    -0.264 OA
HETATM    4  H   UNL     1     -43.178  55.955 -52.766  1.00  0.00     0.192 HD
ENDROOT
BRANCH   2   5
HETATM    5  C   UNL     1     -40.961  55.515 -53.738  1.00  0.00     0.154 A 
HETATM    6  N   UNL     1     -40.797  55.238 -55.055  1.00  0.00    -0.168 NA
HETATM    7  N   UNL     1     -40.449  53.931 -55.076  1.00  0.00    -0.276 N 
HETATM    8  H   UNL     1     -40.272  53.494 -55.973  1.00  0.00     0.189 HD
HETATM    9  C   UNL     1     -40.381  53.365 -53.841  1.00  0.00     0.069 A 
HETATM   10  C   UNL     1     -40.689  54.368 -52.951  1.00  0.00     0.007 A 
HETATM   11  C   UNL     1     -40.060  52.001 -53.457  1.00  0.00    -0.001 A 
HETATM   12  C   UNL     1     -40.741  54.124 -51.484  1.00  0.00     0.048 C 
HETATM   13  C   UNL     1     -39.840  52.930 -51.089  1.00  0.00     0.044 C 
HETATM   14  C   UNL     1     -39.845  51.768 -52.076  1.00  0.00    -0.045 A 
HETATM   15  C   UNL     1     -39.545  50.473 -51.633  1.00  0.00     0.008 A 
HETATM   16  C   UNL     1     -39.485  49.419 -52.545  1.00  0.00     0.001 A 
HETATM   17  C   UNL     1     -39.707  49.651 -53.902  1.00  0.00     0.001 A 
HETATM   18  C   UNL     1     -39.992  50.938 -54.362  1.00  0.00     0.014 A 
ENDBRANCH   2   5
BRANCH   1  19
HETATM   19  N   UNL     1     -43.215  57.974 -52.232  1.00  0.00    -0.184 NA
HETATM   20  C   UNL     1     -44.462  58.192 -52.496  1.00  0.00     0.150 C 
BRANCH  20  21
HETATM   21  C   UNL     1     -45.149  59.388 -51.963  1.00  0.00    -0.014 A 
HETATM   22  C   UNL     1     -45.727  60.314 -52.840  1.00  0.00     0.016 A 
HETATM   23  C   UNL     1     -46.363  61.445 -52.335  1.00  0.00     0.040 A 
HETATM   24  C   UNL     1     -46.419  61.631 -50.961  1.00  0.00     0.099 A 
HETATM   25  C   UNL     1     -45.857  60.709 -50.067  1.00  0.00     0.102 A 
HETATM   26  C   UNL     1     -45.210  59.581 -50.575  1.00  0.00     0.052 A 
BRANCH  24  27
HETATM   27  O   UNL     1     -47.051  62.750 -50.488  1.00  0.00    -0.358 OA
HETATM   28  H   UNL     1     -46.479  63.081 -49.769  1.00  0.00     0.218 HD
ENDBRANCH  24  27
BRANCH  25  29
HETATM   29  O   UNL     1     -46.003  61.032 -48.742  1.00  0.00    -0.353 OA
HETATM   30  C   UNL     1     -44.830  61.444 -48.051  1.00  0.00     0.210 C 
ENDBRANCH  25  29
ENDBRANCH  20  21
ENDBRANCH   1  19
TORSDOF 5
ENDMDL
MODEL 2
REMARK VINA RESULT:      -8.4      4.611      6.328
REMARK  5 active torsions:
REMARK  status: ('A' for Active; 'I' for Inactive)
REMARK    1  A    between atoms: O_2  and  C_3 
REMARK    2  A    between atoms: C_4  and  O_5 
REMARK    3  A    between atoms: C_8  and  C_9 
REMARK    4  A    between atoms: N_10  and  N_11 
REMARK       I    between atoms: N_11  and  C_12 
REMARK    5  A    between atoms: C_12  and  C_13 
ROOT
HETATM    1  N   UNL     1     -42.089  56.058 -55.293  1.00  0.00    -0.242 N 
HETATM    2  C   UNL     1     -41.346  56.436 -54.185  1.00  0.00     0.292 C 
HETATM    3  O   UNL     1     -40.849  57.546 -54.011  1.00  0.00    -0.264 OA
HETATM    4  H   UNL     1     -42.452  55.107 -55.310  1.00  0.00     0.192 HD
ENDROOT
BRANCH   2   5
HETATM    5  C   UNL     1     -41.207  55.348 -53.201  1.00  0.00     0.154 A 
HETATM    6  N   UNL     1     -41.511  55.515 -51.891  1.00  0.00    -0.168 NA
HETATM    7  N   UNL     1     -41.218  54.320 -51.330  1.00  0.00    -0.276 N 
HETATM    8  H   UNL     1     -41.367  54.206 -50.333  1.00  0.00     0.189 HD
HETATM    9  C   UNL     1     -40.746  53.402 -52.215  1.00  0.00     0.069 A 
HETATM   10  C   UNL     1     -40.744  54.030 -53.441  1.00  0.00     0.007 A 
HETATM   11  C   UNL     1     -40.315  52.032 -51.997  1.00  0.00    -0.001 A 
HETATM   12  C   UNL     1     -40.265  53.343 -54.671  1.00  0.00     0.048 C 
HETATM   13  C   UNL     1     -40.409  51.809 -54.539  1.00  0.00     0.044 C 
HETATM   14  C   UNL     1     -40.090  51.249 -53.157  1.00  0.00    -0.045 A 
HETATM   15  C   UNL     1     -39.659  49.923 -53.022  1.00  0.00     0.008 A 
HETATM   16  C   UNL     1     -39.429  49.389 -51.754  1.00  0.00     0.001 A 
HETATM   17  C   UNL     1     -39.642  50.166 -50.615  1.00  0.00     0.001 A 
HETATM   18  C   UNL     1     -40.086  51.485 -50.732  1.00  0.00     0.014 A 
ENDBRANCH   2   5
BRANCH   1  19
HETATM   19  N   UNL     1     -42.356  56.952 -56.283  1.00  0.00    -0.184 NA
HETATM   20  C   UNL     1     -42.874  56.472 -57.366  1.00  0.00     0.150 C 
BRANCH  20  21
HETATM   21  C   UNL     1     -43.215  57.359 -58.499  1.00  0.00    -0.014 A 
HETATM   22  C   UNL     1     -42.210  58.093 -59.142  1.00  0.00     0.016 A 
HETATM   23  C   UNL     1     -42.536  58.936 -60.201  1.00  0.00     0.040 A 
HETATM   24  C   UNL     1     -43.860  59.028 -60.608  1.00  0.00     0.099 A 
HETATM   25  C   UNL     1     -44.877  58.292 -59.984  1.00  0.00     0.102 A 
HETATM   26  C   UNL     1     -44.551  57.456 -58.915  1.00  0.00     0.052 A 
BRANCH  24  27
HETATM   27  O   UNL     1     -44.156  59.863 -61.652  1.00  0.00    -0.358 OA
HETATM   28  H   UNL     1     -45.108  60.058 -61.561  1.00  0.00     0.218 HD
ENDBRANCH  24  27
BRANCH  25  29
HETATM   29  O   UNL     1     -46.130  58.488 -60.507  1.00  0.00    -0.353 OA
HETATM   30  C   UNL     1     -46.987  57.354 -60.557  1.00  0.00     0.210 C 
ENDBRANCH  25  29
ENDBRANCH  20  21
ENDBRANCH   1  19
TORSDOF 5
ENDMDL
MODEL 3
REMARK VINA RESULT:      -8.2      5.572      7.257
REMARK  5 active torsions:
REMARK  status: ('A' for Active; 'I' for Inactive)
REMARK    1  A    between atoms: O_2  and  C_3 
REMARK    2  A    between atoms: C_4  and  O_5 
REMARK    3  A    between atoms: C_8  and  C_9 
REMARK    4  A    between atoms: N_10  and  N_11 
REMARK       I    between atoms: N_11  and  C_12 
REMARK    5  A    between atoms: C_12  and  C_13 
ROOT
HETATM    1  N   UNL     1     -42.326  57.443 -56.860  1.00  0.00    -0.242 N 
HETATM    2  C   UNL     1     -42.833  56.154 -56.796  1.00  0.00     0.292 C 
HETATM    3  O   UNL     1     -43.205  55.491 -57.761  1.00  0.00    -0.264 OA
HETATM    4  H   UNL     1     -42.046  57.879 -55.985  1.00  0.00     0.192 HD
ENDROOT
BRANCH   2   5
HETATM    5  C   UNL     1     -42.880  55.635 -55.418  1.00  0.00     0.154 A 
HETATM    6  N   UNL     1     -43.897  55.924 -54.571  1.00  0.00    -0.168 NA
HETATM    7  N   UNL     1     -43.555  55.302 -53.420  1.00  0.00    -0.276 N 
HETATM    8  H   UNL     1     -44.179  55.381 -52.625  1.00  0.00     0.189 HD
HETATM    9  C   UNL     1     -42.374  54.632 -53.492  1.00  0.00     0.069 A 
HETATM   10  C   UNL     1     -41.919  54.811 -54.779  1.00  0.00     0.007 A 
HETATM   11  C   UNL     1     -41.672  53.865 -52.476  1.00  0.00    -0.001 A 
HETATM   12  C   UNL     1     -40.625  54.238 -55.239  1.00  0.00     0.048 C 
HETATM   13  C   UNL     1     -40.244  52.992 -54.405  1.00  0.00     0.044 C 
HETATM   14  C   UNL     1     -40.571  53.090 -52.919  1.00  0.00    -0.045 A 
HETATM   15  C   UNL     1     -39.841  52.337 -51.991  1.00  0.00     0.008 A 
HETATM   16  C   UNL     1     -40.181  52.373 -50.639  1.00  0.00     0.001 A 
HETATM   17  C   UNL     1     -41.258  53.146 -50.206  1.00  0.00     0.001 A 
HETATM   18  C   UNL     1     -42.006  53.891 -51.120  1.00  0.00     0.014 A 
ENDBRANCH   2   5
BRANCH   1  19
HETATM   19  N   UNL     1     -42.169  58.064 -58.061  1.00  0.00    -0.184 NA
HETATM   20  C   UNL     1     -42.016  59.348 -58.028  1.00  0.00     0.150 C 
BRANCH  20  21
HETATM   21  C   UNL     1     -41.825  60.119 -59.275  1.00  0.00    -0.014 A 
HETATM   22  C   UNL     1     -42.231  59.579 -60.502  1.00  0.00     0.016 A 
HETATM   23  C   UNL     1     -42.039  60.304 -61.676  1.00  0.00     0.040 A 
HETATM   24  C   UNL     1     -41.451  61.559 -61.606  1.00  0.00     0.099 A 
HETATM   25  C   UNL     1     -41.049  62.120 -60.386  1.00  0.00     0.102 A 
HETATM   26  C   UNL     1     -41.232  61.389 -59.211  1.00  0.00     0.052 A 
BRANCH  24  27
HETATM   27  O   UNL     1     -41.272  62.252 -62.773  1.00  0.00    -0.358 OA
HETATM   28  H   UNL     1     -40.444  62.753 -62.650  1.00  0.00     0.218 HD
ENDBRANCH  24  27
BRANCH  25  29
HETATM   29  O   UNL     1     -40.492  63.369 -60.484  1.00  0.00    -0.353 OA
HETATM   30  C   UNL     1     -39.251  63.571 -59.819  1.00  0.00     0.210 C 
ENDBRANCH  25  29
ENDBRANCH  20  21
ENDBRANCH   1  19
TORSDOF 5
ENDMDL
MODEL 4
REMARK VINA RESULT:      -8.1      5.302     10.237
REMARK  5 active torsions:
REMARK  status: ('A' for Active; 'I' for Inactive)
REMARK    1  A    between atoms: O_2  and  C_3 
REMARK    2  A    between atoms: C_4  and  O_5 
REMARK    3  A    between atoms: C_8  and  C_9 
REMARK    4  A    between atoms: N_10  and  N_11 
REMARK       I    between atoms: N_11  and  C_12 
REMARK    5  A    between atoms: C_12  and  C_13 
ROOT
HETATM    1  N   UNL     1     -41.370  55.333 -55.663  1.00  0.00    -0.242 N 
HETATM    2  C   UNL     1     -42.403  55.697 -56.513  1.00  0.00     0.292 C 
HETATM    3  O   UNL     1     -43.248  54.930 -56.969  1.00  0.00    -0.264 OA
HETATM    4  H   UNL     1     -40.741  56.068 -55.350  1.00  0.00     0.192 HD
ENDROOT
BRANCH   2   5
HETATM    5  C   UNL     1     -42.396  57.137 -56.823  1.00  0.00     0.154 A 
HETATM    6  N   UNL     1     -42.428  58.085 -55.855  1.00  0.00    -0.168 NA
HETATM    7  N   UNL     1     -42.448  59.253 -56.538  1.00  0.00    -0.276 N 
HETATM    8  H   UNL     1     -42.474  60.119 -56.011  1.00  0.00     0.189 HD
HETATM    9  C   UNL     1     -42.428  59.095 -57.889  1.00  0.00     0.069 A 
HETATM   10  C   UNL     1     -42.375  57.737 -58.107  1.00  0.00     0.007 A 
HETATM   11  C   UNL     1     -42.453  60.093 -58.945  1.00  0.00    -0.001 A 
HETATM   12  C   UNL     1     -42.363  57.166 -59.481  1.00  0.00     0.048 C 
HETATM   13  C   UNL     1     -41.786  58.179 -60.497  1.00  0.00     0.044 C 
HETATM   14  C   UNL     1     -42.190  59.630 -60.258  1.00  0.00    -0.045 A 
HETATM   15  C   UNL     1     -42.212  60.535 -61.326  1.00  0.00     0.008 A 
HETATM   16  C   UNL     1     -42.517  61.877 -61.099  1.00  0.00     0.001 A 
HETATM   17  C   UNL     1     -42.786  62.327 -59.807  1.00  0.00     0.001 A 
HETATM   18  C   UNL     1     -42.753  61.441 -58.728  1.00  0.00     0.014 A 
ENDBRANCH   2   5
BRANCH   1  19
HETATM   19  N   UNL     1     -41.249  54.046 -55.235  1.00  0.00    -0.184 NA
HETATM   20  C   UNL     1     -40.252  53.794 -54.451  1.00  0.00     0.150 C 
BRANCH  20  21
HETATM   21  C   UNL     1     -40.037  52.431 -53.917  1.00  0.00    -0.014 A 
HETATM   22  C   UNL     1     -40.084  51.326 -54.777  1.00  0.00     0.016 A 
HETATM   23  C   UNL     1     -39.891  50.044 -54.269  1.00  0.00     0.040 A 
HETATM   24  C   UNL     1     -39.648  49.884 -52.912  1.00  0.00     0.099 A 
HETATM   25  C   UNL     1     -39.585  50.980 -52.039  1.00  0.00     0.102 A 
HETATM   26  C   UNL     1     -39.789  52.263 -52.547  1.00  0.00     0.052 A 
BRANCH  24  27
HETATM   27  O   UNL     1     -39.462  48.614 -52.436  1.00  0.00    -0.358 OA
HETATM   28  H   UNL     1     -40.309  48.156 -52.592  1.00  0.00     0.218 HD
ENDBRANCH  24  27
BRANCH  25  29
HETATM   29  O   UNL     1     -39.329  50.657 -50.731  1.00  0.00    -0.353 OA
HETATM   30  C   UNL     1     -40.442  50.646 -49.845  1.00  0.00     0.210 C 
ENDBRANCH  25  29
ENDBRANCH  20  21
ENDBRANCH   1  19
TORSDOF 5
ENDMDL
MODEL 5
REMARK VINA RESULT:      -8.0      5.624      9.991
REMARK  5 active torsions:
REMARK  status: ('A' for Active; 'I' for Inactive)
REMARK    1  A    between atoms: O_2  and  C_3 
REMARK    2  A    between atoms: C_4  and  O_5 
REMARK    3  A    between atoms: C_8  and  C_9 
REMARK    4  A    between atoms: N_10  and  N_11 
REMARK       I    between atoms: N_11  and  C_12 
REMARK    5  A    between atoms: C_12  and  C_13 
ROOT
HETATM    1  N   UNL     1     -42.114  55.745 -56.815  1.00  0.00    -0.242 N 
HETATM    2  C   UNL     1     -43.034  56.783 -56.837  1.00  0.00     0.292 C 
HETATM    3  O   UNL     1     -43.838  57.034 -55.942  1.00  0.00    -0.264 OA
HETATM    4  H   UNL     1     -41.498  55.651 -57.619  1.00  0.00     0.192 HD
ENDROOT
BRANCH   2   5
HETATM    5  C   UNL     1     -42.949  57.586 -58.069  1.00  0.00     0.154 A 
HETATM    6  N   UNL     1     -43.445  57.148 -59.252  1.00  0.00    -0.168 NA
HETATM    7  N   UNL     1     -43.141  58.137 -60.123  1.00  0.00    -0.276 N 
HETATM    8  H   UNL     1     -43.419  58.028 -61.092  1.00  0.00     0.189 HD
HETATM    9  C   UNL     1     -42.480  59.181 -59.554  1.00  0.00     0.069 A 
HETATM   10  C   UNL     1     -42.356  58.864 -58.220  1.00  0.00     0.007 A 
HETATM   11  C   UNL     1     -41.978  60.405 -60.154  1.00  0.00    -0.001 A 
HETATM   12  C   UNL     1     -41.658  59.765 -57.264  1.00  0.00     0.048 C 
HETATM   13  C   UNL     1     -41.698  61.231 -57.755  1.00  0.00     0.044 C 
HETATM   14  C   UNL     1     -41.532  61.410 -59.260  1.00  0.00    -0.045 A 
HETATM   15  C   UNL     1     -41.022  62.610 -59.769  1.00  0.00     0.008 A 
HETATM   16  C   UNL     1     -40.931  62.802 -61.148  1.00  0.00     0.001 A 
HETATM   17  C   UNL     1     -41.361  61.806 -62.025  1.00  0.00     0.001 A 
HETATM   18  C   UNL     1     -41.885  60.609 -61.534  1.00  0.00     0.014 A 
ENDBRANCH   2   5
BRANCH   1  19
HETATM   19  N   UNL     1     -42.021  54.928 -55.731  1.00  0.00    -0.184 NA
HETATM   20  C   UNL     1     -40.854  54.833 -55.183  1.00  0.00     0.150 C 
BRANCH  20  21
HETATM   21  C   UNL     1     -40.645  53.982 -53.991  1.00  0.00    -0.014 A 
HETATM   22  C   UNL     1     -40.969  54.467 -52.718  1.00  0.00     0.016 A 
HETATM   23  C   UNL     1     -40.761  53.668 -51.597  1.00  0.00     0.040 A 
HETATM   24  C   UNL     1     -40.239  52.392 -51.765  1.00  0.00     0.099 A 
HETATM   25  C   UNL     1     -39.921  51.886 -53.033  1.00  0.00     0.102 A 
HETATM   26  C   UNL     1     -40.119  52.692 -54.154  1.00  0.00     0.052 A 
BRANCH  24  27
HETATM   27  O   UNL     1     -40.044  51.625 -50.648  1.00  0.00    -0.358 OA
HETATM   28  H   UNL     1     -40.249  52.211 -49.896  1.00  0.00     0.218 HD
ENDBRANCH  24  27
BRANCH  25  29
HETATM   29  O   UNL     1     -39.422  50.608 -53.031  1.00  0.00    -0.353 OA
HETATM   30  C   UNL     1     -39.769  49.784 -54.138  1.00  0.00     0.210 C 
ENDBRANCH  25  29
ENDBRANCH  20  21
ENDBRANCH   1  19
TORSDOF 5
ENDMDL
MODEL 6
REMARK VINA RESULT:      -7.7      1.637      2.237
REMARK  5 active torsions:
REMARK  status: ('A' for Active; 'I' for Inactive)
REMARK    1  A    between atoms: O_2  and  C_3 
REMARK    2  A    between atoms: C_4  and  O_5 
REMARK    3  A    between atoms: C_8  and  C_9 
REMARK    4  A    between atoms: N_10  and  N_11 
REMARK       I    between atoms: N_11  and  C_12 
REMARK    5  A    between atoms: C_12  and  C_13 
ROOT
HETATM    1  N   UNL     1     -42.976  57.214 -51.411  1.00  0.00    -0.242 N 
HETATM    2  C   UNL     1     -41.681  56.958 -51.835  1.00  0.00     0.292 C 
HETATM    3  O   UNL     1     -40.938  57.775 -52.375  1.00  0.00    -0.264 OA
HETATM    4  H   UNL     1     -43.483  56.451 -50.970  1.00  0.00     0.192 HD
ENDROOT
BRANCH   2   5
HETATM    5  C   UNL     1     -41.263  55.572 -51.564  1.00  0.00     0.154 A 
HETATM    6  N   UNL     1     -41.041  55.116 -50.307  1.00  0.00    -0.168 NA
HETATM    7  N   UNL     1     -40.647  53.835 -50.485  1.00  0.00    -0.276 N 
HETATM    8  H   UNL     1     -40.420  53.282 -49.666  1.00  0.00     0.189 HD
HETATM    9  C   UNL     1     -40.609  53.452 -51.790  1.00  0.00     0.069 A 
HETATM   10  C   UNL     1     -41.020  54.548 -52.514  1.00  0.00     0.007 A 
HETATM   11  C   UNL     1     -40.228  52.179 -52.378  1.00  0.00    -0.001 A 
HETATM   12  C   UNL     1     -41.088  54.523 -54.001  1.00  0.00     0.048 C 
HETATM   13  C   UNL     1     -41.283  53.080 -54.521  1.00  0.00     0.044 C 
HETATM   14  C   UNL     1     -40.511  52.011 -53.756  1.00  0.00    -0.045 A 
HETATM   15  C   UNL     1     -40.158  50.814 -54.392  1.00  0.00     0.008 A 
HETATM   16  C   UNL     1     -39.510  49.807 -53.676  1.00  0.00     0.001 A 
HETATM   17  C   UNL     1     -39.223  49.981 -52.322  1.00  0.00     0.001 A 
HETATM   18  C   UNL     1     -39.582  51.162 -51.670  1.00  0.00     0.014 A 
ENDBRANCH   2   5
BRANCH   1  19
HETATM   19  N   UNL     1     -43.511  58.459 -51.542  1.00  0.00    -0.184 NA
HETATM   20  C   UNL     1     -44.597  58.546 -52.238  1.00  0.00     0.150 C 
BRANCH  20  21
HETATM   21  C   UNL     1     -45.269  59.849 -52.432  1.00  0.00    -0.014 A 
HETATM   22  C   UNL     1     -45.381  60.396 -53.716  1.00  0.00     0.016 A 
HETATM   23  C   UNL     1     -46.004  61.629 -53.894  1.00  0.00     0.040 A 
HETATM   24  C   UNL     1     -46.512  62.294 -52.786  1.00  0.00     0.099 A 
HETATM   25  C   UNL     1     -46.419  61.757 -51.495  1.00  0.00     0.102 A 
HETATM   26  C   UNL     1     -45.785  60.526 -51.317  1.00  0.00     0.052 A 
BRANCH  24  27
HETATM   27  O   UNL     1     -47.120  63.505 -52.985  1.00  0.00    -0.358 OA
HETATM   28  H   UNL     1     -47.029  63.979 -52.137  1.00  0.00     0.218 HD
ENDBRANCH  24  27
BRANCH  25  29
HETATM   29  O   UNL     1     -46.975  62.532 -50.509  1.00  0.00    -0.353 OA
HETATM   30  C   UNL     1     -46.375  62.458 -49.222  1.00  0.00     0.210 C 
ENDBRANCH  25  29
ENDBRANCH  20  21
ENDBRANCH   1  19
TORSDOF 5
ENDMDL
MODEL 7
REMARK VINA RESULT:      -7.7      5.282      9.526
REMARK  5 active torsions:
REMARK  status: ('A' for Active; 'I' for Inactive)
REMARK    1  A    between atoms: O_2  and  C_3 
REMARK    2  A    between atoms: C_4  and  O_5 
REMARK    3  A    between atoms: C_8  and  C_9 
REMARK    4  A    between atoms: N_10  and  N_11 
REMARK       I    between atoms: N_11  and  C_12 
REMARK    5  A    between atoms: C_12  and  C_13 
ROOT
HETATM    1  N   UNL     1     -41.640  55.703 -56.282  1.00  0.00    -0.242 N 
HETATM    2  C   UNL     1     -42.715  55.535 -57.142  1.00  0.00     0.292 C 
HETATM    3  O   UNL     1     -43.611  54.706 -57.001  1.00  0.00    -0.264 OA
HETATM    4  H   UNL     1     -40.969  56.433 -56.511  1.00  0.00     0.192 HD
ENDROOT
BRANCH   2   5
HETATM    5  C   UNL     1     -42.684  56.477 -58.274  1.00  0.00     0.154 A 
HETATM    6  N   UNL     1     -42.943  56.088 -59.546  1.00  0.00    -0.168 NA
HETATM    7  N   UNL     1     -42.779  57.215 -60.276  1.00  0.00    -0.276 N 
HETATM    8  H   UNL     1     -42.922  57.165 -61.278  1.00  0.00     0.189 HD
HETATM    9  C   UNL     1     -42.432  58.300 -59.533  1.00  0.00     0.069 A 
HETATM   10  C   UNL     1     -42.380  57.861 -58.229  1.00  0.00     0.007 A 
HETATM   11  C   UNL     1     -42.157  59.665 -59.949  1.00  0.00    -0.001 A 
HETATM   12  C   UNL     1     -42.006  58.770 -57.112  1.00  0.00     0.048 C 
HETATM   13  C   UNL     1     -42.323  60.242 -57.467  1.00  0.00     0.044 C 
HETATM   14  C   UNL     1     -42.044  60.628 -58.915  1.00  0.00    -0.045 A 
HETATM   15  C   UNL     1     -41.767  61.961 -59.242  1.00  0.00     0.008 A 
HETATM   16  C   UNL     1     -41.576  62.329 -60.575  1.00  0.00     0.001 A 
HETATM   17  C   UNL     1     -41.677  61.376 -61.588  1.00  0.00     0.001 A 
HETATM   18  C   UNL     1     -41.969  60.045 -61.280  1.00  0.00     0.014 A 
ENDBRANCH   2   5
BRANCH   1  19
HETATM   19  N   UNL     1     -41.532  54.946 -55.156  1.00  0.00    -0.184 NA
HETATM   20  C   UNL     1     -40.559  54.095 -55.129  1.00  0.00     0.150 C 
BRANCH  20  21
HETATM   21  C   UNL     1     -40.343  53.232 -53.948  1.00  0.00    -0.014 A 
HETATM   22  C   UNL     1     -39.947  51.899 -54.117  1.00  0.00     0.016 A 
HETATM   23  C   UNL     1     -39.755  51.086 -53.002  1.00  0.00     0.040 A 
HETATM   24  C   UNL     1     -39.954  51.618 -51.736  1.00  0.00     0.099 A 
HETATM   25  C   UNL     1     -40.338  52.953 -51.548  1.00  0.00     0.102 A 
HETATM   26  C   UNL     1     -40.541  53.764 -52.665  1.00  0.00     0.052 A 
BRANCH  24  27
HETATM   27  O   UNL     1     -39.759  50.800 -50.656  1.00  0.00    -0.358 OA
HETATM   28  H   UNL     1     -39.667  49.902 -51.028  1.00  0.00     0.218 HD
ENDBRANCH  24  27
BRANCH  25  29
HETATM   29  O   UNL     1     -40.487  53.328 -50.237  1.00  0.00    -0.353 OA
HETATM   30  C   UNL     1     -41.529  54.254 -49.950  1.00  0.00     0.210 C 
ENDBRANCH  25  29
ENDBRANCH  20  21
ENDBRANCH   1  19
TORSDOF 5
ENDMDL
MODEL 8
REMARK VINA RESULT:      -7.4      5.506     10.352
REMARK  5 active torsions:
REMARK  status: ('A' for Active; 'I' for Inactive)
REMARK    1  A    between atoms: O_2  and  C_3 
REMARK    2  A    between atoms: C_4  and  O_5 
REMARK    3  A    between atoms: C_8  and  C_9 
REMARK    4  A    between atoms: N_10  and  N_11 
REMARK       I    between atoms: N_11  and  C_12 
REMARK    5  A    between atoms: C_12  and  C_13 
ROOT
HETATM    1  N   UNL     1     -43.820  56.063 -56.495  1.00  0.00    -0.242 N 
HETATM    2  C   UNL     1     -43.310  56.977 -57.405  1.00  0.00     0.292 C 
HETATM    3  O   UNL     1     -42.204  57.508 -57.330  1.00  0.00    -0.264 OA
HETATM    4  H   UNL     1     -44.748  55.690 -56.678  1.00  0.00     0.192 HD
ENDROOT
BRANCH   2   5
HETATM    5  C   UNL     1     -44.244  57.255 -58.509  1.00  0.00     0.154 A 
HETATM    6  N   UNL     1     -44.137  56.651 -59.717  1.00  0.00    -0.168 NA
HETATM    7  N   UNL     1     -45.138  57.194 -60.447  1.00  0.00    -0.276 N 
HETATM    8  H   UNL     1     -45.255  56.888 -61.407  1.00  0.00     0.189 HD
HETATM    9  C   UNL     1     -45.877  58.109 -59.765  1.00  0.00     0.069 A 
HETATM   10  C   UNL     1     -45.336  58.159 -58.500  1.00  0.00     0.007 A 
HETATM   11  C   UNL     1     -47.009  58.907 -60.203  1.00  0.00    -0.001 A 
HETATM   12  C   UNL     1     -45.869  59.077 -57.457  1.00  0.00     0.048 C 
HETATM   13  C   UNL     1     -47.355  59.415 -57.724  1.00  0.00     0.044 C 
HETATM   14  C   UNL     1     -47.716  59.608 -59.193  1.00  0.00    -0.045 A 
HETATM   15  C   UNL     1     -48.810  60.407 -59.545  1.00  0.00     0.008 A 
HETATM   16  C   UNL     1     -49.183  60.532 -60.884  1.00  0.00     0.001 A 
HETATM   17  C   UNL     1     -48.478  59.850 -61.876  1.00  0.00     0.001 A 
HETATM   18  C   UNL     1     -47.394  59.036 -61.540  1.00  0.00     0.014 A 
ENDBRANCH   2   5
BRANCH   1  19
HETATM   19  N   UNL     1     -43.072  55.655 -55.434  1.00  0.00    -0.184 NA
HETATM   20  C   UNL     1     -42.697  54.417 -55.438  1.00  0.00     0.150 C 
BRANCH  20  21
HETATM   21  C   UNL     1     -41.870  53.873 -54.339  1.00  0.00    -0.014 A 
HETATM   22  C   UNL     1     -41.928  54.453 -53.066  1.00  0.00     0.016 A 
HETATM   23  C   UNL     1     -41.139  53.946 -52.036  1.00  0.00     0.040 A 
HETATM   24  C   UNL     1     -40.310  52.863 -52.292  1.00  0.00     0.099 A 
HETATM   25  C   UNL     1     -40.248  52.262 -53.557  1.00  0.00     0.102 A 
HETATM   26  C   UNL     1     -41.031  52.778 -54.591  1.00  0.00     0.052 A 
BRANCH  24  27
HETATM   27  O   UNL     1     -39.544  52.381 -51.264  1.00  0.00    -0.358 OA
HETATM   28  H   UNL     1     -39.038  53.151 -50.940  1.00  0.00     0.218 HD
ENDBRANCH  24  27
BRANCH  25  29
HETATM   29  O   UNL     1     -39.387  51.199 -53.646  1.00  0.00    -0.353 OA
HETATM   30  C   UNL     1     -39.845  50.062 -54.368  1.00  0.00     0.210 C 
ENDBRANCH  25  29
ENDBRANCH  20  21
ENDBRANCH   1  19
TORSDOF 5
ENDMDL
MODEL 9
REMARK VINA RESULT:      -7.3      1.828      2.578
REMARK  5 active torsions:
REMARK  status: ('A' for Active; 'I' for Inactive)
REMARK    1  A    between atoms: O_2  and  C_3 
REMARK    2  A    between atoms: C_4  and  O_5 
REMARK    3  A    between atoms: C_8  and  C_9 
REMARK    4  A    between atoms: N_10  and  N_11 
REMARK       I    between atoms: N_11  and  C_12 
REMARK    5  A    between atoms: C_12  and  C_13 
ROOT
HETATM    1  N   UNL     1     -42.912  59.221 -52.358  1.00  0.00    -0.242 N 
HETATM    2  C   UNL     1     -41.637  58.748 -52.088  1.00  0.00     0.292 C 
HETATM    3  O   UNL     1     -40.841  59.267 -51.307  1.00  0.00    -0.264 OA
HETATM    4  H   UNL     1     -43.475  58.693 -53.021  1.00  0.00     0.192 HD
ENDROOT
BRANCH   2   5
HETATM    5  C   UNL     1     -41.317  57.525 -52.843  1.00  0.00     0.154 A 
HETATM    6  N   UNL     1     -41.258  57.505 -54.197  1.00  0.00    -0.168 NA
HETATM    7  N   UNL     1     -40.979  56.216 -54.496  1.00  0.00    -0.276 N 
HETATM    8  H   UNL     1     -40.888  55.957 -55.472  1.00  0.00     0.189 HD
HETATM    9  C   UNL     1     -40.856  55.417 -53.403  1.00  0.00     0.069 A 
HETATM   10  C   UNL     1     -41.050  56.237 -52.314  1.00  0.00     0.007 A 
HETATM   11  C   UNL     1     -40.579  53.993 -53.315  1.00  0.00    -0.001 A 
HETATM   12  C   UNL     1     -41.013  55.712 -50.923  1.00  0.00     0.048 C 
HETATM   13  C   UNL     1     -40.150  54.431 -50.837  1.00  0.00     0.044 C 
HETATM   14  C   UNL     1     -40.283  53.486 -52.026  1.00  0.00    -0.045 A 
HETATM   15  C   UNL     1     -40.020  52.120 -51.865  1.00  0.00     0.008 A 
HETATM   16  C   UNL     1     -40.076  51.263 -52.965  1.00  0.00     0.001 A 
HETATM   17  C   UNL     1     -40.379  51.764 -54.231  1.00  0.00     0.001 A 
HETATM   18  C   UNL     1     -40.629  53.126 -54.410  1.00  0.00     0.014 A 
ENDBRANCH   2   5
BRANCH   1  19
HETATM   19  N   UNL     1     -43.393  60.319 -51.714  1.00  0.00    -0.184 NA
HETATM   20  C   UNL     1     -43.906  60.120 -50.545  1.00  0.00     0.150 C 
BRANCH  20  21
HETATM   21  C   UNL     1     -44.445  61.247 -49.753  1.00  0.00    -0.014 A 
HETATM   22  C   UNL     1     -43.809  62.494 -49.787  1.00  0.00     0.016 A 
HETATM   23  C   UNL     1     -44.313  63.550 -49.032  1.00  0.00     0.040 A 
HETATM   24  C   UNL     1     -45.449  63.347 -48.260  1.00  0.00     0.099 A 
HETATM   25  C   UNL     1     -46.105  62.109 -48.224  1.00  0.00     0.102 A 
HETATM   26  C   UNL     1     -45.593  61.048 -48.972  1.00  0.00     0.052 A 
BRANCH  24  27
HETATM   27  O   UNL     1     -45.926  64.400 -47.526  1.00  0.00    -0.358 OA
HETATM   28  H   UNL     1     -46.584  64.012 -46.919  1.00  0.00     0.218 HD
ENDBRANCH  24  27
BRANCH  25  29
HETATM   29  O   UNL     1     -47.216  62.071 -47.420  1.00  0.00    -0.353 OA
HETATM   30  C   UNL     1     -47.194  61.146 -46.339  1.00  0.00     0.210 C 
ENDBRANCH  25  29
ENDBRANCH  20  21
ENDBRANCH   1  19
TORSDOF 5
ENDMDL
MODEL 10
REMARK VINA RESULT:      -7.2     17.124     19.795
REMARK  5 active torsions:
REMARK  status: ('A' for Active; 'I' for Inactive)
REMARK    1  A    between atoms: O_2  and  C_3 
REMARK    2  A    between atoms: C_4  and  O_5 
REMARK    3  A    between atoms: C_8  and  C_9 
REMARK    4  A    between atoms: N_10  and  N_11 
REMARK       I    between atoms: N_11  and  C_12 
REMARK    5  A    between atoms: C_12  and  C_13 
ROOT
HETATM    1  N   UNL     1     -37.603  39.828 -56.595  1.00  0.00    -0.242 N 
HETATM    2  C   UNL     1     -37.201  41.063 -56.107  1.00  0.00     0.292 C 
HETATM    3  O   UNL     1     -37.262  42.122 -56.727  1.00  0.00    -0.264 OA
HETATM    4  H   UNL     1     -37.507  39.028 -55.975  1.00  0.00     0.192 HD
ENDROOT
BRANCH   2   5
HETATM    5  C   UNL     1     -36.684  40.984 -54.731  1.00  0.00     0.154 A 
HETATM    6  N   UNL     1     -37.454  41.265 -53.651  1.00  0.00    -0.168 NA
HETATM    7  N   UNL     1     -36.616  41.115 -52.600  1.00  0.00    -0.276 N 
HETATM    8  H   UNL     1     -36.978  41.278 -51.668  1.00  0.00     0.189 HD
HETATM    9  C   UNL     1     -35.354  40.751 -52.956  1.00  0.00     0.069 A 
HETATM   10  C   UNL     1     -35.369  40.639 -54.328  1.00  0.00     0.007 A 
HETATM   11  C   UNL     1     -34.184  40.511 -52.128  1.00  0.00    -0.001 A 
HETATM   12  C   UNL     1     -34.147  40.276 -55.096  1.00  0.00     0.048 C 
HETATM   13  C   UNL     1     -33.164  39.464 -54.221  1.00  0.00     0.044 C 
HETATM   14  C   UNL     1     -33.067  39.921 -52.769  1.00  0.00    -0.045 A 
HETATM   15  C   UNL     1     -31.901  39.674 -52.035  1.00  0.00     0.008 A 
HETATM   16  C   UNL     1     -31.834  40.032 -50.688  1.00  0.00     0.001 A 
HETATM   17  C   UNL     1     -32.932  40.623 -50.063  1.00  0.00     0.001 A 
HETATM   18  C   UNL     1     -34.107  40.863 -50.777  1.00  0.00     0.014 A 
ENDBRANCH   2   5
BRANCH   1  19
HETATM   19  N   UNL     1     -38.150  39.722 -57.837  1.00  0.00    -0.184 NA
HETATM   20  C   UNL     1     -37.735  38.735 -58.563  1.00  0.00     0.150 C 
BRANCH  20  21
HETATM   21  C   UNL     1     -38.274  38.520 -59.923  1.00  0.00    -0.014 A 
HETATM   22  C   UNL     1     -39.598  38.095 -60.094  1.00  0.00     0.016 A 
HETATM   23  C   UNL     1     -40.098  37.883 -61.376  1.00  0.00     0.040 A 
HETATM   24  C   UNL     1     -39.271  38.104 -62.469  1.00  0.00     0.099 A 
HETATM   25  C   UNL     1     -37.948  38.540 -62.317  1.00  0.00     0.102 A 
HETATM   26  C   UNL     1     -37.443  38.742 -61.032  1.00  0.00     0.052 A 
BRANCH  24  27
HETATM   27  O   UNL     1     -39.785  37.888 -63.720  1.00  0.00    -0.358 OA
HETATM   28  H   UNL     1     -40.017  36.940 -63.741  1.00  0.00     0.218 HD
ENDBRANCH  24  27
BRANCH  25  29
HETATM   29  O   UNL     1     -37.264  38.719 -63.493  1.00  0.00    -0.353 OA
HETATM   30  C   UNL     1     -36.249  37.769 -63.795  1.00  0.00     0.210 C 
ENDBRANCH  25  29
ENDBRANCH  20  21
ENDBRANCH   1  19
TORSDOF 5
ENDMDL
