MODEL 1
REMARK VINA RESULT:      -8.5      0.000      0.000
REMARK  2 active torsions:
REMARK  status: ('A' for Active; 'I' for Inactive)
REMARK    1  A    between atoms: C_4  and  N_5 
REMARK    2  A    between atoms: C_12  and  C_13 
ROOT
HETATM    1  N   UNL     1     -41.316  53.547 -54.061  1.00  0.00    -0.236 N 
HETATM    2  N   UNL     1     -40.832  54.163 -55.236  1.00  0.00    -0.179 NA
HETATM    3  C   UNL     1     -41.687  55.215 -55.500  1.00  0.00     0.119 A 
HETATM    4  C   UNL     1     -42.629  55.352 -54.552  1.00  0.00     0.123 A 
HETATM    5  C   UNL     1     -42.425  54.263 -53.583  1.00  0.00     0.280 A 
HETATM    6  O   UNL     1     -43.117  54.065 -52.599  1.00  0.00    -0.265 OA
HETATM    7  N   UNL     1     -41.663  56.035 -56.596  1.00  0.00    -0.344 N 
HETATM    8  C   UNL     1     -42.549  57.087 -56.734  1.00  0.00     0.047 A 
HETATM    9  C   UNL     1     -43.531  57.307 -55.840  1.00  0.00     0.086 A 
HETATM   10  C   UNL     1     -43.641  56.406 -54.653  1.00  0.00     0.193 A 
HETATM   11  O   UNL     1     -44.537  56.576 -53.839  1.00  0.00    -0.287 OA
HETATM   12  H   UNL     1     -40.805  53.517 -56.025  1.00  0.00     0.155 HD
HETATM   13  H   UNL     1     -40.816  56.045 -57.157  1.00  0.00     0.167 HD
ENDROOT
BRANCH   8  14
HETATM   14  C   UNL     1     -42.405  57.953 -57.921  1.00  0.00    -0.009 A 
HETATM   15  C   UNL     1     -42.173  59.332 -57.790  1.00  0.00     0.015 A 
HETATM   16  C   UNL     1     -42.033  60.140 -58.922  1.00  0.00     0.024 A 
HETATM   17  C   UNL     1     -42.119  59.575 -60.193  1.00  0.00     0.034 A 
HETATM   18 CL   UNL     1     -41.946  60.569 -61.585  1.00  0.00    -0.084 Cl
HETATM   19  C   UNL     1     -42.344  58.208 -60.341  1.00  0.00     0.024 A 
HETATM   20  C   UNL     1     -42.485  57.401 -59.208  1.00  0.00     0.015 A 
ENDBRANCH   8  14
BRANCH   1  21
HETATM   21  C   UNL     1     -40.682  52.404 -53.531  1.00  0.00     0.055 A 
HETATM   22  C   UNL     1     -40.160  52.397 -52.231  1.00  0.00     0.031 A 
HETATM   23  C   UNL     1     -39.550  51.254 -51.705  1.00  0.00     0.002 A 
HETATM   24  C   UNL     1     -39.448  50.099 -52.474  1.00  0.00     0.000 A 
HETATM   25  C   UNL     1     -39.949  50.088 -53.771  1.00  0.00     0.002 A 
HETATM   26  C   UNL     1     -40.560  51.231 -54.296  1.00  0.00     0.031 A 
ENDBRANCH   1  21
TORSDOF 2
ENDMDL
MODEL 2
REMARK VINA RESULT:      -8.5      3.838      8.178
REMARK  2 active torsions:
REMARK  status: ('A' for Active; 'I' for Inactive)
REMARK    1  A    between atoms: C_4  and  N_5 
REMARK    2  A    between atoms: C_12  and  C_13 
ROOT
HETATM    1  N   UNL     1     -43.458  56.245 -57.359  1.00  0.00    -0.236 N 
HETATM    2  N   UNL     1     -43.222  54.942 -56.869  1.00  0.00    -0.179 NA
HETATM    3  C   UNL     1     -42.419  55.090 -55.754  1.00  0.00     0.119 A 
HETATM    4  C   UNL     1     -42.188  56.381 -55.464  1.00  0.00     0.123 A 
HETATM    5  C   UNL     1     -42.851  57.181 -56.506  1.00  0.00     0.280 A 
HETATM    6  O   UNL     1     -42.830  58.398 -56.572  1.00  0.00    -0.265 OA
HETATM    7  N   UNL     1     -41.859  54.087 -55.009  1.00  0.00    -0.344 N 
HETATM    8  C   UNL     1     -41.102  54.355 -53.883  1.00  0.00     0.047 A 
HETATM    9  C   UNL     1     -40.811  55.616 -53.511  1.00  0.00     0.086 A 
HETATM   10  C   UNL     1     -41.349  56.750 -54.322  1.00  0.00     0.193 A 
HETATM   11  O   UNL     1     -41.081  57.902 -54.012  1.00  0.00    -0.287 OA
HETATM   12  H   UNL     1     -42.765  54.348 -57.561  1.00  0.00     0.155 HD
HETATM   13  H   UNL     1     -42.238  53.152 -55.119  1.00  0.00     0.167 HD
ENDROOT
BRANCH   8  14
HETATM   14  C   UNL     1     -40.592  53.206 -53.111  1.00  0.00    -0.009 A 
HETATM   15  C   UNL     1     -40.561  53.230 -51.707  1.00  0.00     0.015 A 
HETATM   16  C   UNL     1     -40.079  52.132 -50.988  1.00  0.00     0.024 A 
HETATM   17  C   UNL     1     -39.630  51.001 -51.666  1.00  0.00     0.034 A 
HETATM   18 CL   UNL     1     -39.037  49.651 -50.781  1.00  0.00    -0.084 Cl
HETATM   19  C   UNL     1     -39.658  50.959 -53.058  1.00  0.00     0.024 A 
HETATM   20  C   UNL     1     -40.138  52.057 -53.777  1.00  0.00     0.015 A 
ENDBRANCH   8  14
BRANCH   1  21
HETATM   21  C   UNL     1     -44.225  56.449 -58.526  1.00  0.00     0.055 A 
HETATM   22  C   UNL     1     -44.093  55.608 -59.639  1.00  0.00     0.031 A 
HETATM   23  C   UNL     1     -44.870  55.804 -60.785  1.00  0.00     0.002 A 
HETATM   24  C   UNL     1     -45.789  56.847 -60.838  1.00  0.00     0.000 A 
HETATM   25  C   UNL     1     -45.927  57.700 -59.748  1.00  0.00     0.002 A 
HETATM   26  C   UNL     1     -45.151  57.503 -58.602  1.00  0.00     0.031 A 
ENDBRANCH   1  21
TORSDOF 2
ENDMDL
MODEL 3
REMARK VINA RESULT:      -8.4      3.568      8.257
REMARK  2 active torsions:
REMARK  status: ('A' for Active; 'I' for Inactive)
REMARK    1  A    between atoms: C_4  and  N_5 
REMARK    2  A    between atoms: C_12  and  C_13 
ROOT
HETATM    1  N   UNL     1     -42.487  57.590 -56.865  1.00  0.00    -0.236 N 
HETATM    2  N   UNL     1     -42.110  56.239 -56.701  1.00  0.00    -0.179 NA
HETATM    3  C   UNL     1     -41.823  56.080 -55.359  1.00  0.00     0.119 A 
HETATM    4  C   UNL     1     -42.053  57.201 -54.656  1.00  0.00     0.123 A 
HETATM    5  C   UNL     1     -42.486  58.230 -55.616  1.00  0.00     0.280 A 
HETATM    6  O   UNL     1     -42.758  59.382 -55.329  1.00  0.00    -0.265 OA
HETATM    7  N   UNL     1     -41.324  54.957 -54.756  1.00  0.00    -0.344 N 
HETATM    8  C   UNL     1     -41.114  54.900 -53.390  1.00  0.00     0.047 A 
HETATM    9  C   UNL     1     -41.311  55.971 -52.599  1.00  0.00     0.086 A 
HETATM   10  C   UNL     1     -41.800  57.242 -53.214  1.00  0.00     0.193 A 
HETATM   11  O   UNL     1     -41.968  58.232 -52.516  1.00  0.00    -0.287 OA
HETATM   12  H   UNL     1     -41.301  55.994 -57.271  1.00  0.00     0.155 HD
HETATM   13  H   UNL     1     -41.384  54.082 -55.268  1.00  0.00     0.167 HD
ENDROOT
BRANCH   8  14
HETATM   14  C   UNL     1     -40.631  53.625 -52.825  1.00  0.00    -0.009 A 
HETATM   15  C   UNL     1     -40.206  52.576 -53.655  1.00  0.00     0.015 A 
HETATM   16  C   UNL     1     -39.747  51.375 -53.106  1.00  0.00     0.024 A 
HETATM   17  C   UNL     1     -39.704  51.217 -51.722  1.00  0.00     0.034 A 
HETATM   18 CL   UNL     1     -39.138  49.741 -51.047  1.00  0.00    -0.084 Cl
HETATM   19  C   UNL     1     -40.117  52.249 -50.883  1.00  0.00     0.024 A 
HETATM   20  C   UNL     1     -40.578  53.449 -51.433  1.00  0.00     0.015 A 
ENDBRANCH   8  14
BRANCH   1  21
HETATM   21  C   UNL     1     -42.814  58.098 -58.141  1.00  0.00     0.055 A 
HETATM   22  C   UNL     1     -41.821  58.384 -59.087  1.00  0.00     0.031 A 
HETATM   23  C   UNL     1     -42.154  58.869 -60.356  1.00  0.00     0.002 A 
HETATM   24  C   UNL     1     -43.486  59.079 -60.698  1.00  0.00     0.000 A 
HETATM   25  C   UNL     1     -44.487  58.811 -59.770  1.00  0.00     0.002 A 
HETATM   26  C   UNL     1     -44.153  58.325 -58.501  1.00  0.00     0.031 A 
ENDBRANCH   1  21
TORSDOF 2
ENDMDL
MODEL 4
REMARK VINA RESULT:      -8.3      2.870      3.318
REMARK  2 active torsions:
REMARK  status: ('A' for Active; 'I' for Inactive)
REMARK    1  A    between atoms: C_4  and  N_5 
REMARK    2  A    between atoms: C_12  and  C_13 
ROOT
HETATM    1  N   UNL     1     -41.359  54.660 -54.517  1.00  0.00    -0.236 N 
HETATM    2  N   UNL     1     -42.239  54.245 -55.540  1.00  0.00    -0.179 NA
HETATM    3  C   UNL     1     -42.690  55.399 -56.152  1.00  0.00     0.119 A 
HETATM    4  C   UNL     1     -42.114  56.500 -55.641  1.00  0.00     0.123 A 
HETATM    5  C   UNL     1     -41.231  56.058 -54.550  1.00  0.00     0.280 A 
HETATM    6  O   UNL     1     -40.566  56.798 -53.846  1.00  0.00    -0.265 OA
HETATM    7  N   UNL     1     -43.636  55.488 -57.137  1.00  0.00    -0.344 N 
HETATM    8  C   UNL     1     -43.980  56.701 -57.705  1.00  0.00     0.047 A 
HETATM    9  C   UNL     1     -43.462  57.862 -57.262  1.00  0.00     0.086 A 
HETATM   10  C   UNL     1     -42.467  57.829 -56.148  1.00  0.00     0.193 A 
HETATM   11  O   UNL     1     -41.998  58.873 -55.717  1.00  0.00    -0.287 OA
HETATM   12  H   UNL     1     -43.023  53.704 -55.177  1.00  0.00     0.155 HD
HETATM   13  H   UNL     1     -43.869  54.639 -57.643  1.00  0.00     0.167 HD
ENDROOT
BRANCH   8  14
HETATM   14  C   UNL     1     -44.966  56.688 -58.803  1.00  0.00    -0.009 A 
HETATM   15  C   UNL     1     -44.910  55.719 -59.819  1.00  0.00     0.015 A 
HETATM   16  C   UNL     1     -45.853  55.716 -60.851  1.00  0.00     0.024 A 
HETATM   17  C   UNL     1     -46.862  56.677 -60.872  1.00  0.00     0.034 A 
HETATM   18 CL   UNL     1     -48.022  56.672 -62.141  1.00  0.00    -0.084 Cl
HETATM   19  C   UNL     1     -46.935  57.641 -59.870  1.00  0.00     0.024 A 
HETATM   20  C   UNL     1     -45.991  57.646 -58.839  1.00  0.00     0.015 A 
ENDBRANCH   8  14
BRANCH   1  21
HETATM   21  C   UNL     1     -40.743  53.716 -53.668  1.00  0.00     0.055 A 
HETATM   22  C   UNL     1     -40.680  53.916 -52.282  1.00  0.00     0.031 A 
HETATM   23  C   UNL     1     -40.086  52.966 -51.445  1.00  0.00     0.002 A 
HETATM   24  C   UNL     1     -39.541  51.803 -51.980  1.00  0.00     0.000 A 
HETATM   25  C   UNL     1     -39.585  51.591 -53.354  1.00  0.00     0.002 A 
HETATM   26  C   UNL     1     -40.180  52.540 -54.191  1.00  0.00     0.031 A 
ENDBRANCH   1  21
TORSDOF 2
ENDMDL
MODEL 5
REMARK VINA RESULT:      -8.0      5.695      8.563
REMARK  2 active torsions:
REMARK  status: ('A' for Active; 'I' for Inactive)
REMARK    1  A    between atoms: C_4  and  N_5 
REMARK    2  A    between atoms: C_12  and  C_13 
ROOT
HETATM    1  N   UNL     1     -43.326  60.252 -51.072  1.00  0.00    -0.236 N 
HETATM    2  N   UNL     1     -43.042  58.899 -50.785  1.00  0.00    -0.179 NA
HETATM    3  C   UNL     1     -42.441  58.383 -51.918  1.00  0.00     0.119 A 
HETATM    4  C   UNL     1     -42.265  59.317 -52.867  1.00  0.00     0.123 A 
HETATM    5  C   UNL     1     -42.844  60.569 -52.352  1.00  0.00     0.280 A 
HETATM    6  O   UNL     1     -42.882  61.624 -52.961  1.00  0.00    -0.265 OA
HETATM    7  N   UNL     1     -42.080  57.080 -52.132  1.00  0.00    -0.344 N 
HETATM    8  C   UNL     1     -41.445  56.686 -53.296  1.00  0.00     0.047 A 
HETATM    9  C   UNL     1     -41.225  57.546 -54.308  1.00  0.00     0.086 A 
HETATM   10  C   UNL     1     -41.652  58.969 -54.151  1.00  0.00     0.193 A 
HETATM   11  O   UNL     1     -41.479  59.763 -55.065  1.00  0.00    -0.287 OA
HETATM   12  H   UNL     1     -43.883  58.369 -50.555  1.00  0.00     0.155 HD
HETATM   13  H   UNL     1     -42.019  56.470 -51.323  1.00  0.00     0.167 HD
ENDROOT
BRANCH   8  14
HETATM   14  C   UNL     1     -41.039  55.272 -53.409  1.00  0.00    -0.009 A 
HETATM   15  C   UNL     1     -41.030  54.426 -52.288  1.00  0.00     0.015 A 
HETATM   16  C   UNL     1     -40.648  53.087 -52.410  1.00  0.00     0.024 A 
HETATM   17  C   UNL     1     -40.277  52.582 -53.655  1.00  0.00     0.034 A 
HETATM   18 CL   UNL     1     -39.808  50.935 -53.805  1.00  0.00    -0.084 Cl
HETATM   19  C   UNL     1     -40.285  53.405 -54.778  1.00  0.00     0.024 A 
HETATM   20  C   UNL     1     -40.666  54.745 -54.655  1.00  0.00     0.015 A 
ENDBRANCH   8  14
BRANCH   1  21
HETATM   21  C   UNL     1     -43.981  61.068 -50.125  1.00  0.00     0.055 A 
HETATM   22  C   UNL     1     -43.552  62.377 -49.872  1.00  0.00     0.031 A 
HETATM   23  C   UNL     1     -44.217  63.187 -48.946  1.00  0.00     0.002 A 
HETATM   24  C   UNL     1     -45.321  62.699 -48.255  1.00  0.00     0.000 A 
HETATM   25  C   UNL     1     -45.757  61.398 -48.484  1.00  0.00     0.002 A 
HETATM   26  C   UNL     1     -45.092  60.588 -49.410  1.00  0.00     0.031 A 
ENDBRANCH   1  21
TORSDOF 2
ENDMDL
MODEL 6
REMARK VINA RESULT:      -7.9      5.346      8.496
REMARK  2 active torsions:
REMARK  status: ('A' for Active; 'I' for Inactive)
REMARK    1  A    between atoms: C_4  and  N_5 
REMARK    2  A    between atoms: C_12  and  C_13 
ROOT
HETATM    1  N   UNL     1     -43.993  59.712 -51.244  1.00  0.00    -0.236 N 
HETATM    2  N   UNL     1     -42.991  58.746 -51.001  1.00  0.00    -0.179 NA
HETATM    3  C   UNL     1     -43.158  57.769 -51.963  1.00  0.00     0.119 A 
HETATM    4  C   UNL     1     -44.138  58.074 -52.830  1.00  0.00     0.123 A 
HETATM    5  C   UNL     1     -44.723  59.349 -52.386  1.00  0.00     0.280 A 
HETATM    6  O   UNL     1     -45.656  59.916 -52.929  1.00  0.00    -0.265 OA
HETATM    7  N   UNL     1     -42.472  56.588 -52.058  1.00  0.00    -0.344 N 
HETATM    8  C   UNL     1     -42.697  55.700 -53.094  1.00  0.00     0.047 A 
HETATM    9  C   UNL     1     -43.659  55.913 -54.011  1.00  0.00     0.086 A 
HETATM   10  C   UNL     1     -44.479  57.159 -53.922  1.00  0.00     0.193 A 
HETATM   11  O   UNL     1     -45.370  57.363 -54.734  1.00  0.00    -0.287 OA
HETATM   12  H   UNL     1     -43.064  58.344 -50.066  1.00  0.00     0.155 HD
HETATM   13  H   UNL     1     -41.605  56.505 -51.536  1.00  0.00     0.167 HD
ENDROOT
BRANCH   8  14
HETATM   14  C   UNL     1     -41.865  54.483 -53.145  1.00  0.00    -0.009 A 
HETATM   15  C   UNL     1     -41.082  54.090 -52.047  1.00  0.00     0.015 A 
HETATM   16  C   UNL     1     -40.302  52.932 -52.108  1.00  0.00     0.024 A 
HETATM   17  C   UNL     1     -40.302  52.155 -53.265  1.00  0.00     0.034 A 
HETATM   18 CL   UNL     1     -39.342  50.730 -53.339  1.00  0.00    -0.084 Cl
HETATM   19  C   UNL     1     -41.076  52.527 -54.361  1.00  0.00     0.024 A 
HETATM   20  C   UNL     1     -41.855  53.686 -54.301  1.00  0.00     0.015 A 
ENDBRANCH   8  14
BRANCH   1  21
HETATM   21  C   UNL     1     -44.124  60.841 -50.407  1.00  0.00     0.055 A 
HETATM   22  C   UNL     1     -43.356  61.994 -50.615  1.00  0.00     0.031 A 
HETATM   23  C   UNL     1     -43.506  63.116 -49.793  1.00  0.00     0.002 A 
HETATM   24  C   UNL     1     -44.424  63.102 -48.748  1.00  0.00     0.000 A 
HETATM   25  C   UNL     1     -45.189  61.963 -48.518  1.00  0.00     0.002 A 
HETATM   26  C   UNL     1     -45.040  60.841 -49.341  1.00  0.00     0.031 A 
ENDBRANCH   1  21
TORSDOF 2
ENDMDL
MODEL 7
REMARK VINA RESULT:      -7.9      4.976      8.335
REMARK  2 active torsions:
REMARK  status: ('A' for Active; 'I' for Inactive)
REMARK    1  A    between atoms: C_4  and  N_5 
REMARK    2  A    between atoms: C_12  and  C_13 
ROOT
HETATM    1  N   UNL     1     -43.152  58.915 -51.751  1.00  0.00    -0.236 N 
HETATM    2  N   UNL     1     -42.663  57.708 -51.205  1.00  0.00    -0.179 NA
HETATM    3  C   UNL     1     -42.242  56.944 -52.277  1.00  0.00     0.119 A 
HETATM    4  C   UNL     1     -42.364  57.597 -53.444  1.00  0.00     0.123 A 
HETATM    5  C   UNL     1     -42.970  58.905 -53.143  1.00  0.00     0.280 A 
HETATM    6  O   UNL     1     -43.248  59.753 -53.973  1.00  0.00    -0.265 OA
HETATM    7  N   UNL     1     -41.783  55.655 -52.233  1.00  0.00    -0.344 N 
HETATM    8  C   UNL     1     -41.348  55.001 -53.371  1.00  0.00     0.047 A 
HETATM    9  C   UNL     1     -41.432  55.569 -54.589  1.00  0.00     0.086 A 
HETATM   10  C   UNL     1     -41.980  56.954 -54.702  1.00  0.00     0.193 A 
HETATM   11  O   UNL     1     -42.083  57.482 -55.801  1.00  0.00    -0.287 OA
HETATM   12  H   UNL     1     -43.376  57.212 -50.670  1.00  0.00     0.155 HD
HETATM   13  H   UNL     1     -41.494  55.289 -51.331  1.00  0.00     0.167 HD
ENDROOT
BRANCH   8  14
HETATM   14  C   UNL     1     -40.813  53.635 -53.214  1.00  0.00    -0.009 A 
HETATM   15  C   UNL     1     -40.302  53.191 -51.983  1.00  0.00     0.015 A 
HETATM   16  C   UNL     1     -39.802  51.893 -51.847  1.00  0.00     0.024 A 
HETATM   17  C   UNL     1     -39.815  51.026 -52.938  1.00  0.00     0.034 A 
HETATM   18 CL   UNL     1     -39.200  49.429 -52.769  1.00  0.00    -0.084 Cl
HETATM   19  C   UNL     1     -40.323  51.448 -54.164  1.00  0.00     0.024 A 
HETATM   20  C   UNL     1     -40.821  52.747 -54.301  1.00  0.00     0.015 A 
ENDBRANCH   8  14
BRANCH   1  21
HETATM   21  C   UNL     1     -43.696  59.915 -50.918  1.00  0.00     0.055 A 
HETATM   22  C   UNL     1     -42.947  61.038 -50.544  1.00  0.00     0.031 A 
HETATM   23  C   UNL     1     -43.499  62.035 -49.733  1.00  0.00     0.002 A 
HETATM   24  C   UNL     1     -44.810  61.924 -49.281  1.00  0.00     0.000 A 
HETATM   25  C   UNL     1     -45.568  60.812 -49.633  1.00  0.00     0.002 A 
HETATM   26  C   UNL     1     -45.015  59.815 -50.444  1.00  0.00     0.031 A 
ENDBRANCH   1  21
TORSDOF 2
ENDMDL
MODEL 8
REMARK VINA RESULT:      -7.9      4.934      6.264
REMARK  2 active torsions:
REMARK  status: ('A' for Active; 'I' for Inactive)
REMARK    1  A    between atoms: C_4  and  N_5 
REMARK    2  A    between atoms: C_12  and  C_13 
ROOT
HETATM    1  N   UNL     1     -42.007  54.870 -52.619  1.00  0.00    -0.236 N 
HETATM    2  N   UNL     1     -41.883  55.836 -51.597  1.00  0.00    -0.179 NA
HETATM    3  C   UNL     1     -42.798  56.829 -51.893  1.00  0.00     0.119 A 
HETATM    4  C   UNL     1     -43.532  56.533 -52.978  1.00  0.00     0.123 A 
HETATM    5  C   UNL     1     -43.037  55.248 -53.496  1.00  0.00     0.280 A 
HETATM    6  O   UNL     1     -43.460  54.685 -54.491  1.00  0.00    -0.265 OA
HETATM    7  N   UNL     1     -42.964  58.014 -51.228  1.00  0.00    -0.344 N 
HETATM    8  C   UNL     1     -43.946  58.918 -51.592  1.00  0.00     0.047 A 
HETATM    9  C   UNL     1     -44.731  58.715 -52.666  1.00  0.00     0.086 A 
HETATM   10  C   UNL     1     -44.554  57.464 -53.463  1.00  0.00     0.193 A 
HETATM   11  O   UNL     1     -45.244  57.269 -54.454  1.00  0.00    -0.287 OA
HETATM   12  H   UNL     1     -40.941  56.223 -51.546  1.00  0.00     0.155 HD
HETATM   13  H   UNL     1     -42.561  58.093 -50.300  1.00  0.00     0.167 HD
ENDROOT
BRANCH   8  14
HETATM   14  C   UNL     1     -44.087  60.140 -50.776  1.00  0.00    -0.009 A 
HETATM   15  C   UNL     1     -45.153  60.293 -49.875  1.00  0.00     0.015 A 
HETATM   16  C   UNL     1     -45.273  61.454 -49.106  1.00  0.00     0.024 A 
HETATM   17  C   UNL     1     -44.324  62.468 -49.227  1.00  0.00     0.034 A 
HETATM   18 CL   UNL     1     -44.471  63.895 -48.280  1.00  0.00    -0.084 Cl
HETATM   19  C   UNL     1     -43.257  62.330 -50.112  1.00  0.00     0.024 A 
HETATM   20  C   UNL     1     -43.139  61.170 -50.883  1.00  0.00     0.015 A 
ENDBRANCH   8  14
BRANCH   1  21
HETATM   21  C   UNL     1     -41.180  53.727 -52.636  1.00  0.00     0.055 A 
HETATM   22  C   UNL     1     -40.795  53.125 -53.841  1.00  0.00     0.031 A 
HETATM   23  C   UNL     1     -39.958  52.004 -53.850  1.00  0.00     0.002 A 
HETATM   24  C   UNL     1     -39.496  51.465 -52.654  1.00  0.00     0.000 A 
HETATM   25  C   UNL     1     -39.874  52.042 -51.447  1.00  0.00     0.002 A 
HETATM   26  C   UNL     1     -40.710  53.163 -51.437  1.00  0.00     0.031 A 
ENDBRANCH   1  21
TORSDOF 2
ENDMDL
MODEL 9
REMARK VINA RESULT:      -7.8      4.192      5.644
REMARK  2 active torsions:
REMARK  status: ('A' for Active; 'I' for Inactive)
REMARK    1  A    between atoms: C_4  and  N_5 
REMARK    2  A    between atoms: C_12  and  C_13 
ROOT
HETATM    1  N   UNL     1     -41.109  53.726 -53.323  1.00  0.00    -0.236 N 
HETATM    2  N   UNL     1     -41.726  54.345 -52.214  1.00  0.00    -0.179 NA
HETATM    3  C   UNL     1     -42.121  55.598 -52.642  1.00  0.00     0.119 A 
HETATM    4  C   UNL     1     -41.865  55.791 -53.946  1.00  0.00     0.123 A 
HETATM    5  C   UNL     1     -41.187  54.579 -54.436  1.00  0.00     0.280 A 
HETATM    6  O   UNL     1     -40.786  54.415 -55.575  1.00  0.00    -0.265 OA
HETATM    7  N   UNL     1     -42.677  56.587 -51.877  1.00  0.00    -0.344 N 
HETATM    8  C   UNL     1     -43.073  57.793 -52.426  1.00  0.00     0.047 A 
HETATM    9  C   UNL     1     -42.857  58.084 -53.723  1.00  0.00     0.086 A 
HETATM   10  C   UNL     1     -42.200  57.062 -54.592  1.00  0.00     0.193 A 
HETATM   11  O   UNL     1     -41.978  57.313 -55.768  1.00  0.00    -0.287 OA
HETATM   12  H   UNL     1     -41.093  54.423 -51.417  1.00  0.00     0.155 HD
HETATM   13  H   UNL     1     -43.058  56.325 -50.973  1.00  0.00     0.167 HD
ENDROOT
BRANCH   8  14
HETATM   14  C   UNL     1     -43.718  58.774 -51.532  1.00  0.00    -0.009 A 
HETATM   15  C   UNL     1     -45.041  58.597 -51.093  1.00  0.00     0.015 A 
HETATM   16  C   UNL     1     -45.638  59.532 -50.242  1.00  0.00     0.024 A 
HETATM   17  C   UNL     1     -44.917  60.647 -49.820  1.00  0.00     0.034 A 
HETATM   18 CL   UNL     1     -45.652  61.796 -48.774  1.00  0.00    -0.084 Cl
HETATM   19  C   UNL     1     -43.603  60.835 -50.242  1.00  0.00     0.024 A 
HETATM   20  C   UNL     1     -43.006  59.901 -51.094  1.00  0.00     0.015 A 
ENDBRANCH   8  14
BRANCH   1  21
HETATM   21  C   UNL     1     -40.555  52.433 -53.213  1.00  0.00     0.055 A 
HETATM   22  C   UNL     1     -39.961  51.996 -52.022  1.00  0.00     0.031 A 
HETATM   23  C   UNL     1     -39.432  50.706 -51.913  1.00  0.00     0.002 A 
HETATM   24  C   UNL     1     -39.484  49.833 -52.995  1.00  0.00     0.000 A 
HETATM   25  C   UNL     1     -40.061  50.252 -54.190  1.00  0.00     0.002 A 
HETATM   26  C   UNL     1     -40.591  51.541 -54.298  1.00  0.00     0.031 A 
ENDBRANCH   1  21
TORSDOF 2
ENDMDL
MODEL 10
REMARK VINA RESULT:      -7.8      2.171      3.042
REMARK  2 active torsions:
REMARK  status: ('A' for Active; 'I' for Inactive)
REMARK    1  A    between atoms: C_4  and  N_5 
REMARK    2  A    between atoms: C_12  and  C_13 
ROOT
HETATM    1  N   UNL     1     -42.365  55.173 -54.866  1.00  0.00    -0.236 N 
HETATM    2  N   UNL     1     -41.943  56.483 -55.181  1.00  0.00    -0.179 NA
HETATM    3  C   UNL     1     -42.288  56.692 -56.503  1.00  0.00     0.119 A 
HETATM    4  C   UNL     1     -42.953  55.647 -57.023  1.00  0.00     0.123 A 
HETATM    5  C   UNL     1     -43.019  54.615 -55.976  1.00  0.00     0.280 A 
HETATM    6  O   UNL     1     -43.533  53.518 -56.108  1.00  0.00    -0.265 OA
HETATM    7  N   UNL     1     -41.988  57.789 -57.264  1.00  0.00    -0.344 N 
HETATM    8  C   UNL     1     -42.424  57.906 -58.571  1.00  0.00     0.047 A 
HETATM    9  C   UNL     1     -43.095  56.913 -59.185  1.00  0.00     0.086 A 
HETATM   10  C   UNL     1     -43.399  55.667 -58.418  1.00  0.00     0.193 A 
HETATM   11  O   UNL     1     -43.990  54.745 -58.962  1.00  0.00    -0.287 OA
HETATM   12  H   UNL     1     -40.938  56.605 -55.051  1.00  0.00     0.155 HD
HETATM   13  H   UNL     1     -41.697  58.632 -56.780  1.00  0.00     0.167 HD
ENDROOT
BRANCH   8  14
HETATM   14  C   UNL     1     -42.103  59.153 -59.292  1.00  0.00    -0.009 A 
HETATM   15  C   UNL     1     -41.730  60.317 -58.599  1.00  0.00     0.015 A 
HETATM   16  C   UNL     1     -41.423  61.491 -59.295  1.00  0.00     0.024 A 
HETATM   17  C   UNL     1     -41.482  61.508 -60.687  1.00  0.00     0.034 A 
HETATM   18 CL   UNL     1     -41.104  62.951 -61.541  1.00  0.00    -0.084 Cl
HETATM   19  C   UNL     1     -41.845  60.362 -61.389  1.00  0.00     0.024 A 
HETATM   20  C   UNL     1     -42.154  59.189 -60.694  1.00  0.00     0.015 A 
ENDBRANCH   8  14
BRANCH   1  21
HETATM   21  C   UNL     1     -42.129  54.627 -53.587  1.00  0.00     0.055 A 
HETATM   22  C   UNL     1     -40.870  54.127 -53.231  1.00  0.00     0.031 A 
HETATM   23  C   UNL     1     -40.637  53.605 -51.954  1.00  0.00     0.002 A 
HETATM   24  C   UNL     1     -41.662  53.571 -51.014  1.00  0.00     0.000 A 
HETATM   25  C   UNL     1     -42.922  54.053 -51.351  1.00  0.00     0.002 A 
HETATM   26  C   UNL     1     -43.154  54.576 -52.627  1.00  0.00     0.031 A 
ENDBRANCH   1  21
TORSDOF 2
ENDMDL
