MODEL 1
REMARK VINA RESULT:      -8.3      0.000      0.000
REMARK  4 active torsions:
REMARK  status: ('A' for Active; 'I' for Inactive)
REMARK    1  A    between atoms: C_2  and  N_3 
REMARK    2  A    between atoms: C_11  and  N_12 
REMARK    3  A    between atoms: N_12  and  C_15 
REMARK    4  A    between atoms: C_15  and  C_16 
ROOT
HETATM    1  N   UNL     1     -43.373  58.435 -50.937  1.00  0.00    -0.067 N 
HETATM    2  H   UNL     1     -43.357  58.334 -49.910  1.00  0.00     0.280 HD
HETATM    3  C   UNL     1     -44.500  57.531 -51.403  1.00  0.00     0.238 C 
HETATM    4  C   UNL     1     -44.508  57.431 -52.926  1.00  0.00     0.066 C 
HETATM    5  C   UNL     1     -43.167  56.900 -53.484  1.00  0.00     0.073 C 
HETATM    6  O   UNL     1     -43.047  55.560 -52.983  1.00  0.00    -0.339 OA
HETATM    7  C   UNL     1     -42.114  54.758 -53.578  1.00  0.00     0.078 A 
HETATM    8  C   UNL     1     -41.556  55.011 -54.836  1.00  0.00     0.006 A 
HETATM    9  C   UNL     1     -42.018  56.187 -55.656  1.00  0.00     0.224 C 
HETATM   10  C   UNL     1     -43.244  56.862 -55.022  1.00  0.00     0.076 C 
HETATM   11  C   UNL     1     -41.733  53.638 -52.838  1.00  0.00     0.037 A 
HETATM   12  C   UNL     1     -40.745  52.784 -53.321  1.00  0.00     0.003 A 
HETATM   13  C   UNL     1     -40.135  53.054 -54.541  1.00  0.00     0.001 A 
HETATM   14  C   UNL     1     -40.531  54.161 -55.294  1.00  0.00     0.012 A 
HETATM   15  C   UNL     1     -42.017  57.773 -52.936  1.00  0.00     0.066 C 
HETATM   16  C   UNL     1     -42.051  57.861 -51.409  1.00  0.00     0.238 C 
ENDROOT
BRANCH   9  17
HETATM   17  N   UNL     1     -42.357  55.782 -57.065  1.00  0.00    -0.063 N 
HETATM   18  H   UNL     1     -41.528  55.365 -57.510  1.00  0.00     0.278 HD
HETATM   19  H   UNL     1     -43.042  55.014 -57.058  1.00  0.00     0.278 HD
BRANCH  17  20
HETATM   20  C   UNL     1     -42.832  56.848 -57.995  1.00  0.00     0.274 C 
BRANCH  20  21
HETATM   21  C   UNL     1     -43.950  56.350 -58.821  1.00  0.00     0.004 A 
HETATM   22  C   UNL     1     -45.149  56.969 -59.128  1.00  0.00     0.122 A 
HETATM   23  N   UNL     1     -45.837  56.099 -59.931  1.00  0.00    -0.285 N 
HETATM   24  C   UNL     1     -47.133  56.296 -60.542  1.00  0.00     0.179 C 
HETATM   25  N   UNL     1     -45.177  54.949 -60.133  1.00  0.00    -0.185 NA
HETATM   26  C   UNL     1     -44.025  55.107 -59.490  1.00  0.00     0.149 A 
ENDBRANCH  20  21
ENDBRANCH  17  20
ENDBRANCH   9  17
BRANCH   1  27
HETATM   27  C   UNL     1     -43.582  59.943 -51.170  1.00  0.00     0.180 C 
HETATM   28  C   UNL     1     -42.467  60.743 -50.494  1.00  0.00     0.039 C 
HETATM   29  C   UNL     1     -44.932  60.382 -50.598  1.00  0.00     0.039 C 
ENDBRANCH   1  27
TORSDOF 4
ENDMDL
MODEL 2
REMARK VINA RESULT:      -8.0      1.643      1.900
REMARK  4 active torsions:
REMARK  status: ('A' for Active; 'I' for Inactive)
REMARK    1  A    between atoms: C_2  and  N_3 
REMARK    2  A    between atoms: C_11  and  N_12 
REMARK    3  A    between atoms: N_12  and  C_15 
REMARK    4  A    between atoms: C_15  and  C_16 
ROOT
HETATM    1  N   UNL     1     -43.080  58.363 -50.824  1.00  0.00    -0.067 N 
HETATM    2  H   UNL     1     -43.062  58.318 -49.793  1.00  0.00     0.280 HD
HETATM    3  C   UNL     1     -44.208  57.435 -51.237  1.00  0.00     0.238 C 
HETATM    4  C   UNL     1     -44.219  57.250 -52.752  1.00  0.00     0.066 C 
HETATM    5  C   UNL     1     -42.880  56.688 -53.283  1.00  0.00     0.073 C 
HETATM    6  O   UNL     1     -42.760  55.378 -52.708  1.00  0.00    -0.339 OA
HETATM    7  C   UNL     1     -41.828  54.543 -53.259  1.00  0.00     0.078 A 
HETATM    8  C   UNL     1     -41.273  54.725 -54.531  1.00  0.00     0.006 A 
HETATM    9  C   UNL     1     -41.736  55.854 -55.414  1.00  0.00     0.224 C 
HETATM   10  C   UNL     1     -42.959  56.565 -54.816  1.00  0.00     0.076 C 
HETATM   11  C   UNL     1     -41.446  53.467 -52.459  1.00  0.00     0.037 A 
HETATM   12  C   UNL     1     -40.460  52.586 -52.895  1.00  0.00     0.003 A 
HETATM   13  C   UNL     1     -39.852  52.787 -54.130  1.00  0.00     0.001 A 
HETATM   14  C   UNL     1     -40.249  53.851 -54.942  1.00  0.00     0.012 A 
HETATM   15  C   UNL     1     -41.729  57.589 -52.785  1.00  0.00     0.066 C 
HETATM   16  C   UNL     1     -41.760  57.763 -51.266  1.00  0.00     0.238 C 
ENDROOT
BRANCH   9  17
HETATM   17  N   UNL     1     -42.077  55.372 -56.797  1.00  0.00    -0.063 N 
HETATM   18  H   UNL     1     -41.283  55.549 -57.427  1.00  0.00     0.278 HD
HETATM   19  H   UNL     1     -42.169  54.347 -56.802  1.00  0.00     0.278 HD
BRANCH  17  20
HETATM   20  C   UNL     1     -43.271  55.969 -57.462  1.00  0.00     0.274 C 
BRANCH  20  21
HETATM   21  C   UNL     1     -42.856  56.885 -58.543  1.00  0.00     0.004 A 
HETATM   22  C   UNL     1     -42.737  58.263 -58.518  1.00  0.00     0.122 A 
HETATM   23  N   UNL     1     -42.310  58.636 -59.766  1.00  0.00    -0.285 N 
HETATM   24  C   UNL     1     -42.008  59.969 -60.235  1.00  0.00     0.179 C 
HETATM   25  N   UNL     1     -42.180  57.594 -60.600  1.00  0.00    -0.185 NA
HETATM   26  C   UNL     1     -42.479  56.532 -59.859  1.00  0.00     0.149 A 
ENDBRANCH  20  21
ENDBRANCH  17  20
ENDBRANCH   9  17
BRANCH   1  27
HETATM   27  C   UNL     1     -43.289  59.855 -51.140  1.00  0.00     0.180 C 
HETATM   28  C   UNL     1     -42.193  60.695 -50.481  1.00  0.00     0.039 C 
HETATM   29  C   UNL     1     -44.653  60.318 -50.624  1.00  0.00     0.039 C 
ENDBRANCH   1  27
TORSDOF 4
ENDMDL
MODEL 3
REMARK VINA RESULT:      -7.4      1.856      6.867
REMARK  4 active torsions:
REMARK  status: ('A' for Active; 'I' for Inactive)
REMARK    1  A    between atoms: C_2  and  N_3 
REMARK    2  A    between atoms: C_11  and  N_12 
REMARK    3  A    between atoms: N_12  and  C_15 
REMARK    4  A    between atoms: C_15  and  C_16 
ROOT
HETATM    1  N   UNL     1     -42.906  57.323 -59.082  1.00  0.00    -0.067 N 
HETATM    2  H   UNL     1     -42.288  57.239 -59.904  1.00  0.00     0.280 HD
HETATM    3  C   UNL     1     -42.154  58.222 -58.117  1.00  0.00     0.238 C 
HETATM    4  C   UNL     1     -42.868  58.273 -56.769  1.00  0.00     0.066 C 
HETATM    5  C   UNL     1     -43.026  56.871 -56.138  1.00  0.00     0.073 C 
HETATM    6  O   UNL     1     -41.690  56.413 -55.880  1.00  0.00    -0.339 OA
HETATM    7  C   UNL     1     -41.553  55.342 -55.041  1.00  0.00     0.078 A 
HETATM    8  C   UNL     1     -42.546  54.917 -54.151  1.00  0.00     0.006 A 
HETATM    9  C   UNL     1     -43.837  55.681 -54.022  1.00  0.00     0.224 C 
HETATM   10  C   UNL     1     -43.784  57.003 -54.803  1.00  0.00     0.076 C 
HETATM   11  C   UNL     1     -40.332  54.673 -55.124  1.00  0.00     0.037 A 
HETATM   12  C   UNL     1     -40.106  53.533 -54.358  1.00  0.00     0.003 A 
HETATM   13  C   UNL     1     -41.104  53.059 -53.514  1.00  0.00     0.001 A 
HETATM   14  C   UNL     1     -42.319  53.740 -53.413  1.00  0.00     0.012 A 
HETATM   15  C   UNL     1     -43.715  55.939 -57.159  1.00  0.00     0.066 C 
HETATM   16  C   UNL     1     -42.980  55.925 -58.500  1.00  0.00     0.238 C 
ENDROOT
BRANCH   9  17
HETATM   17  N   UNL     1     -44.167  55.975 -52.584  1.00  0.00    -0.063 N 
HETATM   18  H   UNL     1     -45.132  55.679 -52.387  1.00  0.00     0.278 HD
HETATM   19  H   UNL     1     -43.599  55.383 -51.963  1.00  0.00     0.278 HD
BRANCH  17  20
HETATM   20  C   UNL     1     -44.068  57.392 -52.128  1.00  0.00     0.274 C 
BRANCH  20  21
HETATM   21  C   UNL     1     -42.733  57.655 -51.553  1.00  0.00     0.004 A 
HETATM   22  C   UNL     1     -42.016  58.838 -51.524  1.00  0.00     0.122 A 
HETATM   23  N   UNL     1     -40.844  58.562 -50.871  1.00  0.00    -0.285 N 
HETATM   24  C   UNL     1     -39.770  59.478 -50.558  1.00  0.00     0.179 C 
HETATM   25  N   UNL     1     -40.745  57.275 -50.508  1.00  0.00    -0.185 NA
HETATM   26  C   UNL     1     -41.895  56.729 -50.891  1.00  0.00     0.149 A 
ENDBRANCH  20  21
ENDBRANCH  17  20
ENDBRANCH   9  17
BRANCH   1  27
HETATM   27  C   UNL     1     -44.220  57.896 -59.647  1.00  0.00     0.180 C 
HETATM   28  C   UNL     1     -44.974  56.819 -60.429  1.00  0.00     0.039 C 
HETATM   29  C   UNL     1     -43.924  59.075 -60.576  1.00  0.00     0.039 C 
ENDBRANCH   1  27
TORSDOF 4
ENDMDL
MODEL 4
REMARK VINA RESULT:      -7.3      2.595      5.821
REMARK  4 active torsions:
REMARK  status: ('A' for Active; 'I' for Inactive)
REMARK    1  A    between atoms: C_2  and  N_3 
REMARK    2  A    between atoms: C_11  and  N_12 
REMARK    3  A    between atoms: N_12  and  C_15 
REMARK    4  A    between atoms: C_15  and  C_16 
ROOT
HETATM    1  N   UNL     1     -43.871  59.897 -52.593  1.00  0.00    -0.067 N 
HETATM    2  H   UNL     1     -44.125  60.878 -52.786  1.00  0.00     0.280 HD
HETATM    3  C   UNL     1     -42.373  59.825 -52.827  1.00  0.00     0.238 C 
HETATM    4  C   UNL     1     -41.893  58.378 -52.770  1.00  0.00     0.066 C 
HETATM    5  C   UNL     1     -42.611  57.481 -53.805  1.00  0.00     0.073 C 
HETATM    6  O   UNL     1     -42.225  57.993 -55.089  1.00  0.00    -0.339 OA
HETATM    7  C   UNL     1     -42.466  57.195 -56.172  1.00  0.00     0.078 A 
HETATM    8  C   UNL     1     -42.699  55.817 -56.089  1.00  0.00     0.006 A 
HETATM    9  C   UNL     1     -42.632  55.108 -54.762  1.00  0.00     0.224 C 
HETATM   10  C   UNL     1     -42.098  56.036 -53.659  1.00  0.00     0.076 C 
HETATM   11  C   UNL     1     -42.469  57.848 -57.405  1.00  0.00     0.037 A 
HETATM   12  C   UNL     1     -42.762  57.142 -58.569  1.00  0.00     0.003 A 
HETATM   13  C   UNL     1     -43.057  55.785 -58.499  1.00  0.00     0.001 A 
HETATM   14  C   UNL     1     -43.033  55.125 -57.268  1.00  0.00     0.012 A 
HETATM   15  C   UNL     1     -44.137  57.626 -53.616  1.00  0.00     0.066 C 
HETATM   16  C   UNL     1     -44.578  59.090 -53.665  1.00  0.00     0.238 C 
ENDROOT
BRANCH   9  17
HETATM   17  N   UNL     1     -41.764  53.881 -54.831  1.00  0.00    -0.063 N 
HETATM   18  H   UNL     1     -42.292  53.069 -54.486  1.00  0.00     0.278 HD
HETATM   19  H   UNL     1     -41.565  53.644 -55.813  1.00  0.00     0.278 HD
BRANCH  17  20
HETATM   20  C   UNL     1     -40.483  53.897 -54.067  1.00  0.00     0.274 C 
BRANCH  20  21
HETATM   21  C   UNL     1     -40.182  52.551 -53.538  1.00  0.00     0.004 A 
HETATM   22  C   UNL     1     -39.910  52.169 -52.236  1.00  0.00     0.122 A 
HETATM   23  N   UNL     1     -39.709  50.814 -52.268  1.00  0.00    -0.285 N 
HETATM   24  C   UNL     1     -39.423  49.937 -51.154  1.00  0.00     0.179 C 
HETATM   25  N   UNL     1     -39.799  50.306 -53.505  1.00  0.00    -0.185 NA
HETATM   26  C   UNL     1     -40.115  51.345 -54.272  1.00  0.00     0.149 A 
ENDBRANCH  20  21
ENDBRANCH  17  20
ENDBRANCH   9  17
BRANCH   1  27
HETATM   27  C   UNL     1     -44.336  59.658 -51.144  1.00  0.00     0.180 C 
HETATM   28  C   UNL     1     -45.863  59.701 -51.064  1.00  0.00     0.039 C 
HETATM   29  C   UNL     1     -43.755  60.731 -50.221  1.00  0.00     0.039 C 
ENDBRANCH   1  27
TORSDOF 4
ENDMDL
MODEL 5
REMARK VINA RESULT:      -7.2      3.657      6.144
REMARK  4 active torsions:
REMARK  status: ('A' for Active; 'I' for Inactive)
REMARK    1  A    between atoms: C_2  and  N_3 
REMARK    2  A    between atoms: C_11  and  N_12 
REMARK    3  A    between atoms: N_12  and  C_15 
REMARK    4  A    between atoms: C_15  and  C_16 
ROOT
HETATM    1  N   UNL     1     -43.854  60.827 -52.496  1.00  0.00    -0.067 N 
HETATM    2  H   UNL     1     -43.853  61.605 -53.173  1.00  0.00     0.280 HD
HETATM    3  C   UNL     1     -42.390  60.480 -52.296  1.00  0.00     0.238 C 
HETATM    4  C   UNL     1     -42.252  59.208 -51.464  1.00  0.00     0.066 C 
HETATM    5  C   UNL     1     -42.974  58.004 -52.111  1.00  0.00     0.073 C 
HETATM    6  O   UNL     1     -42.287  57.765 -53.349  1.00  0.00    -0.339 OA
HETATM    7  C   UNL     1     -42.520  56.567 -53.965  1.00  0.00     0.078 A 
HETATM    8  C   UNL     1     -43.058  55.449 -53.318  1.00  0.00     0.006 A 
HETATM    9  C   UNL     1     -43.359  55.489 -51.843  1.00  0.00     0.224 C 
HETATM   10  C   UNL     1     -42.819  56.774 -51.197  1.00  0.00     0.076 C 
HETATM   11  C   UNL     1     -42.185  56.519 -55.318  1.00  0.00     0.037 A 
HETATM   12  C   UNL     1     -42.435  55.367 -56.059  1.00  0.00     0.003 A 
HETATM   13  C   UNL     1     -43.027  54.267 -55.448  1.00  0.00     0.001 A 
HETATM   14  C   UNL     1     -43.343  54.306 -54.089  1.00  0.00     0.012 A 
HETATM   15  C   UNL     1     -44.442  58.395 -52.391  1.00  0.00     0.066 C 
HETATM   16  C   UNL     1     -44.540  59.681 -53.213  1.00  0.00     0.238 C 
ENDROOT
BRANCH   9  17
HETATM   17  N   UNL     1     -42.780  54.300 -51.125  1.00  0.00    -0.063 N 
HETATM   18  H   UNL     1     -43.276  54.163 -50.235  1.00  0.00     0.278 HD
HETATM   19  H   UNL     1     -42.980  53.438 -51.651  1.00  0.00     0.278 HD
BRANCH  17  20
HETATM   20  C   UNL     1     -41.327  54.336 -50.789  1.00  0.00     0.274 C 
BRANCH  20  21
HETATM   21  C   UNL     1     -40.673  53.075 -51.192  1.00  0.00     0.004 A 
HETATM   22  C   UNL     1     -40.345  51.978 -50.416  1.00  0.00     0.122 A 
HETATM   23  N   UNL     1     -39.766  51.069 -51.261  1.00  0.00    -0.285 N 
HETATM   24  C   UNL     1     -39.278  49.747 -50.937  1.00  0.00     0.179 C 
HETATM   25  N   UNL     1     -39.670  51.520 -52.520  1.00  0.00    -0.185 NA
HETATM   26  C   UNL     1     -40.243  52.719 -52.491  1.00  0.00     0.149 A 
ENDBRANCH  20  21
ENDBRANCH  17  20
ENDBRANCH   9  17
BRANCH   1  27
HETATM   27  C   UNL     1     -44.584  61.392 -51.263  1.00  0.00     0.180 C 
HETATM   28  C   UNL     1     -45.953  61.944 -51.665  1.00  0.00     0.039 C 
HETATM   29  C   UNL     1     -43.758  62.515 -50.630  1.00  0.00     0.039 C 
ENDBRANCH   1  27
TORSDOF 4
ENDMDL
MODEL 6
REMARK VINA RESULT:      -7.0      2.205      5.067
REMARK  4 active torsions:
REMARK  status: ('A' for Active; 'I' for Inactive)
REMARK    1  A    between atoms: C_2  and  N_3 
REMARK    2  A    between atoms: C_11  and  N_12 
REMARK    3  A    between atoms: N_12  and  C_15 
REMARK    4  A    between atoms: C_15  and  C_16 
ROOT
HETATM    1  N   UNL     1     -40.419  54.459 -53.316  1.00  0.00    -0.067 N 
HETATM    2  H   UNL     1     -39.466  54.489 -52.921  1.00  0.00     0.280 HD
HETATM    3  C   UNL     1     -40.268  54.951 -54.744  1.00  0.00     0.238 C 
HETATM    4  C   UNL     1     -41.638  55.147 -55.388  1.00  0.00     0.066 C 
HETATM    5  C   UNL     1     -42.518  56.143 -54.599  1.00  0.00     0.073 C 
HETATM    6  O   UNL     1     -41.838  57.405 -54.683  1.00  0.00    -0.339 OA
HETATM    7  C   UNL     1     -42.553  58.518 -54.341  1.00  0.00     0.078 A 
HETATM    8  C   UNL     1     -43.951  58.560 -54.285  1.00  0.00     0.006 A 
HETATM    9  C   UNL     1     -44.769  57.357 -54.674  1.00  0.00     0.224 C 
HETATM   10  C   UNL     1     -43.889  56.259 -55.291  1.00  0.00     0.076 C 
HETATM   11  C   UNL     1     -41.791  59.647 -54.039  1.00  0.00     0.037 A 
HETATM   12  C   UNL     1     -42.414  60.819 -53.620  1.00  0.00     0.003 A 
HETATM   13  C   UNL     1     -43.798  60.861 -53.499  1.00  0.00     0.001 A 
HETATM   14  C   UNL     1     -44.565  59.740 -53.822  1.00  0.00     0.012 A 
HETATM   15  C   UNL     1     -42.595  55.684 -53.127  1.00  0.00     0.066 C 
HETATM   16  C   UNL     1     -41.205  55.484 -52.521  1.00  0.00     0.238 C 
ENDROOT
BRANCH   9  17
HETATM   17  N   UNL     1     -45.858  57.716 -55.648  1.00  0.00    -0.063 N 
HETATM   18  H   UNL     1     -46.267  56.857 -56.037  1.00  0.00     0.278 HD
HETATM   19  H   UNL     1     -46.645  58.157 -55.151  1.00  0.00     0.278 HD
BRANCH  17  20
HETATM   20  C   UNL     1     -45.487  58.565 -56.817  1.00  0.00     0.274 C 
BRANCH  20  21
HETATM   21  C   UNL     1     -45.692  57.823 -58.077  1.00  0.00     0.004 A 
HETATM   22  C   UNL     1     -46.865  57.607 -58.779  1.00  0.00     0.122 A 
HETATM   23  N   UNL     1     -46.523  56.872 -59.883  1.00  0.00    -0.285 N 
HETATM   24  C   UNL     1     -47.392  56.417 -60.946  1.00  0.00     0.179 C 
HETATM   25  N   UNL     1     -45.216  56.573 -59.922  1.00  0.00    -0.185 NA
HETATM   26  C   UNL     1     -44.705  57.170 -58.850  1.00  0.00     0.149 A 
ENDBRANCH  20  21
ENDBRANCH  17  20
ENDBRANCH   9  17
BRANCH   1  27
HETATM   27  C   UNL     1     -40.855  52.991 -53.153  1.00  0.00     0.180 C 
HETATM   28  C   UNL     1     -40.412  52.454 -51.792  1.00  0.00     0.039 C 
HETATM   29  C   UNL     1     -40.235  52.132 -54.257  1.00  0.00     0.039 C 
ENDBRANCH   1  27
TORSDOF 4
ENDMDL
MODEL 7
REMARK VINA RESULT:      -6.8      3.597      7.284
REMARK  4 active torsions:
REMARK  status: ('A' for Active; 'I' for Inactive)
REMARK    1  A    between atoms: C_2  and  N_3 
REMARK    2  A    between atoms: C_11  and  N_12 
REMARK    3  A    between atoms: N_12  and  C_15 
REMARK    4  A    between atoms: C_15  and  C_16 
ROOT
HETATM    1  N   UNL     1     -41.620  53.438 -52.343  1.00  0.00    -0.067 N 
HETATM    2  H   UNL     1     -41.985  52.537 -52.690  1.00  0.00     0.280 HD
HETATM    3  C   UNL     1     -42.671  53.937 -51.368  1.00  0.00     0.238 C 
HETATM    4  C   UNL     1     -42.353  55.362 -50.924  1.00  0.00     0.066 C 
HETATM    5  C   UNL     1     -42.264  56.340 -52.118  1.00  0.00     0.073 C 
HETATM    6  O   UNL     1     -43.581  56.370 -52.690  1.00  0.00    -0.339 OA
HETATM    7  C   UNL     1     -43.856  57.388 -53.559  1.00  0.00     0.078 A 
HETATM    8  C   UNL     1     -43.110  58.570 -53.637  1.00  0.00     0.006 A 
HETATM    9  C   UNL     1     -41.964  58.816 -52.691  1.00  0.00     0.224 C 
HETATM   10  C   UNL     1     -41.907  57.743 -51.593  1.00  0.00     0.076 C 
HETATM   11  C   UNL     1     -44.954  57.178 -54.393  1.00  0.00     0.037 A 
HETATM   12  C   UNL     1     -45.290  58.124 -55.358  1.00  0.00     0.003 A 
HETATM   13  C   UNL     1     -44.523  59.276 -55.492  1.00  0.00     0.001 A 
HETATM   14  C   UNL     1     -43.437  59.498 -54.643  1.00  0.00     0.012 A 
HETATM   15  C   UNL     1     -41.256  55.781 -53.147  1.00  0.00     0.066 C 
HETATM   16  C   UNL     1     -41.598  54.348 -53.555  1.00  0.00     0.238 C 
ENDROOT
BRANCH   9  17
HETATM   17  N   UNL     1     -42.058  60.172 -52.046  1.00  0.00    -0.063 N 
HETATM   18  H   UNL     1     -41.167  60.672 -52.170  1.00  0.00     0.278 HD
HETATM   19  H   UNL     1     -42.738  60.757 -52.551  1.00  0.00     0.278 HD
BRANCH  17  20
HETATM   20  C   UNL     1     -42.363  60.224 -50.587  1.00  0.00     0.274 C 
BRANCH  20  21
HETATM   21  C   UNL     1     -43.771  60.611 -50.368  1.00  0.00     0.004 A 
HETATM   22  C   UNL     1     -44.281  61.806 -49.892  1.00  0.00     0.122 A 
HETATM   23  N   UNL     1     -45.644  61.666 -49.885  1.00  0.00    -0.285 N 
HETATM   24  C   UNL     1     -46.631  62.651 -49.500  1.00  0.00     0.179 C 
HETATM   25  N   UNL     1     -46.042  60.452 -50.291  1.00  0.00    -0.185 NA
HETATM   26  C   UNL     1     -44.917  59.821 -50.613  1.00  0.00     0.149 A 
ENDBRANCH  20  21
ENDBRANCH  17  20
ENDBRANCH   9  17
BRANCH   1  27
HETATM   27  C   UNL     1     -40.251  53.086 -51.731  1.00  0.00     0.180 C 
HETATM   28  C   UNL     1     -39.554  52.016 -52.573  1.00  0.00     0.039 C 
HETATM   29  C   UNL     1     -40.430  52.564 -50.304  1.00  0.00     0.039 C 
ENDBRANCH   1  27
TORSDOF 4
ENDMDL
MODEL 8
REMARK VINA RESULT:      -6.6      2.966      4.770
REMARK  4 active torsions:
REMARK  status: ('A' for Active; 'I' for Inactive)
REMARK    1  A    between atoms: C_2  and  N_3 
REMARK    2  A    between atoms: C_11  and  N_12 
REMARK    3  A    between atoms: N_12  and  C_15 
REMARK    4  A    between atoms: C_15  and  C_16 
ROOT
HETATM    1  N   UNL     1     -42.094  53.971 -53.707  1.00  0.00    -0.067 N 
HETATM    2  H   UNL     1     -42.054  52.943 -53.794  1.00  0.00     0.280 HD
HETATM    3  C   UNL     1     -43.545  54.331 -53.972  1.00  0.00     0.238 C 
HETATM    4  C   UNL     1     -43.709  55.845 -54.072  1.00  0.00     0.066 C 
HETATM    5  C   UNL     1     -42.824  56.458 -55.181  1.00  0.00     0.073 C 
HETATM    6  O   UNL     1     -43.316  55.908 -56.412  1.00  0.00    -0.339 OA
HETATM    7  C   UNL     1     -42.919  56.521 -57.567  1.00  0.00     0.078 A 
HETATM    8  C   UNL     1     -42.400  57.820 -57.622  1.00  0.00     0.006 A 
HETATM    9  C   UNL     1     -42.309  58.661 -56.376  1.00  0.00     0.224 C 
HETATM   10  C   UNL     1     -43.020  57.986 -55.193  1.00  0.00     0.076 C 
HETATM   11  C   UNL     1     -43.060  55.758 -58.726  1.00  0.00     0.037 A 
HETATM   12  C   UNL     1     -42.632  56.261 -59.951  1.00  0.00     0.003 A 
HETATM   13  C   UNL     1     -42.057  57.526 -60.016  1.00  0.00     0.001 A 
HETATM   14  C   UNL     1     -41.934  58.300 -58.861  1.00  0.00     0.012 A 
HETATM   15  C   UNL     1     -41.361  56.016 -54.954  1.00  0.00     0.066 C 
HETATM   16  C   UNL     1     -41.239  54.495 -54.845  1.00  0.00     0.238 C 
ENDROOT
BRANCH   9  17
HETATM   17  N   UNL     1     -42.899  60.029 -56.585  1.00  0.00    -0.063 N 
HETATM   18  H   UNL     1     -42.390  60.713 -56.010  1.00  0.00     0.278 HD
HETATM   19  H   UNL     1     -42.726  60.345 -57.549  1.00  0.00     0.278 HD
BRANCH  17  20
HETATM   20  C   UNL     1     -44.344  60.215 -56.266  1.00  0.00     0.274 C 
BRANCH  20  21
HETATM   21  C   UNL     1     -45.185  59.685 -57.358  1.00  0.00     0.004 A 
HETATM   22  C   UNL     1     -45.274  60.110 -58.672  1.00  0.00     0.122 A 
HETATM   23  N   UNL     1     -46.186  59.289 -59.281  1.00  0.00    -0.285 N 
HETATM   24  C   UNL     1     -46.606  59.307 -60.664  1.00  0.00     0.179 C 
HETATM   25  N   UNL     1     -46.714  58.387 -58.439  1.00  0.00    -0.185 NA
HETATM   26  C   UNL     1     -46.091  58.602 -57.285  1.00  0.00     0.149 A 
ENDBRANCH  20  21
ENDBRANCH  17  20
ENDBRANCH   9  17
BRANCH   1  27
HETATM   27  C   UNL     1     -41.581  54.256 -52.283  1.00  0.00     0.180 C 
HETATM   28  C   UNL     1     -40.372  53.373 -51.969  1.00  0.00     0.039 C 
HETATM   29  C   UNL     1     -42.685  53.976 -51.260  1.00  0.00     0.039 C 
ENDBRANCH   1  27
TORSDOF 4
ENDMDL
MODEL 9
REMARK VINA RESULT:      -6.6      3.552      5.639
REMARK  4 active torsions:
REMARK  status: ('A' for Active; 'I' for Inactive)
REMARK    1  A    between atoms: C_2  and  N_3 
REMARK    2  A    between atoms: C_11  and  N_12 
REMARK    3  A    between atoms: N_12  and  C_15 
REMARK    4  A    between atoms: C_15  and  C_16 
ROOT
HETATM    1  N   UNL     1     -41.953  53.972 -53.452  1.00  0.00    -0.067 N 
HETATM    2  H   UNL     1     -41.905  52.942 -53.480  1.00  0.00     0.280 HD
HETATM    3  C   UNL     1     -43.423  54.302 -53.644  1.00  0.00     0.238 C 
HETATM    4  C   UNL     1     -43.613  55.806 -53.822  1.00  0.00     0.066 C 
HETATM    5  C   UNL     1     -42.808  56.360 -55.020  1.00  0.00     0.073 C 
HETATM    6  O   UNL     1     -43.369  55.733 -56.183  1.00  0.00    -0.339 OA
HETATM    7  C   UNL     1     -43.054  56.280 -57.395  1.00  0.00     0.078 A 
HETATM    8  C   UNL     1     -42.558  57.578 -57.559  1.00  0.00     0.006 A 
HETATM    9  C   UNL     1     -42.399  58.493 -56.373  1.00  0.00     0.224 C 
HETATM   10  C   UNL     1     -43.024  57.882 -55.110  1.00  0.00     0.076 C 
HETATM   11  C   UNL     1     -43.259  55.447 -58.495  1.00  0.00     0.037 A 
HETATM   12  C   UNL     1     -42.915  55.881 -59.773  1.00  0.00     0.003 A 
HETATM   13  C   UNL     1     -42.362  57.144 -59.949  1.00  0.00     0.001 A 
HETATM   14  C   UNL     1     -42.177  57.988 -58.851  1.00  0.00     0.012 A 
HETATM   15  C   UNL     1     -41.328  55.946 -54.861  1.00  0.00     0.066 C 
HETATM   16  C   UNL     1     -41.179  54.436 -54.671  1.00  0.00     0.238 C 
ENDROOT
BRANCH   9  17
HETATM   17  N   UNL     1     -43.018  59.840 -56.624  1.00  0.00    -0.063 N 
HETATM   18  H   UNL     1     -43.446  59.852 -57.560  1.00  0.00     0.278 HD
HETATM   19  H   UNL     1     -43.816  59.986 -55.990  1.00  0.00     0.278 HD
BRANCH  17  20
HETATM   20  C   UNL     1     -42.126  61.034 -56.563  1.00  0.00     0.274 C 
BRANCH  20  21
HETATM   21  C   UNL     1     -41.844  61.538 -57.922  1.00  0.00     0.004 A 
HETATM   22  C   UNL     1     -40.650  61.994 -58.451  1.00  0.00     0.122 A 
HETATM   23  N   UNL     1     -40.912  62.338 -59.751  1.00  0.00    -0.285 N 
HETATM   24  C   UNL     1     -39.981  62.841 -60.736  1.00  0.00     0.179 C 
HETATM   25  N   UNL     1     -42.199  62.165 -60.083  1.00  0.00    -0.185 NA
HETATM   26  C   UNL     1     -42.761  61.654 -58.992  1.00  0.00     0.149 A 
ENDBRANCH  20  21
ENDBRANCH  17  20
ENDBRANCH   9  17
BRANCH   1  27
HETATM   27  C   UNL     1     -41.355  54.346 -52.083  1.00  0.00     0.180 C 
HETATM   28  C   UNL     1     -40.226  53.382 -51.717  1.00  0.00     0.039 C 
HETATM   29  C   UNL     1     -42.436  54.285 -51.001  1.00  0.00     0.039 C 
ENDBRANCH   1  27
TORSDOF 4
ENDMDL
MODEL 10
REMARK VINA RESULT:      -6.4      2.726      6.370
REMARK  4 active torsions:
REMARK  status: ('A' for Active; 'I' for Inactive)
REMARK    1  A    between atoms: C_2  and  N_3 
REMARK    2  A    between atoms: C_11  and  N_12 
REMARK    3  A    between atoms: N_12  and  C_15 
REMARK    4  A    between atoms: C_15  and  C_16 
ROOT
HETATM    1  N   UNL     1     -41.420  53.513 -53.589  1.00  0.00    -0.067 N 
HETATM    2  H   UNL     1     -41.268  52.503 -53.736  1.00  0.00     0.280 HD
HETATM    3  C   UNL     1     -42.920  53.707 -53.713  1.00  0.00     0.238 C 
HETATM    4  C   UNL     1     -43.267  55.193 -53.713  1.00  0.00     0.066 C 
HETATM    5  C   UNL     1     -42.561  55.959 -54.855  1.00  0.00     0.073 C 
HETATM    6  O   UNL     1     -43.093  55.411 -56.071  1.00  0.00    -0.339 OA
HETATM    7  C   UNL     1     -42.874  56.120 -57.219  1.00  0.00     0.078 A 
HETATM    8  C   UNL     1     -42.517  57.473 -57.243  1.00  0.00     0.006 A 
HETATM    9  C   UNL     1     -42.414  58.260 -55.963  1.00  0.00     0.224 C 
HETATM   10  C   UNL     1     -42.934  57.451 -54.765  1.00  0.00     0.076 C 
HETATM   11  C   UNL     1     -43.028  55.399 -58.402  1.00  0.00     0.037 A 
HETATM   12  C   UNL     1     -42.772  56.006 -59.629  1.00  0.00     0.003 A 
HETATM   13  C   UNL     1     -42.356  57.332 -59.670  1.00  0.00     0.001 A 
HETATM   14  C   UNL     1     -42.222  58.062 -58.487  1.00  0.00     0.012 A 
HETATM   15  C   UNL     1     -41.043  55.686 -54.775  1.00  0.00     0.066 C 
HETATM   16  C   UNL     1     -40.736  54.188 -54.762  1.00  0.00     0.238 C 
ENDROOT
BRANCH   9  17
HETATM   17  N   UNL     1     -43.175  59.556 -56.045  1.00  0.00    -0.063 N 
HETATM   18  H   UNL     1     -43.417  59.749 -57.026  1.00  0.00     0.278 HD
HETATM   19  H   UNL     1     -44.090  59.458 -55.583  1.00  0.00     0.278 HD
BRANCH  17  20
HETATM   20  C   UNL     1     -42.503  60.786 -55.535  1.00  0.00     0.274 C 
BRANCH  20  21
HETATM   21  C   UNL     1     -42.897  61.046 -54.136  1.00  0.00     0.004 A 
HETATM   22  C   UNL     1     -42.292  60.617 -52.968  1.00  0.00     0.122 A 
HETATM   23  N   UNL     1     -43.035  61.134 -51.939  1.00  0.00    -0.285 N 
HETATM   24  C   UNL     1     -42.794  60.996 -50.520  1.00  0.00     0.179 C 
HETATM   25  N   UNL     1     -44.094  61.836 -52.366  1.00  0.00    -0.185 NA
HETATM   26  C   UNL     1     -43.999  61.812 -53.692  1.00  0.00     0.149 A 
ENDBRANCH  20  21
ENDBRANCH  17  20
ENDBRANCH   9  17
BRANCH   1  27
HETATM   27  C   UNL     1     -40.819  53.792 -52.199  1.00  0.00     0.180 C 
HETATM   28  C   UNL     1     -39.767  52.736 -51.855  1.00  0.00     0.039 C 
HETATM   29  C   UNL     1     -41.919  53.768 -51.135  1.00  0.00     0.039 C 
ENDBRANCH   1  27
TORSDOF 4
ENDMDL
