MODEL 1
REMARK VINA RESULT:      -8.6      0.000      0.000
REMARK  7 active torsions:
REMARK  status: ('A' for Active; 'I' for Inactive)
REMARK    1  A    between atoms: O_2  and  C_3 
REMARK    2  A    between atoms: C_6  and  C_7 
REMARK    3  A    between atoms: C_11  and  C_12 
REMARK       I    between atoms: C_12  and  N_13 
REMARK    4  A    between atoms: N_13  and  N_14 
REMARK       I    between atoms: N_14  and  C_15 
REMARK    5  A    between atoms: C_15  and  C_16 
REMARK    6  A    between atoms: C_16  and  C_17 
REMARK    7  A    between atoms: C_17  and  C_18 
ROOT
HETATM    1  C   UNL     1     -42.986  56.596 -57.882  1.00  0.00     0.288 C 
HETATM    2  N   UNL     1     -42.820  55.501 -57.061  1.00  0.00    -0.262 N 
HETATM    3  O   UNL     1     -42.207  57.548 -57.857  1.00  0.00    -0.264 OA
HETATM    4  H   UNL     1     -43.465  54.715 -57.017  1.00  0.00     0.190 HD
ENDROOT
BRANCH   1   5
HETATM    5  C   UNL     1     -44.113  56.539 -58.768  1.00  0.00     0.121 A 
HETATM    6  N   UNL     1     -44.594  55.353 -59.250  1.00  0.00    -0.272 N 
HETATM    7  N   UNL     1     -45.659  55.479 -60.054  1.00  0.00    -0.174 NA
HETATM    8  H   UNL     1     -44.228  54.425 -59.062  1.00  0.00     0.189 HD
HETATM    9  C   UNL     1     -45.916  56.796 -60.075  1.00  0.00     0.089 A 
HETATM   10  C   UNL     1     -44.952  57.498 -59.297  1.00  0.00     0.071 A 
BRANCH   9  11
HETATM   11  C   UNL     1     -47.049  57.353 -60.818  1.00  0.00    -0.005 A 
HETATM   12  C   UNL     1     -47.380  58.710 -60.718  1.00  0.00     0.016 A 
HETATM   13  C   UNL     1     -48.456  59.233 -61.442  1.00  0.00     0.037 A 
HETATM   14  C   UNL     1     -49.213  58.417 -62.284  1.00  0.00     0.068 A 
HETATM   15  C   UNL     1     -48.905  57.060 -62.374  1.00  0.00     0.037 A 
HETATM   16  C   UNL     1     -47.831  56.533 -61.645  1.00  0.00     0.016 A 
BRANCH  14  17
HETATM   17  O   UNL     1     -50.224  59.056 -62.945  1.00  0.00    -0.356 OA
HETATM   18  C   UNL     1     -50.570  60.352 -62.473  1.00  0.00     0.210 C 
ENDBRANCH  14  17
ENDBRANCH   9  11
ENDBRANCH   1   5
BRANCH   2  19
HETATM   19  N   UNL     1     -41.702  55.444 -56.224  1.00  0.00    -0.267 N 
HETATM   20  C   UNL     1     -41.721  54.551 -55.176  1.00  0.00     0.236 C 
HETATM   21  O   UNL     1     -42.714  53.877 -54.907  1.00  0.00    -0.272 OA
HETATM   22  H   UNL     1     -40.866  55.920 -56.559  1.00  0.00     0.190 HD
BRANCH  20  23
HETATM   23  C   UNL     1     -40.408  54.392 -54.440  1.00  0.00     0.109 C 
BRANCH  23  24
HETATM   24  C   UNL     1     -40.566  53.786 -53.046  1.00  0.00     0.048 C 
BRANCH  24  25
HETATM   25  C   UNL     1     -40.154  52.336 -52.905  1.00  0.00    -0.055 A 
HETATM   26  C   UNL     1     -40.192  51.516 -54.044  1.00  0.00     0.049 A 
HETATM   27  C   UNL     1     -39.865  50.167 -53.951  1.00  0.00     0.116 A 
HETATM   28  F   UNL     1     -39.906  49.401 -55.051  1.00  0.00    -0.206 F 
HETATM   29  C   UNL     1     -39.505  49.599 -52.737  1.00  0.00     0.042 A 
HETATM   30  C   UNL     1     -39.476  50.394 -51.595  1.00  0.00     0.003 A 
HETATM   31  C   UNL     1     -39.804  51.753 -51.678  1.00  0.00     0.007 A 
ENDBRANCH  24  25
ENDBRANCH  23  24
ENDBRANCH  20  23
ENDBRANCH   2  19
TORSDOF 7
ENDMDL
MODEL 2
REMARK VINA RESULT:      -8.3      5.069     11.292
REMARK  7 active torsions:
REMARK  status: ('A' for Active; 'I' for Inactive)
REMARK    1  A    between atoms: O_2  and  C_3 
REMARK    2  A    between atoms: C_6  and  C_7 
REMARK    3  A    between atoms: C_11  and  C_12 
REMARK       I    between atoms: C_12  and  N_13 
REMARK    4  A    between atoms: N_13  and  N_14 
REMARK       I    between atoms: N_14  and  C_15 
REMARK    5  A    between atoms: C_15  and  C_16 
REMARK    6  A    between atoms: C_16  and  C_17 
REMARK    7  A    between atoms: C_17  and  C_18 
ROOT
HETATM    1  C   UNL     1     -42.483  57.333 -56.670  1.00  0.00     0.288 C 
HETATM    2  N   UNL     1     -41.979  57.334 -57.952  1.00  0.00    -0.262 N 
HETATM    3  O   UNL     1     -43.034  58.322 -56.189  1.00  0.00    -0.264 OA
HETATM    4  H   UNL     1     -41.477  56.555 -58.371  1.00  0.00     0.190 HD
ENDROOT
BRANCH   1   5
HETATM    5  C   UNL     1     -42.333  56.102 -55.948  1.00  0.00     0.121 A 
HETATM    6  N   UNL     1     -43.245  55.089 -56.048  1.00  0.00    -0.272 N 
HETATM    7  N   UNL     1     -42.945  54.006 -55.318  1.00  0.00    -0.174 NA
HETATM    8  H   UNL     1     -44.094  55.086 -56.605  1.00  0.00     0.189 HD
HETATM    9  C   UNL     1     -41.770  54.299 -54.740  1.00  0.00     0.089 A 
HETATM   10  C   UNL     1     -41.364  55.618 -55.092  1.00  0.00     0.071 A 
BRANCH   9  11
HETATM   11  C   UNL     1     -41.069  53.343 -53.880  1.00  0.00    -0.005 A 
HETATM   12  C   UNL     1     -40.526  52.163 -54.405  1.00  0.00     0.016 A 
HETATM   13  C   UNL     1     -39.848  51.264 -53.576  1.00  0.00     0.037 A 
HETATM   14  C   UNL     1     -39.691  51.529 -52.216  1.00  0.00     0.068 A 
HETATM   15  C   UNL     1     -40.246  52.689 -51.679  1.00  0.00     0.037 A 
HETATM   16  C   UNL     1     -40.931  53.589 -52.507  1.00  0.00     0.016 A 
BRANCH  14  17
HETATM   17  O   UNL     1     -38.995  50.577 -51.523  1.00  0.00    -0.356 OA
HETATM   18  C   UNL     1     -39.744  49.780 -50.614  1.00  0.00     0.210 C 
ENDBRANCH  14  17
ENDBRANCH   9  11
ENDBRANCH   1   5
BRANCH   2  19
HETATM   19  N   UNL     1     -42.156  58.469 -58.750  1.00  0.00    -0.267 N 
HETATM   20  C   UNL     1     -42.215  58.299 -60.114  1.00  0.00     0.236 C 
HETATM   21  O   UNL     1     -42.031  57.206 -60.648  1.00  0.00    -0.272 OA
HETATM   22  H   UNL     1     -42.429  59.321 -58.264  1.00  0.00     0.190 HD
BRANCH  20  23
HETATM   23  C   UNL     1     -42.613  59.530 -60.901  1.00  0.00     0.109 C 
BRANCH  23  24
HETATM   24  C   UNL     1     -42.620  60.808 -60.063  1.00  0.00     0.048 C 
BRANCH  24  25
HETATM   25  C   UNL     1     -41.429  61.724 -60.245  1.00  0.00    -0.055 A 
HETATM   26  C   UNL     1     -41.057  62.088 -61.549  1.00  0.00     0.049 A 
HETATM   27  C   UNL     1     -39.942  62.892 -61.766  1.00  0.00     0.116 A 
HETATM   28  F   UNL     1     -39.605  63.228 -63.019  1.00  0.00    -0.206 F 
HETATM   29  C   UNL     1     -39.169  63.344 -60.706  1.00  0.00     0.042 A 
HETATM   30  C   UNL     1     -39.515  62.982 -59.407  1.00  0.00     0.003 A 
HETATM   31  C   UNL     1     -40.634  62.172 -59.179  1.00  0.00     0.007 A 
ENDBRANCH  24  25
ENDBRANCH  23  24
ENDBRANCH  20  23
ENDBRANCH   2  19
TORSDOF 7
ENDMDL
MODEL 3
REMARK VINA RESULT:      -8.1     16.085     21.831
REMARK  7 active torsions:
REMARK  status: ('A' for Active; 'I' for Inactive)
REMARK    1  A    between atoms: O_2  and  C_3 
REMARK    2  A    between atoms: C_6  and  C_7 
REMARK    3  A    between atoms: C_11  and  C_12 
REMARK       I    between atoms: C_12  and  N_13 
REMARK    4  A    between atoms: N_13  and  N_14 
REMARK       I    between atoms: N_14  and  C_15 
REMARK    5  A    between atoms: C_15  and  C_16 
REMARK    6  A    between atoms: C_16  and  C_17 
REMARK    7  A    between atoms: C_17  and  C_18 
ROOT
HETATM    1  C   UNL     1     -34.074  39.980 -52.144  1.00  0.00     0.288 C 
HETATM    2  N   UNL     1     -33.833  41.061 -52.964  1.00  0.00    -0.262 N 
HETATM    3  O   UNL     1     -34.998  39.196 -52.360  1.00  0.00    -0.264 OA
HETATM    4  H   UNL     1     -33.112  41.758 -52.795  1.00  0.00     0.190 HD
ENDROOT
BRANCH   1   5
HETATM    5  C   UNL     1     -33.172  39.829 -51.038  1.00  0.00     0.121 A 
HETATM    6  N   UNL     1     -31.836  40.092 -51.156  1.00  0.00    -0.272 N 
HETATM    7  N   UNL     1     -31.139  39.912 -50.025  1.00  0.00    -0.174 NA
HETATM    8  H   UNL     1     -31.345  40.397 -51.991  1.00  0.00     0.189 HD
HETATM    9  C   UNL     1     -32.056  39.551 -49.114  1.00  0.00     0.089 A 
HETATM   10  C   UNL     1     -33.343  39.465 -49.718  1.00  0.00     0.071 A 
BRANCH   9  11
HETATM   11  C   UNL     1     -31.703  39.300 -47.715  1.00  0.00    -0.005 A 
HETATM   12  C   UNL     1     -32.366  38.317 -46.969  1.00  0.00     0.016 A 
HETATM   13  C   UNL     1     -32.011  38.078 -45.637  1.00  0.00     0.037 A 
HETATM   14  C   UNL     1     -30.985  38.804 -45.031  1.00  0.00     0.068 A 
HETATM   15  C   UNL     1     -30.334  39.799 -45.758  1.00  0.00     0.037 A 
HETATM   16  C   UNL     1     -30.692  40.045 -47.091  1.00  0.00     0.016 A 
BRANCH  14  17
HETATM   17  O   UNL     1     -30.729  38.460 -43.733  1.00  0.00    -0.356 OA
HETATM   18  C   UNL     1     -29.436  38.781 -43.236  1.00  0.00     0.210 C 
ENDBRANCH  14  17
ENDBRANCH   9  11
ENDBRANCH   1   5
BRANCH   2  19
HETATM   19  N   UNL     1     -34.619  41.234 -54.107  1.00  0.00    -0.267 N 
HETATM   20  C   UNL     1     -35.631  42.166 -54.063  1.00  0.00     0.236 C 
HETATM   21  O   UNL     1     -35.916  42.777 -53.034  1.00  0.00    -0.272 OA
HETATM   22  H   UNL     1     -34.268  40.807 -54.962  1.00  0.00     0.190 HD
BRANCH  20  23
HETATM   23  C   UNL     1     -36.305  42.450 -55.389  1.00  0.00     0.109 C 
BRANCH  23  24
HETATM   24  C   UNL     1     -37.288  41.360 -55.814  1.00  0.00     0.048 C 
BRANCH  24  25
HETATM   25  C   UNL     1     -37.382  41.100 -57.302  1.00  0.00    -0.055 A 
HETATM   26  C   UNL     1     -37.146  42.167 -58.185  1.00  0.00     0.049 A 
HETATM   27  C   UNL     1     -37.265  41.984 -59.559  1.00  0.00     0.116 A 
HETATM   28  F   UNL     1     -37.035  43.015 -60.384  1.00  0.00    -0.206 F 
HETATM   29  C   UNL     1     -37.628  40.753 -60.089  1.00  0.00     0.042 A 
HETATM   30  C   UNL     1     -37.879  39.689 -59.228  1.00  0.00     0.003 A 
HETATM   31  C   UNL     1     -37.763  39.863 -57.843  1.00  0.00     0.007 A 
ENDBRANCH  24  25
ENDBRANCH  23  24
ENDBRANCH  20  23
ENDBRANCH   2  19
TORSDOF 7
ENDMDL
MODEL 4
REMARK VINA RESULT:      -8.0     16.240     21.961
REMARK  7 active torsions:
REMARK  status: ('A' for Active; 'I' for Inactive)
REMARK    1  A    between atoms: O_2  and  C_3 
REMARK    2  A    between atoms: C_6  and  C_7 
REMARK    3  A    between atoms: C_11  and  C_12 
REMARK       I    between atoms: C_12  and  N_13 
REMARK    4  A    between atoms: N_13  and  N_14 
REMARK       I    between atoms: N_14  and  C_15 
REMARK    5  A    between atoms: C_15  and  C_16 
REMARK    6  A    between atoms: C_16  and  C_17 
REMARK    7  A    between atoms: C_17  and  C_18 
ROOT
HETATM    1  C   UNL     1     -33.955  39.935 -52.082  1.00  0.00     0.288 C 
HETATM    2  N   UNL     1     -33.740  41.063 -52.844  1.00  0.00    -0.262 N 
HETATM    3  O   UNL     1     -34.832  39.119 -52.366  1.00  0.00    -0.264 OA
HETATM    4  H   UNL     1     -33.059  41.784 -52.619  1.00  0.00     0.190 HD
ENDROOT
BRANCH   1   5
HETATM    5  C   UNL     1     -33.084  39.776 -50.953  1.00  0.00     0.121 A 
HETATM    6  N   UNL     1     -31.749  40.057 -51.025  1.00  0.00    -0.272 N 
HETATM    7  N   UNL     1     -31.084  39.866 -49.877  1.00  0.00    -0.174 NA
HETATM    8  H   UNL     1     -31.238  40.383 -51.840  1.00  0.00     0.189 HD
HETATM    9  C   UNL     1     -32.023  39.479 -49.000  1.00  0.00     0.089 A 
HETATM   10  C   UNL     1     -33.290  39.388 -49.644  1.00  0.00     0.071 A 
BRANCH   9  11
HETATM   11  C   UNL     1     -31.708  39.208 -47.596  1.00  0.00    -0.005 A 
HETATM   12  C   UNL     1     -30.717  39.936 -46.925  1.00  0.00     0.016 A 
HETATM   13  C   UNL     1     -30.434  39.676 -45.581  1.00  0.00     0.037 A 
HETATM   14  C   UNL     1     -31.137  38.695 -44.881  1.00  0.00     0.068 A 
HETATM   15  C   UNL     1     -32.110  37.950 -45.545  1.00  0.00     0.037 A 
HETATM   16  C   UNL     1     -32.391  38.205 -46.894  1.00  0.00     0.016 A 
BRANCH  14  17
HETATM   17  O   UNL     1     -30.773  38.553 -43.571  1.00  0.00    -0.356 OA
HETATM   18  C   UNL     1     -31.665  37.821 -42.740  1.00  0.00     0.210 C 
ENDBRANCH  14  17
ENDBRANCH   9  11
ENDBRANCH   1   5
BRANCH   2  19
HETATM   19  N   UNL     1     -34.494  41.251 -54.006  1.00  0.00    -0.267 N 
HETATM   20  C   UNL     1     -35.588  42.084 -53.941  1.00  0.00     0.236 C 
HETATM   21  O   UNL     1     -35.966  42.590 -52.885  1.00  0.00    -0.272 OA
HETATM   22  H   UNL     1     -34.073  40.921 -54.873  1.00  0.00     0.190 HD
BRANCH  20  23
HETATM   23  C   UNL     1     -36.234  42.406 -55.272  1.00  0.00     0.109 C 
BRANCH  23  24
HETATM   24  C   UNL     1     -35.333  42.108 -56.470  1.00  0.00     0.048 C 
BRANCH  24  25
HETATM   25  C   UNL     1     -36.023  41.532 -57.688  1.00  0.00    -0.055 A 
HETATM   26  C   UNL     1     -35.736  40.208 -58.056  1.00  0.00     0.049 A 
HETATM   27  C   UNL     1     -36.314  39.652 -59.194  1.00  0.00     0.116 A 
HETATM   28  F   UNL     1     -36.028  38.386 -59.527  1.00  0.00    -0.206 F 
HETATM   29  C   UNL     1     -37.174  40.391 -59.993  1.00  0.00     0.042 A 
HETATM   30  C   UNL     1     -37.459  41.710 -59.651  1.00  0.00     0.003 A 
HETATM   31  C   UNL     1     -36.882  42.279 -58.508  1.00  0.00     0.007 A 
ENDBRANCH  24  25
ENDBRANCH  23  24
ENDBRANCH  20  23
ENDBRANCH   2  19
TORSDOF 7
ENDMDL
MODEL 5
REMARK VINA RESULT:      -7.7      3.639      4.372
REMARK  7 active torsions:
REMARK  status: ('A' for Active; 'I' for Inactive)
REMARK    1  A    between atoms: O_2  and  C_3 
REMARK    2  A    between atoms: C_6  and  C_7 
REMARK    3  A    between atoms: C_11  and  C_12 
REMARK       I    between atoms: C_12  and  N_13 
REMARK    4  A    between atoms: N_13  and  N_14 
REMARK       I    between atoms: N_14  and  C_15 
REMARK    5  A    between atoms: C_15  and  C_16 
REMARK    6  A    between atoms: C_16  and  C_17 
REMARK    7  A    between atoms: C_17  and  C_18 
ROOT
HETATM    1  C   UNL     1     -42.449  57.349 -56.340  1.00  0.00     0.288 C 
HETATM    2  N   UNL     1     -41.703  56.209 -56.126  1.00  0.00    -0.262 N 
HETATM    3  O   UNL     1     -43.078  57.891 -55.432  1.00  0.00    -0.264 OA
HETATM    4  H   UNL     1     -41.207  55.704 -56.857  1.00  0.00     0.190 HD
ENDROOT
BRANCH   1   5
HETATM    5  C   UNL     1     -42.426  57.860 -57.681  1.00  0.00     0.121 A 
HETATM    6  N   UNL     1     -42.335  57.035 -58.767  1.00  0.00    -0.272 N 
HETATM    7  N   UNL     1     -42.339  57.675 -59.944  1.00  0.00    -0.174 NA
HETATM    8  H   UNL     1     -42.266  56.021 -58.759  1.00  0.00     0.189 HD
HETATM    9  C   UNL     1     -42.476  58.971 -59.627  1.00  0.00     0.089 A 
HETATM   10  C   UNL     1     -42.510  59.130 -58.212  1.00  0.00     0.071 A 
BRANCH   9  11
HETATM   11  C   UNL     1     -42.569  60.014 -60.650  1.00  0.00    -0.005 A 
HETATM   12  C   UNL     1     -41.578  60.997 -60.771  1.00  0.00     0.016 A 
HETATM   13  C   UNL     1     -41.672  61.981 -61.760  1.00  0.00     0.037 A 
HETATM   14  C   UNL     1     -42.746  61.997 -62.650  1.00  0.00     0.068 A 
HETATM   15  C   UNL     1     -43.749  61.037 -62.525  1.00  0.00     0.037 A 
HETATM   16  C   UNL     1     -43.660  60.053 -61.531  1.00  0.00     0.016 A 
BRANCH  14  17
HETATM   17  O   UNL     1     -42.708  63.002 -63.577  1.00  0.00    -0.356 OA
HETATM   18  C   UNL     1     -41.419  63.405 -64.022  1.00  0.00     0.210 C 
ENDBRANCH  14  17
ENDBRANCH   9  11
ENDBRANCH   1   5
BRANCH   2  19
HETATM   19  N   UNL     1     -41.609  55.693 -54.831  1.00  0.00    -0.267 N 
HETATM   20  C   UNL     1     -42.344  54.569 -54.526  1.00  0.00     0.236 C 
HETATM   21  O   UNL     1     -43.135  54.066 -55.322  1.00  0.00    -0.272 OA
HETATM   22  H   UNL     1     -40.853  56.060 -54.255  1.00  0.00     0.190 HD
BRANCH  20  23
HETATM   23  C   UNL     1     -42.039  53.945 -53.181  1.00  0.00     0.109 C 
BRANCH  23  24
HETATM   24  C   UNL     1     -40.562  53.598 -52.994  1.00  0.00     0.048 C 
BRANCH  24  25
HETATM   25  C   UNL     1     -40.224  52.123 -53.003  1.00  0.00    -0.055 A 
HETATM   26  C   UNL     1     -39.797  51.527 -51.805  1.00  0.00     0.049 A 
HETATM   27  C   UNL     1     -39.434  50.184 -51.777  1.00  0.00     0.116 A 
HETATM   28  F   UNL     1     -39.031  49.635 -50.623  1.00  0.00    -0.206 F 
HETATM   29  C   UNL     1     -39.473  49.407 -52.926  1.00  0.00     0.042 A 
HETATM   30  C   UNL     1     -39.880  49.986 -54.125  1.00  0.00     0.003 A 
HETATM   31  C   UNL     1     -40.247  51.337 -54.164  1.00  0.00     0.007 A 
ENDBRANCH  24  25
ENDBRANCH  23  24
ENDBRANCH  20  23
ENDBRANCH   2  19
TORSDOF 7
ENDMDL
MODEL 6
REMARK VINA RESULT:      -7.6     17.129     22.283
REMARK  7 active torsions:
REMARK  status: ('A' for Active; 'I' for Inactive)
REMARK    1  A    between atoms: O_2  and  C_3 
REMARK    2  A    between atoms: C_6  and  C_7 
REMARK    3  A    between atoms: C_11  and  C_12 
REMARK       I    between atoms: C_12  and  N_13 
REMARK    4  A    between atoms: N_13  and  N_14 
REMARK       I    between atoms: N_14  and  C_15 
REMARK    5  A    between atoms: C_15  and  C_16 
REMARK    6  A    between atoms: C_16  and  C_17 
REMARK    7  A    between atoms: C_17  and  C_18 
ROOT
HETATM    1  C   UNL     1     -33.594  39.577 -51.666  1.00  0.00     0.288 C 
HETATM    2  N   UNL     1     -33.098  40.647 -52.378  1.00  0.00    -0.262 N 
HETATM    3  O   UNL     1     -34.534  38.901 -52.083  1.00  0.00    -0.264 OA
HETATM    4  H   UNL     1     -32.355  41.259 -52.049  1.00  0.00     0.190 HD
ENDROOT
BRANCH   1   5
HETATM    5  C   UNL     1     -32.934  39.303 -50.421  1.00  0.00     0.121 A 
HETATM    6  N   UNL     1     -32.608  38.031 -50.041  1.00  0.00    -0.272 N 
HETATM    7  N   UNL     1     -31.985  37.955 -48.857  1.00  0.00    -0.174 NA
HETATM    8  H   UNL     1     -32.790  37.175 -50.556  1.00  0.00     0.189 HD
HETATM    9  C   UNL     1     -31.861  39.229 -48.455  1.00  0.00     0.089 A 
HETATM   10  C   UNL     1     -32.467  40.105 -49.400  1.00  0.00     0.071 A 
BRANCH   9  11
HETATM   11  C   UNL     1     -31.185  39.586 -47.205  1.00  0.00    -0.005 A 
HETATM   12  C   UNL     1     -30.389  40.735 -47.118  1.00  0.00     0.016 A 
HETATM   13  C   UNL     1     -29.758  41.071 -45.916  1.00  0.00     0.037 A 
HETATM   14  C   UNL     1     -29.917  40.277 -44.781  1.00  0.00     0.068 A 
HETATM   15  C   UNL     1     -30.689  39.119 -44.863  1.00  0.00     0.037 A 
HETATM   16  C   UNL     1     -31.317  38.777 -46.068  1.00  0.00     0.016 A 
BRANCH  14  17
HETATM   17  O   UNL     1     -29.260  40.727 -43.670  1.00  0.00    -0.356 OA
HETATM   18  C   UNL     1     -28.540  39.755 -42.922  1.00  0.00     0.210 C 
ENDBRANCH  14  17
ENDBRANCH   9  11
ENDBRANCH   1   5
BRANCH   2  19
HETATM   19  N   UNL     1     -33.634  40.932 -53.637  1.00  0.00    -0.267 N 
HETATM   20  C   UNL     1     -32.868  40.651 -54.746  1.00  0.00     0.236 C 
HETATM   21  O   UNL     1     -31.711  40.245 -54.659  1.00  0.00    -0.272 OA
HETATM   22  H   UNL     1     -34.631  41.141 -53.664  1.00  0.00     0.190 HD
BRANCH  20  23
HETATM   23  C   UNL     1     -33.582  40.787 -56.075  1.00  0.00     0.109 C 
BRANCH  23  24
HETATM   24  C   UNL     1     -34.803  41.704 -56.015  1.00  0.00     0.048 C 
BRANCH  24  25
HETATM   25  C   UNL     1     -35.983  41.290 -56.867  1.00  0.00    -0.055 A 
HETATM   26  C   UNL     1     -36.218  41.981 -58.066  1.00  0.00     0.049 A 
HETATM   27  C   UNL     1     -37.317  41.664 -58.859  1.00  0.00     0.116 A 
HETATM   28  F   UNL     1     -37.522  42.336 -60.000  1.00  0.00    -0.206 F 
HETATM   29  C   UNL     1     -38.207  40.668 -58.483  1.00  0.00     0.042 A 
HETATM   30  C   UNL     1     -37.997  39.982 -57.290  1.00  0.00     0.003 A 
HETATM   31  C   UNL     1     -36.895  40.295 -56.484  1.00  0.00     0.007 A 
ENDBRANCH  24  25
ENDBRANCH  23  24
ENDBRANCH  20  23
ENDBRANCH   2  19
TORSDOF 7
ENDMDL
MODEL 7
REMARK VINA RESULT:      -7.6      2.355      2.866
REMARK  7 active torsions:
REMARK  status: ('A' for Active; 'I' for Inactive)
REMARK    1  A    between atoms: O_2  and  C_3 
REMARK    2  A    between atoms: C_6  and  C_7 
REMARK    3  A    between atoms: C_11  and  C_12 
REMARK       I    between atoms: C_12  and  N_13 
REMARK    4  A    between atoms: N_13  and  N_14 
REMARK       I    between atoms: N_14  and  C_15 
REMARK    5  A    between atoms: C_15  and  C_16 
REMARK    6  A    between atoms: C_16  and  C_17 
REMARK    7  A    between atoms: C_17  and  C_18 
ROOT
HETATM    1  C   UNL     1     -43.972  57.212 -55.130  1.00  0.00     0.288 C 
HETATM    2  N   UNL     1     -44.470  56.086 -54.510  1.00  0.00    -0.262 N 
HETATM    3  O   UNL     1     -42.963  57.784 -54.720  1.00  0.00    -0.264 OA
HETATM    4  H   UNL     1     -45.325  55.611 -54.788  1.00  0.00     0.190 HD
ENDROOT
BRANCH   1   5
HETATM    5  C   UNL     1     -44.700  57.655 -56.284  1.00  0.00     0.121 A 
HETATM    6  N   UNL     1     -44.473  57.131 -57.527  1.00  0.00    -0.272 N 
HETATM    7  N   UNL     1     -45.248  57.648 -58.490  1.00  0.00    -0.174 NA
HETATM    8  H   UNL     1     -43.796  56.415 -57.772  1.00  0.00     0.189 HD
HETATM    9  C   UNL     1     -46.044  58.522 -57.855  1.00  0.00     0.089 A 
HETATM   10  C   UNL     1     -45.714  58.572 -56.470  1.00  0.00     0.071 A 
BRANCH   9  11
HETATM   11  C   UNL     1     -47.082  59.279 -58.558  1.00  0.00    -0.005 A 
HETATM   12  C   UNL     1     -47.022  59.470 -59.944  1.00  0.00     0.016 A 
HETATM   13  C   UNL     1     -48.025  60.184 -60.606  1.00  0.00     0.037 A 
HETATM   14  C   UNL     1     -49.108  60.711 -59.902  1.00  0.00     0.068 A 
HETATM   15  C   UNL     1     -49.167  60.545 -58.520  1.00  0.00     0.037 A 
HETATM   16  C   UNL     1     -48.159  59.834 -57.853  1.00  0.00     0.016 A 
BRANCH  14  17
HETATM   17  O   UNL     1     -50.025  61.372 -60.671  1.00  0.00    -0.356 OA
HETATM   18  C   UNL     1     -50.781  62.388 -60.024  1.00  0.00     0.210 C 
ENDBRANCH  14  17
ENDBRANCH   9  11
ENDBRANCH   1   5
BRANCH   2  19
HETATM   19  N   UNL     1     -43.774  55.545 -53.426  1.00  0.00    -0.267 N 
HETATM   20  C   UNL     1     -42.923  54.489 -53.663  1.00  0.00     0.236 C 
HETATM   21  O   UNL     1     -42.826  53.961 -54.770  1.00  0.00    -0.272 OA
HETATM   22  H   UNL     1     -43.786  56.090 -52.565  1.00  0.00     0.190 HD
BRANCH  20  23
HETATM   23  C   UNL     1     -42.050  54.088 -52.494  1.00  0.00     0.109 C 
BRANCH  23  24
HETATM   24  C   UNL     1     -40.619  53.733 -52.900  1.00  0.00     0.048 C 
BRANCH  24  25
HETATM   25  C   UNL     1     -40.291  52.257 -52.943  1.00  0.00    -0.055 A 
HETATM   26  C   UNL     1     -39.831  51.639 -51.769  1.00  0.00     0.049 A 
HETATM   27  C   UNL     1     -39.476  50.293 -51.774  1.00  0.00     0.116 A 
HETATM   28  F   UNL     1     -39.040  49.723 -50.642  1.00  0.00    -0.206 F 
HETATM   29  C   UNL     1     -39.557  49.535 -52.934  1.00  0.00     0.042 A 
HETATM   30  C   UNL     1     -39.998  50.135 -54.110  1.00  0.00     0.003 A 
HETATM   31  C   UNL     1     -40.357  51.489 -54.116  1.00  0.00     0.007 A 
ENDBRANCH  24  25
ENDBRANCH  23  24
ENDBRANCH  20  23
ENDBRANCH   2  19
TORSDOF 7
ENDMDL
MODEL 8
REMARK VINA RESULT:      -7.5      3.670     10.868
REMARK  7 active torsions:
REMARK  status: ('A' for Active; 'I' for Inactive)
REMARK    1  A    between atoms: O_2  and  C_3 
REMARK    2  A    between atoms: C_6  and  C_7 
REMARK    3  A    between atoms: C_11  and  C_12 
REMARK       I    between atoms: C_12  and  N_13 
REMARK    4  A    between atoms: N_13  and  N_14 
REMARK       I    between atoms: N_14  and  C_15 
REMARK    5  A    between atoms: C_15  and  C_16 
REMARK    6  A    between atoms: C_16  and  C_17 
REMARK    7  A    between atoms: C_17  and  C_18 
ROOT
HETATM    1  C   UNL     1     -42.757  56.833 -56.699  1.00  0.00     0.288 C 
HETATM    2  N   UNL     1     -44.106  56.564 -56.795  1.00  0.00    -0.262 N 
HETATM    3  O   UNL     1     -42.209  57.666 -57.419  1.00  0.00    -0.264 OA
HETATM    4  H   UNL     1     -44.589  55.853 -56.253  1.00  0.00     0.190 HD
ENDROOT
BRANCH   1   5
HETATM    5  C   UNL     1     -42.049  56.087 -55.698  1.00  0.00     0.121 A 
HETATM    6  N   UNL     1     -41.520  56.687 -54.590  1.00  0.00    -0.272 N 
HETATM    7  N   UNL     1     -40.902  55.843 -53.751  1.00  0.00    -0.174 NA
HETATM    8  H   UNL     1     -41.551  57.675 -54.357  1.00  0.00     0.189 HD
HETATM    9  C   UNL     1     -41.061  54.633 -54.307  1.00  0.00     0.089 A 
HETATM   10  C   UNL     1     -41.757  54.747 -55.545  1.00  0.00     0.071 A 
BRANCH   9  11
HETATM   11  C   UNL     1     -40.560  53.414 -53.669  1.00  0.00    -0.005 A 
HETATM   12  C   UNL     1     -40.385  53.346 -52.281  1.00  0.00     0.016 A 
HETATM   13  C   UNL     1     -39.917  52.172 -51.682  1.00  0.00     0.037 A 
HETATM   14  C   UNL     1     -39.626  51.046 -52.451  1.00  0.00     0.068 A 
HETATM   15  C   UNL     1     -39.776  51.109 -53.835  1.00  0.00     0.037 A 
HETATM   16  C   UNL     1     -40.239  52.287 -54.439  1.00  0.00     0.016 A 
BRANCH  14  17
HETATM   17  O   UNL     1     -39.193  49.961 -51.740  1.00  0.00    -0.356 OA
HETATM   18  C   UNL     1     -39.777  49.770 -50.458  1.00  0.00     0.210 C 
ENDBRANCH  14  17
ENDBRANCH   9  11
ENDBRANCH   1   5
BRANCH   2  19
HETATM   19  N   UNL     1     -44.882  57.305 -57.691  1.00  0.00    -0.267 N 
HETATM   20  C   UNL     1     -45.704  58.285 -57.182  1.00  0.00     0.236 C 
HETATM   21  O   UNL     1     -45.837  58.465 -55.972  1.00  0.00    -0.272 OA
HETATM   22  H   UNL     1     -44.644  57.210 -58.678  1.00  0.00     0.190 HD
BRANCH  20  23
HETATM   23  C   UNL     1     -46.355  59.182 -58.212  1.00  0.00     0.109 C 
BRANCH  23  24
HETATM   24  C   UNL     1     -45.821  58.965 -59.628  1.00  0.00     0.048 C 
BRANCH  24  25
HETATM   25  C   UNL     1     -44.579  59.750 -59.992  1.00  0.00    -0.055 A 
HETATM   26  C   UNL     1     -43.500  59.064 -60.571  1.00  0.00     0.049 A 
HETATM   27  C   UNL     1     -42.322  59.738 -60.882  1.00  0.00     0.116 A 
HETATM   28  F   UNL     1     -41.304  59.064 -61.435  1.00  0.00    -0.206 F 
HETATM   29  C   UNL     1     -42.182  61.093 -60.620  1.00  0.00     0.042 A 
HETATM   30  C   UNL     1     -43.237  61.786 -60.034  1.00  0.00     0.003 A 
HETATM   31  C   UNL     1     -44.426  61.117 -59.716  1.00  0.00     0.007 A 
ENDBRANCH  24  25
ENDBRANCH  23  24
ENDBRANCH  20  23
ENDBRANCH   2  19
TORSDOF 7
ENDMDL
MODEL 9
REMARK VINA RESULT:      -7.3     16.444     18.024
REMARK  7 active torsions:
REMARK  status: ('A' for Active; 'I' for Inactive)
REMARK    1  A    between atoms: O_2  and  C_3 
REMARK    2  A    between atoms: C_6  and  C_7 
REMARK    3  A    between atoms: C_11  and  C_12 
REMARK       I    between atoms: C_12  and  N_13 
REMARK    4  A    between atoms: N_13  and  N_14 
REMARK       I    between atoms: N_14  and  C_15 
REMARK    5  A    between atoms: C_15  and  C_16 
REMARK    6  A    between atoms: C_16  and  C_17 
REMARK    7  A    between atoms: C_17  and  C_18 
ROOT
HETATM    1  C   UNL     1     -36.914  41.506 -53.530  1.00  0.00     0.288 C 
HETATM    2  N   UNL     1     -37.391  40.437 -52.802  1.00  0.00    -0.262 N 
HETATM    3  O   UNL     1     -36.337  42.450 -52.992  1.00  0.00    -0.264 OA
HETATM    4  H   UNL     1     -37.913  39.660 -53.200  1.00  0.00     0.190 HD
ENDROOT
BRANCH   1   5
HETATM    5  C   UNL     1     -37.126  41.431 -54.947  1.00  0.00     0.121 A 
HETATM    6  N   UNL     1     -37.029  42.533 -55.751  1.00  0.00    -0.272 N 
HETATM    7  N   UNL     1     -37.244  42.285 -57.050  1.00  0.00    -0.174 NA
HETATM    8  H   UNL     1     -36.819  43.483 -55.460  1.00  0.00     0.189 HD
HETATM    9  C   UNL     1     -37.454  40.961 -57.114  1.00  0.00     0.089 A 
HETATM   10  C   UNL     1     -37.412  40.392 -55.810  1.00  0.00     0.071 A 
BRANCH   9  11
HETATM   11  C   UNL     1     -37.688  40.274 -58.386  1.00  0.00    -0.005 A 
HETATM   12  C   UNL     1     -37.315  40.860 -59.603  1.00  0.00     0.016 A 
HETATM   13  C   UNL     1     -37.533  40.188 -60.809  1.00  0.00     0.037 A 
HETATM   14  C   UNL     1     -38.116  38.920 -60.825  1.00  0.00     0.068 A 
HETATM   15  C   UNL     1     -38.511  38.338 -59.622  1.00  0.00     0.037 A 
HETATM   16  C   UNL     1     -38.299  39.012 -58.412  1.00  0.00     0.016 A 
BRANCH  14  17
HETATM   17  O   UNL     1     -38.257  38.370 -62.068  1.00  0.00    -0.356 OA
HETATM   18  C   UNL     1     -37.176  38.559 -62.972  1.00  0.00     0.210 C 
ENDBRANCH  14  17
ENDBRANCH   9  11
ENDBRANCH   1   5
BRANCH   2  19
HETATM   19  N   UNL     1     -37.156  40.395 -51.424  1.00  0.00    -0.267 N 
HETATM   20  C   UNL     1     -37.308  39.190 -50.777  1.00  0.00     0.236 C 
HETATM   21  O   UNL     1     -37.723  38.184 -51.351  1.00  0.00    -0.272 OA
HETATM   22  H   UNL     1     -36.695  41.210 -51.022  1.00  0.00     0.190 HD
BRANCH  20  23
HETATM   23  C   UNL     1     -36.840  39.167 -49.337  1.00  0.00     0.109 C 
BRANCH  23  24
HETATM   24  C   UNL     1     -35.747  38.131 -49.073  1.00  0.00     0.048 C 
BRANCH  24  25
HETATM   25  C   UNL     1     -34.331  38.661 -49.024  1.00  0.00    -0.055 A 
HETATM   26  C   UNL     1     -33.489  38.228 -47.988  1.00  0.00     0.049 A 
HETATM   27  C   UNL     1     -32.193  38.724 -47.879  1.00  0.00     0.116 A 
HETATM   28  F   UNL     1     -31.405  38.296 -46.883  1.00  0.00    -0.206 F 
HETATM   29  C   UNL     1     -31.707  39.660 -48.780  1.00  0.00     0.042 A 
HETATM   30  C   UNL     1     -32.533  40.112 -49.806  1.00  0.00     0.003 A 
HETATM   31  C   UNL     1     -33.839  39.620 -49.923  1.00  0.00     0.007 A 
ENDBRANCH  24  25
ENDBRANCH  23  24
ENDBRANCH  20  23
ENDBRANCH   2  19
TORSDOF 7
ENDMDL
MODEL 10
REMARK VINA RESULT:      -7.3     16.530     18.339
REMARK  7 active torsions:
REMARK  status: ('A' for Active; 'I' for Inactive)
REMARK    1  A    between atoms: O_2  and  C_3 
REMARK    2  A    between atoms: C_6  and  C_7 
REMARK    3  A    between atoms: C_11  and  C_12 
REMARK       I    between atoms: C_12  and  N_13 
REMARK    4  A    between atoms: N_13  and  N_14 
REMARK       I    between atoms: N_14  and  C_15 
REMARK    5  A    between atoms: C_15  and  C_16 
REMARK    6  A    between atoms: C_16  and  C_17 
REMARK    7  A    between atoms: C_17  and  C_18 
ROOT
HETATM    1  C   UNL     1     -36.365  41.332 -53.450  1.00  0.00     0.288 C 
HETATM    2  N   UNL     1     -35.525  40.307 -53.070  1.00  0.00    -0.262 N 
HETATM    3  O   UNL     1     -36.729  42.199 -52.656  1.00  0.00    -0.264 OA
HETATM    4  H   UNL     1     -35.238  39.546 -53.681  1.00  0.00     0.190 HD
ENDROOT
BRANCH   1   5
HETATM    5  C   UNL     1     -36.770  41.321 -54.826  1.00  0.00     0.121 A 
HETATM    6  N   UNL     1     -37.074  42.472 -55.499  1.00  0.00    -0.272 N 
HETATM    7  N   UNL     1     -37.422  42.283 -56.780  1.00  0.00    -0.174 NA
HETATM    8  H   UNL     1     -37.062  43.417 -55.128  1.00  0.00     0.189 HD
HETATM    9  C   UNL     1     -37.307  40.960 -56.972  1.00  0.00     0.089 A 
HETATM   10  C   UNL     1     -36.923  40.318 -55.761  1.00  0.00     0.071 A 
BRANCH   9  11
HETATM   11  C   UNL     1     -37.560  40.342 -58.276  1.00  0.00    -0.005 A 
HETATM   12  C   UNL     1     -38.203  39.101 -58.373  1.00  0.00     0.016 A 
HETATM   13  C   UNL     1     -38.450  38.527 -59.624  1.00  0.00     0.037 A 
HETATM   14  C   UNL     1     -38.071  39.181 -60.796  1.00  0.00     0.068 A 
HETATM   15  C   UNL     1     -37.411  40.405 -60.710  1.00  0.00     0.037 A 
HETATM   16  C   UNL     1     -37.157  40.980 -59.457  1.00  0.00     0.016 A 
BRANCH  14  17
HETATM   17  O   UNL     1     -38.385  38.518 -61.950  1.00  0.00    -0.356 OA
HETATM   18  C   UNL     1     -37.411  38.550 -62.985  1.00  0.00     0.210 C 
ENDBRANCH  14  17
ENDBRANCH   9  11
ENDBRANCH   1   5
BRANCH   2  19
HETATM   19  N   UNL     1     -35.022  40.290 -51.766  1.00  0.00    -0.267 N 
HETATM   20  C   UNL     1     -33.664  40.434 -51.593  1.00  0.00     0.236 C 
HETATM   21  O   UNL     1     -32.884  40.488 -52.543  1.00  0.00    -0.272 OA
HETATM   22  H   UNL     1     -35.709  40.373 -51.018  1.00  0.00     0.190 HD
BRANCH  20  23
HETATM   23  C   UNL     1     -33.211  40.615 -50.160  1.00  0.00     0.109 C 
BRANCH  23  24
HETATM   24  C   UNL     1     -31.977  39.784 -49.806  1.00  0.00     0.048 C 
BRANCH  24  25
HETATM   25  C   UNL     1     -31.856  39.367 -48.356  1.00  0.00    -0.055 A 
HETATM   26  C   UNL     1     -30.890  39.998 -47.556  1.00  0.00     0.049 A 
HETATM   27  C   UNL     1     -30.714  39.615 -46.230  1.00  0.00     0.116 A 
HETATM   28  F   UNL     1     -29.787  40.231 -45.484  1.00  0.00    -0.206 F 
HETATM   29  C   UNL     1     -31.476  38.599 -45.671  1.00  0.00     0.042 A 
HETATM   30  C   UNL     1     -32.429  37.953 -46.454  1.00  0.00     0.003 A 
HETATM   31  C   UNL     1     -32.613  38.330 -47.790  1.00  0.00     0.007 A 
ENDBRANCH  24  25
ENDBRANCH  23  24
ENDBRANCH  20  23
ENDBRANCH   2  19
TORSDOF 7
ENDMDL
