MODEL 1
REMARK VINA RESULT:      -9.0      0.000      0.000
REMARK  7 active torsions:
REMARK  status: ('A' for Active; 'I' for Inactive)
REMARK    1  A    between atoms: C_8  and  C_9 
REMARK    2  A    between atoms: C_9  and  C_10 
REMARK    3  A    between atoms: C_10  and  N_11 
REMARK    4  A    between atoms: C_10  and  C_19 
REMARK       I    between atoms: N_11  and  C_12 
REMARK    5  A    between atoms: C_12  and  C_13 
REMARK       I    between atoms: C_19  and  N_20 
REMARK    6  A    between atoms: N_20  and  N_21 
REMARK       I    between atoms: N_21  and  C_22 
REMARK       I    between atoms: C_22  and  N_23 
REMARK    7  A    between atoms: N_23  and  C_24 
ROOT
HETATM    1  C   UNL     1     -42.126  54.676 -54.206  1.00  0.00     0.183 C 
ENDROOT
BRANCH   1   2
HETATM    2  C   UNL     1     -40.658  54.705 -53.739  1.00  0.00     0.076 C 
BRANCH   2   3
HETATM    3  C   UNL     1     -40.315  53.605 -52.778  1.00  0.00    -0.028 A 
HETATM    4  C   UNL     1     -40.104  52.225 -53.099  1.00  0.00    -0.002 A 
HETATM    5  C   UNL     1     -40.128  51.480 -54.297  1.00  0.00     0.014 A 
HETATM    6  C   UNL     1     -39.819  51.558 -51.907  1.00  0.00     0.042 A 
HETATM    7  C   UNL     1     -39.872  50.104 -54.259  1.00  0.00     0.001 A 
HETATM    8  C   UNL     1     -39.595  49.468 -53.052  1.00  0.00     0.002 A 
HETATM    9  C   UNL     1     -39.562  50.183 -51.851  1.00  0.00     0.030 A 
HETATM   10  N   UNL     1     -39.842  52.495 -50.903  1.00  0.00    -0.365 N 
HETATM   11  H   UNL     1     -39.656  52.296 -49.930  1.00  0.00     0.165 HD
HETATM   12  C   UNL     1     -40.139  53.731 -51.413  1.00  0.00     0.096 A 
ENDBRANCH   2   3
ENDBRANCH   1   2
BRANCH   1  13
HETATM   13  N   UNL     1     -42.361  55.585 -55.335  1.00  0.00    -0.343 N 
HETATM   14  C   UNL     1     -42.964  55.175 -56.503  1.00  0.00     0.259 C 
HETATM   15  O   UNL     1     -43.591  54.115 -56.543  1.00  0.00    -0.267 OA
HETATM   16  H   UNL     1     -41.757  56.397 -55.412  1.00  0.00     0.163 HD
BRANCH  14  17
HETATM   17  C   UNL     1     -42.827  56.065 -57.646  1.00  0.00     0.072 A 
HETATM   18  S   UNL     1     -42.478  57.736 -57.469  1.00  0.00    -0.097 SA
HETATM   19  C   UNL     1     -42.504  57.995 -59.158  1.00  0.00     0.050 A 
HETATM   20  C   UNL     1     -42.762  56.835 -59.853  1.00  0.00     0.009 A 
HETATM   21  C   UNL     1     -42.948  55.723 -58.982  1.00  0.00     0.025 A 
ENDBRANCH  14  17
ENDBRANCH   1  13
BRANCH   1  22
HETATM   22  C   UNL     1     -43.036  54.990 -52.996  1.00  0.00     0.259 C 
HETATM   23  N   UNL     1     -43.355  56.332 -52.827  1.00  0.00    -0.264 N 
HETATM   24  H   UNL     1     -43.242  56.937 -53.646  1.00  0.00     0.190 HD
HETATM   25  O   UNL     1     -43.567  54.114 -52.309  1.00  0.00    -0.269 OA
BRANCH  23  26
HETATM   26  N   UNL     1     -44.451  56.588 -51.984  1.00  0.00    -0.249 N 
HETATM   27  C   UNL     1     -44.696  57.794 -51.370  1.00  0.00     0.339 C 
HETATM   28  N   UNL     1     -43.961  58.844 -51.862  1.00  0.00    -0.308 N 
HETATM   29  O   UNL     1     -45.542  57.843 -50.482  1.00  0.00    -0.245 OA
HETATM   30  H   UNL     1     -43.245  58.582 -52.523  1.00  0.00     0.170 HD
HETATM   31  H   UNL     1     -44.866  55.774 -51.530  1.00  0.00     0.192 HD
BRANCH  28  32
HETATM   32  C   UNL     1     -44.073  60.206 -51.521  1.00  0.00     0.036 A 
HETATM   33  C   UNL     1     -45.058  61.057 -52.031  1.00  0.00     0.031 A 
HETATM   34  C   UNL     1     -45.095  62.408 -51.668  1.00  0.00     0.026 A 
HETATM   35  C   UNL     1     -44.142  62.916 -50.791  1.00  0.00     0.034 A 
HETATM   36 CL   UNL     1     -44.178  64.580 -50.355  1.00  0.00    -0.084 Cl
HETATM   37  C   UNL     1     -43.156  62.082 -50.271  1.00  0.00     0.026 A 
HETATM   38  C   UNL     1     -43.123  60.730 -50.634  1.00  0.00     0.031 A 
ENDBRANCH  28  32
ENDBRANCH  23  26
ENDBRANCH   1  22
TORSDOF 7
ENDMDL
MODEL 2
REMARK VINA RESULT:      -9.0      3.683      6.959
REMARK  7 active torsions:
REMARK  status: ('A' for Active; 'I' for Inactive)
REMARK    1  A    between atoms: C_8  and  C_9 
REMARK    2  A    between atoms: C_9  and  C_10 
REMARK    3  A    between atoms: C_10  and  N_11 
REMARK    4  A    between atoms: C_10  and  C_19 
REMARK       I    between atoms: N_11  and  C_12 
REMARK    5  A    between atoms: C_12  and  C_13 
REMARK       I    between atoms: C_19  and  N_20 
REMARK    6  A    between atoms: N_20  and  N_21 
REMARK       I    between atoms: N_21  and  C_22 
REMARK       I    between atoms: C_22  and  N_23 
REMARK    7  A    between atoms: N_23  and  C_24 
ROOT
HETATM    1  C   UNL     1     -42.861  55.989 -54.296  1.00  0.00     0.183 C 
ENDROOT
BRANCH   1   2
HETATM    2  C   UNL     1     -43.207  54.722 -53.491  1.00  0.00     0.076 C 
BRANCH   2   3
HETATM    3  C   UNL     1     -42.042  54.162 -52.730  1.00  0.00    -0.028 A 
HETATM    4  C   UNL     1     -41.212  53.063 -53.126  1.00  0.00    -0.002 A 
HETATM    5  C   UNL     1     -41.180  52.210 -54.249  1.00  0.00     0.014 A 
HETATM    6  C   UNL     1     -40.261  52.876 -52.122  1.00  0.00     0.042 A 
HETATM    7  C   UNL     1     -40.209  51.205 -54.324  1.00  0.00     0.001 A 
HETATM    8  C   UNL     1     -39.277  51.041 -53.303  1.00  0.00     0.002 A 
HETATM    9  C   UNL     1     -39.284  51.875 -52.181  1.00  0.00     0.030 A 
HETATM   10  N   UNL     1     -40.493  53.829 -51.160  1.00  0.00    -0.365 N 
HETATM   11  H   UNL     1     -39.945  53.939 -50.319  1.00  0.00     0.165 HD
HETATM   12  C   UNL     1     -41.562  54.610 -51.514  1.00  0.00     0.096 A 
ENDBRANCH   2   3
ENDBRANCH   1   2
BRANCH   1  13
HETATM   13  N   UNL     1     -43.733  57.117 -53.948  1.00  0.00    -0.343 N 
HETATM   14  C   UNL     1     -43.449  57.982 -52.915  1.00  0.00     0.259 C 
HETATM   15  O   UNL     1     -42.317  58.024 -52.430  1.00  0.00    -0.267 OA
HETATM   16  H   UNL     1     -44.713  57.045 -54.206  1.00  0.00     0.163 HD
BRANCH  14  17
HETATM   17  C   UNL     1     -44.544  58.829 -52.463  1.00  0.00     0.072 A 
HETATM   18  S   UNL     1     -45.248  60.028 -53.468  1.00  0.00    -0.097 SA
HETATM   19  C   UNL     1     -46.345  60.508 -52.249  1.00  0.00     0.050 A 
HETATM   20  C   UNL     1     -46.194  59.768 -51.098  1.00  0.00     0.009 A 
HETATM   21  C   UNL     1     -45.156  58.800 -51.222  1.00  0.00     0.025 A 
ENDBRANCH  14  17
ENDBRANCH   1  13
BRANCH   1  22
HETATM   22  C   UNL     1     -42.913  55.646 -55.804  1.00  0.00     0.259 C 
HETATM   23  N   UNL     1     -42.824  56.735 -56.662  1.00  0.00    -0.264 N 
HETATM   24  H   UNL     1     -42.428  57.597 -56.271  1.00  0.00     0.190 HD
HETATM   25  O   UNL     1     -42.888  54.490 -56.230  1.00  0.00    -0.269 OA
BRANCH  23  26
HETATM   26  N   UNL     1     -42.501  56.425 -57.995  1.00  0.00    -0.249 N 
HETATM   27  C   UNL     1     -43.408  56.384 -59.027  1.00  0.00     0.339 C 
HETATM   28  N   UNL     1     -44.623  56.956 -58.741  1.00  0.00    -0.308 N 
HETATM   29  O   UNL     1     -43.066  55.884 -60.094  1.00  0.00    -0.245 OA
HETATM   30  H   UNL     1     -44.745  57.222 -57.775  1.00  0.00     0.170 HD
HETATM   31  H   UNL     1     -41.656  55.869 -58.133  1.00  0.00     0.192 HD
BRANCH  28  32
HETATM   32  C   UNL     1     -45.702  57.169 -59.621  1.00  0.00     0.036 A 
HETATM   33  C   UNL     1     -46.473  56.139 -60.169  1.00  0.00     0.031 A 
HETATM   34  C   UNL     1     -47.516  56.420 -61.058  1.00  0.00     0.026 A 
HETATM   35  C   UNL     1     -47.792  57.738 -61.407  1.00  0.00     0.034 A 
HETATM   36 CL   UNL     1     -49.065  58.085 -62.510  1.00  0.00    -0.084 Cl
HETATM   37  C   UNL     1     -47.036  58.777 -60.869  1.00  0.00     0.026 A 
HETATM   38  C   UNL     1     -45.995  58.492 -59.977  1.00  0.00     0.031 A 
ENDBRANCH  28  32
ENDBRANCH  23  26
ENDBRANCH   1  22
TORSDOF 7
ENDMDL
MODEL 3
REMARK VINA RESULT:      -9.0      3.825      8.138
REMARK  7 active torsions:
REMARK  status: ('A' for Active; 'I' for Inactive)
REMARK    1  A    between atoms: C_8  and  C_9 
REMARK    2  A    between atoms: C_9  and  C_10 
REMARK    3  A    between atoms: C_10  and  N_11 
REMARK    4  A    between atoms: C_10  and  C_19 
REMARK       I    between atoms: N_11  and  C_12 
REMARK    5  A    between atoms: C_12  and  C_13 
REMARK       I    between atoms: C_19  and  N_20 
REMARK    6  A    between atoms: N_20  and  N_21 
REMARK       I    between atoms: N_21  and  C_22 
REMARK       I    between atoms: C_22  and  N_23 
REMARK    7  A    between atoms: N_23  and  C_24 
ROOT
HETATM    1  C   UNL     1     -43.080  58.051 -52.429  1.00  0.00     0.183 C 
ENDROOT
BRANCH   1   2
HETATM    2  C   UNL     1     -42.438  58.237 -53.817  1.00  0.00     0.076 C 
BRANCH   2   3
HETATM    3  C   UNL     1     -42.794  57.151 -54.790  1.00  0.00    -0.028 A 
HETATM    4  C   UNL     1     -42.692  57.217 -56.217  1.00  0.00    -0.002 A 
HETATM    5  C   UNL     1     -42.262  58.204 -57.128  1.00  0.00     0.014 A 
HETATM    6  C   UNL     1     -43.136  55.995 -56.724  1.00  0.00     0.042 A 
HETATM    7  C   UNL     1     -42.294  57.938 -58.502  1.00  0.00     0.001 A 
HETATM    8  C   UNL     1     -42.747  56.709 -58.975  1.00  0.00     0.002 A 
HETATM    9  C   UNL     1     -43.176  55.712 -58.094  1.00  0.00     0.030 A 
HETATM   10  N   UNL     1     -43.480  55.211 -55.649  1.00  0.00    -0.365 N 
HETATM   11  H   UNL     1     -43.824  54.264 -55.718  1.00  0.00     0.165 HD
HETATM   12  C   UNL     1     -43.279  55.895 -54.479  1.00  0.00     0.096 A 
ENDBRANCH   2   3
ENDBRANCH   1   2
BRANCH   1  13
HETATM   13  N   UNL     1     -43.819  59.246 -52.002  1.00  0.00    -0.343 N 
HETATM   14  C   UNL     1     -45.029  59.175 -51.348  1.00  0.00     0.259 C 
HETATM   15  O   UNL     1     -45.401  58.117 -50.838  1.00  0.00    -0.267 OA
HETATM   16  H   UNL     1     -43.640  60.109 -52.506  1.00  0.00     0.163 HD
BRANCH  14  17
HETATM   17  C   UNL     1     -45.804  60.405 -51.290  1.00  0.00     0.072 A 
HETATM   18  S   UNL     1     -45.698  61.492 -49.967  1.00  0.00    -0.097 SA
HETATM   19  C   UNL     1     -46.843  62.557 -50.656  1.00  0.00     0.050 A 
HETATM   20  C   UNL     1     -47.295  62.108 -51.876  1.00  0.00     0.009 A 
HETATM   21  C   UNL     1     -46.696  60.868 -52.242  1.00  0.00     0.025 A 
ENDBRANCH  14  17
ENDBRANCH   1  13
BRANCH   1  22
HETATM   22  C   UNL     1     -41.977  57.648 -51.423  1.00  0.00     0.259 C 
HETATM   23  N   UNL     1     -42.406  56.873 -50.352  1.00  0.00    -0.264 N 
HETATM   24  H   UNL     1     -43.298  56.382 -50.469  1.00  0.00     0.190 HD
HETATM   25  O   UNL     1     -40.779  57.865 -51.618  1.00  0.00    -0.269 OA
BRANCH  23  26
HETATM   26  N   UNL     1     -41.389  56.201 -49.651  1.00  0.00    -0.249 N 
HETATM   27  C   UNL     1     -40.870  54.980 -50.011  1.00  0.00     0.339 C 
HETATM   28  N   UNL     1     -41.197  54.573 -51.280  1.00  0.00    -0.308 N 
HETATM   29  O   UNL     1     -40.156  54.383 -49.210  1.00  0.00    -0.245 OA
HETATM   30  H   UNL     1     -41.878  55.156 -51.745  1.00  0.00     0.170 HD
HETATM   31  H   UNL     1     -41.290  56.446 -48.665  1.00  0.00     0.192 HD
BRANCH  28  32
HETATM   32  C   UNL     1     -40.727  53.437 -51.967  1.00  0.00     0.036 A 
HETATM   33  C   UNL     1     -39.966  52.427 -51.370  1.00  0.00     0.031 A 
HETATM   34  C   UNL     1     -39.509  51.337 -52.119  1.00  0.00     0.026 A 
HETATM   35  C   UNL     1     -39.811  51.253 -53.474  1.00  0.00     0.034 A 
HETATM   36 CL   UNL     1     -39.239  49.920 -54.399  1.00  0.00    -0.084 Cl
HETATM   37  C   UNL     1     -40.571  52.248 -54.084  1.00  0.00     0.026 A 
HETATM   38  C   UNL     1     -41.029  53.336 -53.331  1.00  0.00     0.031 A 
ENDBRANCH  28  32
ENDBRANCH  23  26
ENDBRANCH   1  22
TORSDOF 7
ENDMDL
MODEL 4
REMARK VINA RESULT:      -8.8      3.820      5.363
REMARK  7 active torsions:
REMARK  status: ('A' for Active; 'I' for Inactive)
REMARK    1  A    between atoms: C_8  and  C_9 
REMARK    2  A    between atoms: C_9  and  C_10 
REMARK    3  A    between atoms: C_10  and  N_11 
REMARK    4  A    between atoms: C_10  and  C_19 
REMARK       I    between atoms: N_11  and  C_12 
REMARK    5  A    between atoms: C_12  and  C_13 
REMARK       I    between atoms: C_19  and  N_20 
REMARK    6  A    between atoms: N_20  and  N_21 
REMARK       I    between atoms: N_21  and  C_22 
REMARK       I    between atoms: C_22  and  N_23 
REMARK    7  A    between atoms: N_23  and  C_24 
ROOT
HETATM    1  C   UNL     1     -43.155  56.044 -55.211  1.00  0.00     0.183 C 
ENDROOT
BRANCH   1   2
HETATM    2  C   UNL     1     -41.632  55.949 -55.004  1.00  0.00     0.076 C 
BRANCH   2   3
HETATM    3  C   UNL     1     -41.245  55.283 -53.716  1.00  0.00    -0.028 A 
HETATM    4  C   UNL     1     -40.692  53.970 -53.567  1.00  0.00    -0.002 A 
HETATM    5  C   UNL     1     -40.339  52.943 -54.467  1.00  0.00     0.014 A 
HETATM    6  C   UNL     1     -40.493  53.753 -52.202  1.00  0.00     0.042 A 
HETATM    7  C   UNL     1     -39.810  51.745 -53.975  1.00  0.00     0.001 A 
HETATM    8  C   UNL     1     -39.628  51.559 -52.607  1.00  0.00     0.002 A 
HETATM    9  C   UNL     1     -39.966  52.561 -51.693  1.00  0.00     0.030 A 
HETATM   10  N   UNL     1     -40.895  54.893 -51.548  1.00  0.00    -0.365 N 
HETATM   11  H   UNL     1     -40.852  55.024 -50.548  1.00  0.00     0.165 HD
HETATM   12  C   UNL     1     -41.349  55.821 -52.448  1.00  0.00     0.096 A 
ENDBRANCH   2   3
ENDBRANCH   1   2
BRANCH   1  13
HETATM   13  N   UNL     1     -43.554  55.609 -56.556  1.00  0.00    -0.343 N 
HETATM   14  C   UNL     1     -43.295  56.356 -57.683  1.00  0.00     0.259 C 
HETATM   15  O   UNL     1     -42.468  57.270 -57.649  1.00  0.00    -0.267 OA
HETATM   16  H   UNL     1     -44.336  54.965 -56.624  1.00  0.00     0.163 HD
BRANCH  14  17
HETATM   17  C   UNL     1     -44.031  55.989 -58.884  1.00  0.00     0.072 A 
HETATM   18  S   UNL     1     -45.004  57.113 -59.740  1.00  0.00    -0.097 SA
HETATM   19  C   UNL     1     -45.465  55.943 -60.897  1.00  0.00     0.050 A 
HETATM   20  C   UNL     1     -44.885  54.718 -60.651  1.00  0.00     0.009 A 
HETATM   21  C   UNL     1     -44.059  54.746 -59.490  1.00  0.00     0.025 A 
ENDBRANCH  14  17
ENDBRANCH   1  13
BRANCH   1  22
HETATM   22  C   UNL     1     -43.608  57.489 -54.899  1.00  0.00     0.259 C 
HETATM   23  N   UNL     1     -42.610  58.452 -54.974  1.00  0.00    -0.264 N 
HETATM   24  H   UNL     1     -41.773  58.205 -55.512  1.00  0.00     0.190 HD
HETATM   25  O   UNL     1     -44.790  57.801 -54.737  1.00  0.00    -0.269 OA
BRANCH  23  26
HETATM   26  N   UNL     1     -43.062  59.781 -55.060  1.00  0.00    -0.249 N 
HETATM   27  C   UNL     1     -42.670  60.676 -56.028  1.00  0.00     0.339 C 
HETATM   28  N   UNL     1     -42.025  60.110 -57.099  1.00  0.00    -0.308 N 
HETATM   29  O   UNL     1     -42.943  61.863 -55.879  1.00  0.00    -0.245 OA
HETATM   30  H   UNL     1     -41.805  59.131 -56.989  1.00  0.00     0.170 HD
HETATM   31  H   UNL     1     -43.398  60.196 -54.191  1.00  0.00     0.192 HD
BRANCH  28  32
HETATM   32  C   UNL     1     -41.612  60.744 -58.287  1.00  0.00     0.036 A 
HETATM   33  C   UNL     1     -40.704  61.808 -58.326  1.00  0.00     0.031 A 
HETATM   34  C   UNL     1     -40.357  62.409 -59.542  1.00  0.00     0.026 A 
HETATM   35  C   UNL     1     -40.921  61.949 -60.727  1.00  0.00     0.034 A 
HETATM   36 CL   UNL     1     -40.505  62.696 -62.220  1.00  0.00    -0.084 Cl
HETATM   37  C   UNL     1     -41.824  60.889 -60.707  1.00  0.00     0.026 A 
HETATM   38  C   UNL     1     -42.167  60.288 -59.490  1.00  0.00     0.031 A 
ENDBRANCH  28  32
ENDBRANCH  23  26
ENDBRANCH   1  22
TORSDOF 7
ENDMDL
MODEL 5
REMARK VINA RESULT:      -8.5      1.804      1.992
REMARK  7 active torsions:
REMARK  status: ('A' for Active; 'I' for Inactive)
REMARK    1  A    between atoms: C_8  and  C_9 
REMARK    2  A    between atoms: C_9  and  C_10 
REMARK    3  A    between atoms: C_10  and  N_11 
REMARK    4  A    between atoms: C_10  and  C_19 
REMARK       I    between atoms: N_11  and  C_12 
REMARK    5  A    between atoms: C_12  and  C_13 
REMARK       I    between atoms: C_19  and  N_20 
REMARK    6  A    between atoms: N_20  and  N_21 
REMARK       I    between atoms: N_21  and  C_22 
REMARK       I    between atoms: C_22  and  N_23 
REMARK    7  A    between atoms: N_23  and  C_24 
ROOT
HETATM    1  C   UNL     1     -42.193  55.056 -53.478  1.00  0.00     0.183 C 
ENDROOT
BRANCH   1   2
HETATM    2  C   UNL     1     -40.688  54.734 -53.417  1.00  0.00     0.076 C 
BRANCH   2   3
HETATM    3  C   UNL     1     -40.359  53.592 -52.500  1.00  0.00    -0.028 A 
HETATM    4  C   UNL     1     -40.122  52.232 -52.881  1.00  0.00    -0.002 A 
HETATM    5  C   UNL     1     -40.102  51.545 -54.113  1.00  0.00     0.014 A 
HETATM    6  C   UNL     1     -39.862  51.511 -51.715  1.00  0.00     0.042 A 
HETATM    7  C   UNL     1     -39.830  50.172 -54.133  1.00  0.00     0.001 A 
HETATM    8  C   UNL     1     -39.579  49.481 -52.951  1.00  0.00     0.002 A 
HETATM    9  C   UNL     1     -39.590  50.138 -51.717  1.00  0.00     0.030 A 
HETATM   10  N   UNL     1     -39.924  52.399 -50.667  1.00  0.00    -0.365 N 
HETATM   11  H   UNL     1     -39.764  52.154 -49.700  1.00  0.00     0.165 HD
HETATM   12  C   UNL     1     -40.222  53.654 -51.126  1.00  0.00     0.096 A 
ENDBRANCH   2   3
ENDBRANCH   1   2
BRANCH   1  13
HETATM   13  N   UNL     1     -42.556  55.751 -54.719  1.00  0.00    -0.343 N 
HETATM   14  C   UNL     1     -42.965  55.082 -55.851  1.00  0.00     0.259 C 
HETATM   15  O   UNL     1     -43.323  53.905 -55.785  1.00  0.00    -0.267 OA
HETATM   16  H   UNL     1     -42.154  56.671 -54.872  1.00  0.00     0.163 HD
BRANCH  14  17
HETATM   17  C   UNL     1     -42.961  55.847 -57.090  1.00  0.00     0.072 A 
HETATM   18  S   UNL     1     -42.580  57.519 -57.131  1.00  0.00    -0.097 SA
HETATM   19  C   UNL     1     -42.809  57.604 -58.822  1.00  0.00     0.050 A 
HETATM   20  C   UNL     1     -43.159  56.384 -59.357  1.00  0.00     0.009 A 
HETATM   21  C   UNL     1     -43.246  55.372 -58.358  1.00  0.00     0.025 A 
ENDBRANCH  14  17
ENDBRANCH   1  13
BRANCH   1  22
HETATM   22  C   UNL     1     -42.578  55.863 -52.216  1.00  0.00     0.259 C 
HETATM   23  N   UNL     1     -41.796  56.984 -51.968  1.00  0.00    -0.264 N 
HETATM   24  H   UNL     1     -41.264  57.357 -52.761  1.00  0.00     0.190 HD
HETATM   25  O   UNL     1     -43.589  55.627 -51.551  1.00  0.00    -0.269 OA
BRANCH  23  26
HETATM   26  N   UNL     1     -42.345  57.914 -51.067  1.00  0.00    -0.249 N 
HETATM   27  C   UNL     1     -42.899  59.118 -51.431  1.00  0.00     0.339 C 
HETATM   28  N   UNL     1     -43.157  59.244 -52.774  1.00  0.00    -0.308 N 
HETATM   29  O   UNL     1     -43.138  59.946 -50.558  1.00  0.00    -0.245 OA
HETATM   30  H   UNL     1     -42.795  58.494 -53.343  1.00  0.00     0.170 HD
HETATM   31  H   UNL     1     -42.003  57.862 -50.107  1.00  0.00     0.192 HD
BRANCH  28  32
HETATM   32  C   UNL     1     -43.820  60.302 -53.426  1.00  0.00     0.036 A 
HETATM   33  C   UNL     1     -45.210  60.387 -53.555  1.00  0.00     0.031 A 
HETATM   34  C   UNL     1     -45.802  61.454 -54.240  1.00  0.00     0.026 A 
HETATM   35  C   UNL     1     -45.003  62.445 -54.801  1.00  0.00     0.034 A 
HETATM   36 CL   UNL     1     -45.729  63.751 -55.654  1.00  0.00    -0.084 Cl
HETATM   37  C   UNL     1     -43.618  62.378 -54.679  1.00  0.00     0.026 A 
HETATM   38  C   UNL     1     -43.028  61.310 -53.992  1.00  0.00     0.031 A 
ENDBRANCH  28  32
ENDBRANCH  23  26
ENDBRANCH   1  22
TORSDOF 7
ENDMDL
MODEL 6
REMARK VINA RESULT:      -8.5      4.174      8.365
REMARK  7 active torsions:
REMARK  status: ('A' for Active; 'I' for Inactive)
REMARK    1  A    between atoms: C_8  and  C_9 
REMARK    2  A    between atoms: C_9  and  C_10 
REMARK    3  A    between atoms: C_10  and  N_11 
REMARK    4  A    between atoms: C_10  and  C_19 
REMARK       I    between atoms: N_11  and  C_12 
REMARK    5  A    between atoms: C_12  and  C_13 
REMARK       I    between atoms: C_19  and  N_20 
REMARK    6  A    between atoms: N_20  and  N_21 
REMARK       I    between atoms: N_21  and  C_22 
REMARK       I    between atoms: C_22  and  N_23 
REMARK    7  A    between atoms: N_23  and  C_24 
ROOT
HETATM    1  C   UNL     1     -43.120  55.979 -54.216  1.00  0.00     0.183 C 
ENDROOT
BRANCH   1   2
HETATM    2  C   UNL     1     -43.170  57.519 -54.215  1.00  0.00     0.076 C 
BRANCH   2   3
HETATM    3  C   UNL     1     -42.996  58.121 -52.852  1.00  0.00    -0.028 A 
HETATM    4  C   UNL     1     -41.765  58.557 -52.262  1.00  0.00    -0.002 A 
HETATM    5  C   UNL     1     -40.424  58.588 -52.696  1.00  0.00     0.014 A 
HETATM    6  C   UNL     1     -42.062  59.040 -50.987  1.00  0.00     0.042 A 
HETATM    7  C   UNL     1     -39.434  59.092 -51.844  1.00  0.00     0.001 A 
HETATM    8  C   UNL     1     -39.763  59.563 -50.576  1.00  0.00     0.002 A 
HETATM    9  C   UNL     1     -41.085  59.546 -50.122  1.00  0.00     0.030 A 
HETATM   10  N   UNL     1     -43.419  58.916 -50.812  1.00  0.00    -0.365 N 
HETATM   11  H   UNL     1     -43.917  59.201 -49.981  1.00  0.00     0.165 HD
HETATM   12  C   UNL     1     -43.993  58.365 -51.927  1.00  0.00     0.096 A 
ENDBRANCH   2   3
ENDBRANCH   1   2
BRANCH   1  13
HETATM   13  N   UNL     1     -42.185  55.460 -53.210  1.00  0.00    -0.343 N 
HETATM   14  C   UNL     1     -42.580  54.618 -52.194  1.00  0.00     0.259 C 
HETATM   15  O   UNL     1     -43.664  54.036 -52.253  1.00  0.00    -0.267 OA
HETATM   16  H   UNL     1     -41.345  56.002 -53.032  1.00  0.00     0.163 HD
BRANCH  14  17
HETATM   17  C   UNL     1     -41.647  54.458 -51.089  1.00  0.00     0.072 A 
HETATM   18  S   UNL     1     -40.623  53.089 -50.947  1.00  0.00    -0.097 SA
HETATM   19  C   UNL     1     -39.936  53.663 -49.491  1.00  0.00     0.050 A 
HETATM   20  C   UNL     1     -40.462  54.880 -49.118  1.00  0.00     0.009 A 
HETATM   21  C   UNL     1     -41.447  55.338 -50.039  1.00  0.00     0.025 A 
ENDBRANCH  14  17
ENDBRANCH   1  13
BRANCH   1  22
HETATM   22  C   UNL     1     -42.779  55.495 -55.645  1.00  0.00     0.259 C 
HETATM   23  N   UNL     1     -43.654  55.917 -56.638  1.00  0.00    -0.264 N 
HETATM   24  H   UNL     1     -44.238  56.731 -56.419  1.00  0.00     0.190 HD
HETATM   25  O   UNL     1     -41.734  54.902 -55.920  1.00  0.00    -0.269 OA
BRANCH  23  26
HETATM   26  N   UNL     1     -43.170  55.806 -57.953  1.00  0.00    -0.249 N 
HETATM   27  C   UNL     1     -43.923  56.027 -59.082  1.00  0.00     0.339 C 
HETATM   28  N   UNL     1     -45.121  56.657 -58.853  1.00  0.00    -0.308 N 
HETATM   29  O   UNL     1     -43.471  55.683 -60.169  1.00  0.00    -0.245 OA
HETATM   30  H   UNL     1     -45.359  56.767 -57.879  1.00  0.00     0.170 HD
HETATM   31  H   UNL     1     -42.357  55.203 -58.080  1.00  0.00     0.192 HD
BRANCH  28  32
HETATM   32  C   UNL     1     -46.047  57.116 -59.810  1.00  0.00     0.036 A 
HETATM   33  C   UNL     1     -46.232  58.466 -60.128  1.00  0.00     0.031 A 
HETATM   34  C   UNL     1     -47.189  58.855 -61.072  1.00  0.00     0.026 A 
HETATM   35  C   UNL     1     -47.969  57.892 -61.704  1.00  0.00     0.034 A 
HETATM   36 CL   UNL     1     -49.155  58.370 -62.855  1.00  0.00    -0.084 Cl
HETATM   37  C   UNL     1     -47.796  56.544 -61.403  1.00  0.00     0.026 A 
HETATM   38  C   UNL     1     -46.836  56.157 -60.459  1.00  0.00     0.031 A 
ENDBRANCH  28  32
ENDBRANCH  23  26
ENDBRANCH   1  22
TORSDOF 7
ENDMDL
MODEL 7
REMARK VINA RESULT:      -8.4      3.429      6.555
REMARK  7 active torsions:
REMARK  status: ('A' for Active; 'I' for Inactive)
REMARK    1  A    between atoms: C_8  and  C_9 
REMARK    2  A    between atoms: C_9  and  C_10 
REMARK    3  A    between atoms: C_10  and  N_11 
REMARK    4  A    between atoms: C_10  and  C_19 
REMARK       I    between atoms: N_11  and  C_12 
REMARK    5  A    between atoms: C_12  and  C_13 
REMARK       I    between atoms: C_19  and  N_20 
REMARK    6  A    between atoms: N_20  and  N_21 
REMARK       I    between atoms: N_21  and  C_22 
REMARK       I    between atoms: C_22  and  N_23 
REMARK    7  A    between atoms: N_23  and  C_24 
ROOT
HETATM    1  C   UNL     1     -43.501  56.727 -55.457  1.00  0.00     0.183 C 
ENDROOT
BRANCH   1   2
HETATM    2  C   UNL     1     -44.513  56.733 -54.295  1.00  0.00     0.076 C 
BRANCH   2   3
HETATM    3  C   UNL     1     -43.989  57.388 -53.051  1.00  0.00    -0.028 A 
HETATM    4  C   UNL     1     -42.671  57.916 -52.854  1.00  0.00    -0.002 A 
HETATM    5  C   UNL     1     -41.520  58.012 -53.662  1.00  0.00     0.014 A 
HETATM    6  C   UNL     1     -42.615  58.421 -51.554  1.00  0.00     0.042 A 
HETATM    7  C   UNL     1     -40.360  58.601 -53.144  1.00  0.00     0.001 A 
HETATM    8  C   UNL     1     -40.335  59.092 -51.841  1.00  0.00     0.002 A 
HETATM    9  C   UNL     1     -41.464  59.012 -51.020  1.00  0.00     0.030 A 
HETATM   10  N   UNL     1     -43.851  58.223 -50.988  1.00  0.00    -0.365 N 
HETATM   11  H   UNL     1     -44.103  58.504 -50.051  1.00  0.00     0.165 HD
HETATM   12  C   UNL     1     -44.687  57.603 -51.879  1.00  0.00     0.096 A 
ENDBRANCH   2   3
ENDBRANCH   1   2
BRANCH   1  13
HETATM   13  N   UNL     1     -44.113  57.160 -56.720  1.00  0.00    -0.343 N 
HETATM   14  C   UNL     1     -43.398  57.792 -57.712  1.00  0.00     0.259 C 
HETATM   15  O   UNL     1     -42.166  57.762 -57.709  1.00  0.00    -0.267 OA
HETATM   16  H   UNL     1     -45.113  57.337 -56.716  1.00  0.00     0.163 HD
BRANCH  14  17
HETATM   17  C   UNL     1     -44.177  58.463 -58.742  1.00  0.00     0.072 A 
HETATM   18  S   UNL     1     -43.457  59.112 -60.157  1.00  0.00    -0.097 SA
HETATM   19  C   UNL     1     -44.958  59.673 -60.751  1.00  0.00     0.050 A 
HETATM   20  C   UNL     1     -45.996  59.366 -59.901  1.00  0.00     0.009 A 
HETATM   21  C   UNL     1     -45.546  58.669 -58.743  1.00  0.00     0.025 A 
ENDBRANCH  14  17
ENDBRANCH   1  13
BRANCH   1  22
HETATM   22  C   UNL     1     -42.872  55.318 -55.559  1.00  0.00     0.259 C 
HETATM   23  N   UNL     1     -41.515  55.295 -55.856  1.00  0.00    -0.264 N 
HETATM   24  H   UNL     1     -40.991  56.158 -55.677  1.00  0.00     0.190 HD
HETATM   25  O   UNL     1     -43.480  54.288 -55.258  1.00  0.00    -0.269 OA
BRANCH  23  26
HETATM   26  N   UNL     1     -40.862  54.078 -55.591  1.00  0.00    -0.249 N 
HETATM   27  C   UNL     1     -40.423  53.684 -54.349  1.00  0.00     0.339 C 
HETATM   28  N   UNL     1     -40.922  54.425 -53.306  1.00  0.00    -0.308 N 
HETATM   29  O   UNL     1     -39.669  52.719 -54.268  1.00  0.00    -0.245 OA
HETATM   30  H   UNL     1     -41.446  55.242 -53.585  1.00  0.00     0.170 HD
HETATM   31  H   UNL     1     -40.382  53.647 -56.382  1.00  0.00     0.192 HD
BRANCH  28  32
HETATM   32  C   UNL     1     -40.750  54.194 -51.928  1.00  0.00     0.036 A 
HETATM   33  C   UNL     1     -40.466  52.940 -51.379  1.00  0.00     0.031 A 
HETATM   34  C   UNL     1     -40.333  52.777 -49.995  1.00  0.00     0.026 A 
HETATM   35  C   UNL     1     -40.486  53.872 -49.151  1.00  0.00     0.034 A 
HETATM   36 CL   UNL     1     -40.336  53.670 -47.449  1.00  0.00    -0.084 Cl
HETATM   37  C   UNL     1     -40.766  55.129 -49.681  1.00  0.00     0.026 A 
HETATM   38  C   UNL     1     -40.896  55.289 -51.066  1.00  0.00     0.031 A 
ENDBRANCH  28  32
ENDBRANCH  23  26
ENDBRANCH   1  22
TORSDOF 7
ENDMDL
MODEL 8
REMARK VINA RESULT:      -8.4      2.985      3.574
REMARK  7 active torsions:
REMARK  status: ('A' for Active; 'I' for Inactive)
REMARK    1  A    between atoms: C_8  and  C_9 
REMARK    2  A    between atoms: C_9  and  C_10 
REMARK    3  A    between atoms: C_10  and  N_11 
REMARK    4  A    between atoms: C_10  and  C_19 
REMARK       I    between atoms: N_11  and  C_12 
REMARK    5  A    between atoms: C_12  and  C_13 
REMARK       I    between atoms: C_19  and  N_20 
REMARK    6  A    between atoms: N_20  and  N_21 
REMARK       I    between atoms: N_21  and  C_22 
REMARK       I    between atoms: C_22  and  N_23 
REMARK    7  A    between atoms: N_23  and  C_24 
ROOT
HETATM    1  C   UNL     1     -41.714  54.944 -54.828  1.00  0.00     0.183 C 
ENDROOT
BRANCH   1   2
HETATM    2  C   UNL     1     -40.342  54.264 -54.660  1.00  0.00     0.076 C 
BRANCH   2   3
HETATM    3  C   UNL     1     -40.237  53.432 -53.415  1.00  0.00    -0.028 A 
HETATM    4  C   UNL     1     -39.995  52.022 -53.348  1.00  0.00    -0.002 A 
HETATM    5  C   UNL     1     -39.782  51.014 -54.312  1.00  0.00     0.014 A 
HETATM    6  C   UNL     1     -39.984  51.664 -51.999  1.00  0.00     0.042 A 
HETATM    7  C   UNL     1     -39.573  49.694 -53.895  1.00  0.00     0.001 A 
HETATM    8  C   UNL     1     -39.572  49.369 -52.541  1.00  0.00     0.002 A 
HETATM    9  C   UNL     1     -39.778  50.349 -51.566  1.00  0.00     0.030 A 
HETATM   10  N   UNL     1     -40.196  52.812 -51.274  1.00  0.00    -0.365 N 
HETATM   11  H   UNL     1     -40.225  52.853 -50.265  1.00  0.00     0.165 HD
HETATM   12  C   UNL     1     -40.349  53.883 -52.114  1.00  0.00     0.096 A 
ENDBRANCH   2   3
ENDBRANCH   1   2
BRANCH   1  13
HETATM   13  N   UNL     1     -41.943  55.383 -56.210  1.00  0.00    -0.343 N 
HETATM   14  C   UNL     1     -43.045  56.122 -56.580  1.00  0.00     0.259 C 
HETATM   15  O   UNL     1     -43.729  56.690 -55.728  1.00  0.00    -0.267 OA
HETATM   16  H   UNL     1     -41.509  54.839 -56.950  1.00  0.00     0.163 HD
BRANCH  14  17
HETATM   17  C   UNL     1     -43.324  56.194 -58.007  1.00  0.00     0.072 A 
HETATM   18  S   UNL     1     -43.087  57.630 -58.914  1.00  0.00    -0.097 SA
HETATM   19  C   UNL     1     -43.623  56.893 -60.359  1.00  0.00     0.050 A 
HETATM   20  C   UNL     1     -43.968  55.574 -60.168  1.00  0.00     0.009 A 
HETATM   21  C   UNL     1     -43.795  55.171 -58.812  1.00  0.00     0.025 A 
ENDBRANCH  14  17
ENDBRANCH   1  13
BRANCH   1  22
HETATM   22  C   UNL     1     -41.817  56.107 -53.815  1.00  0.00     0.259 C 
HETATM   23  N   UNL     1     -40.951  57.170 -54.042  1.00  0.00    -0.264 N 
HETATM   24  H   UNL     1     -40.560  57.249 -54.986  1.00  0.00     0.190 HD
HETATM   25  O   UNL     1     -42.695  56.170 -52.951  1.00  0.00    -0.269 OA
BRANCH  23  26
HETATM   26  N   UNL     1     -41.277  58.365 -53.377  1.00  0.00    -0.249 N 
HETATM   27  C   UNL     1     -41.742  59.500 -53.998  1.00  0.00     0.339 C 
HETATM   28  N   UNL     1     -42.157  59.312 -55.293  1.00  0.00    -0.308 N 
HETATM   29  O   UNL     1     -41.777  60.548 -53.361  1.00  0.00    -0.245 OA
HETATM   30  H   UNL     1     -41.954  58.398 -55.670  1.00  0.00     0.170 HD
HETATM   31  H   UNL     1     -40.820  58.514 -52.477  1.00  0.00     0.192 HD
BRANCH  28  32
HETATM   32  C   UNL     1     -42.783  60.247 -56.139  1.00  0.00     0.036 A 
HETATM   33  C   UNL     1     -44.156  60.514 -56.123  1.00  0.00     0.031 A 
HETATM   34  C   UNL     1     -44.716  61.439 -57.011  1.00  0.00     0.026 A 
HETATM   35  C   UNL     1     -43.903  62.102 -57.924  1.00  0.00     0.034 A 
HETATM   36 CL   UNL     1     -44.592  63.230 -59.025  1.00  0.00    -0.084 Cl
HETATM   37  C   UNL     1     -42.533  61.851 -57.952  1.00  0.00     0.026 A 
HETATM   38  C   UNL     1     -41.975  60.927 -57.060  1.00  0.00     0.031 A 
ENDBRANCH  28  32
ENDBRANCH  23  26
ENDBRANCH   1  22
TORSDOF 7
ENDMDL
MODEL 9
REMARK VINA RESULT:      -8.3      3.892      8.573
REMARK  7 active torsions:
REMARK  status: ('A' for Active; 'I' for Inactive)
REMARK    1  A    between atoms: C_8  and  C_9 
REMARK    2  A    between atoms: C_9  and  C_10 
REMARK    3  A    between atoms: C_10  and  N_11 
REMARK    4  A    between atoms: C_10  and  C_19 
REMARK       I    between atoms: N_11  and  C_12 
REMARK    5  A    between atoms: C_12  and  C_13 
REMARK       I    between atoms: C_19  and  N_20 
REMARK    6  A    between atoms: N_20  and  N_21 
REMARK       I    between atoms: N_21  and  C_22 
REMARK       I    between atoms: C_22  and  N_23 
REMARK    7  A    between atoms: N_23  and  C_24 
ROOT
HETATM    1  C   UNL     1     -43.431  59.368 -52.858  1.00  0.00     0.183 C 
ENDROOT
BRANCH   1   2
HETATM    2  C   UNL     1     -42.097  59.445 -53.625  1.00  0.00     0.076 C 
BRANCH   2   3
HETATM    3  C   UNL     1     -42.237  59.176 -55.094  1.00  0.00    -0.028 A 
HETATM    4  C   UNL     1     -42.476  57.905 -55.711  1.00  0.00    -0.002 A 
HETATM    5  C   UNL     1     -42.656  56.594 -55.223  1.00  0.00     0.014 A 
HETATM    6  C   UNL     1     -42.526  58.113 -57.089  1.00  0.00     0.042 A 
HETATM    7  C   UNL     1     -42.873  55.545 -56.124  1.00  0.00     0.001 A 
HETATM    8  C   UNL     1     -42.913  55.786 -57.495  1.00  0.00     0.002 A 
HETATM    9  C   UNL     1     -42.741  57.076 -58.005  1.00  0.00     0.030 A 
HETATM   10  N   UNL     1     -42.340  59.458 -57.304  1.00  0.00    -0.365 N 
HETATM   11  H   UNL     1     -42.341  59.898 -58.213  1.00  0.00     0.165 HD
HETATM   12  C   UNL     1     -42.166  60.108 -56.111  1.00  0.00     0.096 A 
ENDBRANCH   2   3
ENDBRANCH   1   2
BRANCH   1  13
HETATM   13  N   UNL     1     -43.665  60.567 -52.042  1.00  0.00    -0.343 N 
HETATM   14  C   UNL     1     -42.922  60.856 -50.920  1.00  0.00     0.259 C 
HETATM   15  O   UNL     1     -41.850  60.284 -50.717  1.00  0.00    -0.267 OA
HETATM   16  H   UNL     1     -44.593  60.978 -52.075  1.00  0.00     0.163 HD
BRANCH  14  17
HETATM   17  C   UNL     1     -43.469  61.867 -50.027  1.00  0.00     0.072 A 
HETATM   18  S   UNL     1     -43.080  63.531 -50.180  1.00  0.00    -0.097 SA
HETATM   19  C   UNL     1     -44.057  63.957 -48.845  1.00  0.00     0.050 A 
HETATM   20  C   UNL     1     -44.682  62.862 -48.293  1.00  0.00     0.009 A 
HETATM   21  C   UNL     1     -44.343  61.657 -48.974  1.00  0.00     0.025 A 
ENDBRANCH  14  17
ENDBRANCH   1  13
BRANCH   1  22
HETATM   22  C   UNL     1     -43.444  58.070 -52.017  1.00  0.00     0.259 C 
HETATM   23  N   UNL     1     -42.193  57.547 -51.715  1.00  0.00    -0.264 N 
HETATM   24  H   UNL     1     -41.397  58.189 -51.788  1.00  0.00     0.190 HD
HETATM   25  O   UNL     1     -44.471  57.603 -51.519  1.00  0.00    -0.269 OA
BRANCH  23  26
HETATM   26  N   UNL     1     -42.170  56.608 -50.669  1.00  0.00    -0.249 N 
HETATM   27  C   UNL     1     -41.882  55.273 -50.826  1.00  0.00     0.339 C 
HETATM   28  N   UNL     1     -41.323  54.949 -52.037  1.00  0.00    -0.308 N 
HETATM   29  O   UNL     1     -42.112  54.506 -49.896  1.00  0.00    -0.245 OA
HETATM   30  H   UNL     1     -41.307  55.704 -52.708  1.00  0.00     0.170 HD
HETATM   31  H   UNL     1     -42.727  56.842 -49.847  1.00  0.00     0.192 HD
BRANCH  28  32
HETATM   32  C   UNL     1     -40.818  53.699 -52.445  1.00  0.00     0.036 A 
HETATM   33  C   UNL     1     -39.983  52.903 -51.656  1.00  0.00     0.031 A 
HETATM   34  C   UNL     1     -39.497  51.681 -52.134  1.00  0.00     0.026 A 
HETATM   35  C   UNL     1     -39.845  51.249 -53.410  1.00  0.00     0.034 A 
HETATM   36 CL   UNL     1     -39.237  49.753 -54.004  1.00  0.00    -0.084 Cl
HETATM   37  C   UNL     1     -40.679  52.027 -54.208  1.00  0.00     0.026 A 
HETATM   38  C   UNL     1     -41.165  53.249 -53.726  1.00  0.00     0.031 A 
ENDBRANCH  28  32
ENDBRANCH  23  26
ENDBRANCH   1  22
TORSDOF 7
ENDMDL
MODEL 10
REMARK VINA RESULT:      -8.3      3.804      7.246
REMARK  7 active torsions:
REMARK  status: ('A' for Active; 'I' for Inactive)
REMARK    1  A    between atoms: C_8  and  C_9 
REMARK    2  A    between atoms: C_9  and  C_10 
REMARK    3  A    between atoms: C_10  and  N_11 
REMARK    4  A    between atoms: C_10  and  C_19 
REMARK       I    between atoms: N_11  and  C_12 
REMARK    5  A    between atoms: C_12  and  C_13 
REMARK       I    between atoms: C_19  and  N_20 
REMARK    6  A    between atoms: N_20  and  N_21 
REMARK       I    between atoms: N_21  and  C_22 
REMARK       I    between atoms: C_22  and  N_23 
REMARK    7  A    between atoms: N_23  and  C_24 
ROOT
HETATM    1  C   UNL     1     -42.479  56.154 -54.571  1.00  0.00     0.183 C 
ENDROOT
BRANCH   1   2
HETATM    2  C   UNL     1     -42.992  54.917 -53.810  1.00  0.00     0.076 C 
BRANCH   2   3
HETATM    3  C   UNL     1     -41.916  54.189 -53.059  1.00  0.00    -0.028 A 
HETATM    4  C   UNL     1     -41.505  54.429 -51.708  1.00  0.00    -0.002 A 
HETATM    5  C   UNL     1     -41.917  55.325 -50.700  1.00  0.00     0.014 A 
HETATM    6  C   UNL     1     -40.473  53.535 -51.421  1.00  0.00     0.042 A 
HETATM    7  C   UNL     1     -41.284  55.298 -49.452  1.00  0.00     0.001 A 
HETATM    8  C   UNL     1     -40.254  54.396 -49.198  1.00  0.00     0.002 A 
HETATM    9  C   UNL     1     -39.828  53.495 -50.179  1.00  0.00     0.030 A 
HETATM   10  N   UNL     1     -40.273  52.771 -52.546  1.00  0.00    -0.365 N 
HETATM   11  H   UNL     1     -39.591  52.030 -52.620  1.00  0.00     0.165 HD
HETATM   12  C   UNL     1     -41.135  53.155 -53.539  1.00  0.00     0.096 A 
ENDBRANCH   2   3
ENDBRANCH   1   2
BRANCH   1  13
HETATM   13  N   UNL     1     -43.186  57.377 -54.171  1.00  0.00    -0.343 N 
HETATM   14  C   UNL     1     -42.725  58.209 -53.175  1.00  0.00     0.259 C 
HETATM   15  O   UNL     1     -41.560  58.123 -52.781  1.00  0.00    -0.267 OA
HETATM   16  H   UNL     1     -44.185  57.417 -54.351  1.00  0.00     0.163 HD
BRANCH  14  17
HETATM   17  C   UNL     1     -43.676  59.178 -52.652  1.00  0.00     0.072 A 
HETATM   18  S   UNL     1     -43.303  60.847 -52.521  1.00  0.00    -0.097 SA
HETATM   19  C   UNL     1     -44.836  61.212 -51.860  1.00  0.00     0.050 A 
HETATM   20  C   UNL     1     -45.629  60.092 -51.747  1.00  0.00     0.009 A 
HETATM   21  C   UNL     1     -44.960  58.920 -52.204  1.00  0.00     0.025 A 
ENDBRANCH  14  17
ENDBRANCH   1  13
BRANCH   1  22
HETATM   22  C   UNL     1     -42.585  55.880 -56.089  1.00  0.00     0.259 C 
HETATM   23  N   UNL     1     -42.418  56.993 -56.905  1.00  0.00    -0.264 N 
HETATM   24  H   UNL     1     -41.944  57.801 -56.488  1.00  0.00     0.190 HD
HETATM   25  O   UNL     1     -42.666  54.745 -56.562  1.00  0.00    -0.269 OA
BRANCH  23  26
HETATM   26  N   UNL     1     -42.145  56.713 -58.255  1.00  0.00    -0.249 N 
HETATM   27  C   UNL     1     -43.095  56.660 -59.248  1.00  0.00     0.339 C 
HETATM   28  N   UNL     1     -44.312  57.192 -58.900  1.00  0.00    -0.308 N 
HETATM   29  O   UNL     1     -42.785  56.187 -60.336  1.00  0.00    -0.245 OA
HETATM   30  H   UNL     1     -44.399  57.440 -57.925  1.00  0.00     0.170 HD
HETATM   31  H   UNL     1     -41.291  56.184 -58.438  1.00  0.00     0.192 HD
BRANCH  28  32
HETATM   32  C   UNL     1     -45.434  57.386 -59.729  1.00  0.00     0.036 A 
HETATM   33  C   UNL     1     -45.859  58.639 -60.182  1.00  0.00     0.031 A 
HETATM   34  C   UNL     1     -47.000  58.761 -60.984  1.00  0.00     0.026 A 
HETATM   35  C   UNL     1     -47.723  57.627 -61.336  1.00  0.00     0.034 A 
HETATM   36 CL   UNL     1     -49.132  57.777 -62.311  1.00  0.00    -0.084 Cl
HETATM   37  C   UNL     1     -47.312  56.371 -60.898  1.00  0.00     0.026 A 
HETATM   38  C   UNL     1     -46.169  56.251 -60.097  1.00  0.00     0.031 A 
ENDBRANCH  28  32
ENDBRANCH  23  26
ENDBRANCH   1  22
TORSDOF 7
ENDMDL
