MODEL 1
REMARK VINA RESULT:      -8.6      0.000      0.000
REMARK  3 active torsions:
REMARK  status: ('A' for Active; 'I' for Inactive)
REMARK    1  A    between atoms: C_5  and  C_6 
REMARK    2  A    between atoms: C_11  and  C_12 
REMARK    3  A    between atoms: C_23  and  O_24 
ROOT
HETATM    1  C   UNL     1     -42.499  57.769 -56.674  1.00  0.00     0.031 C 
HETATM    2  C   UNL     1     -43.692  57.547 -56.102  1.00  0.00     0.066 A 
HETATM    3  C   UNL     1     -45.013  58.097 -56.496  1.00  0.00     0.274 A 
HETATM    4  O   UNL     1     -45.322  58.773 -57.456  1.00  0.00    -0.266 OA
HETATM    5  N   UNL     1     -45.843  57.678 -55.468  1.00  0.00    -0.242 N 
HETATM    6  C   UNL     1     -43.986  56.784 -54.859  1.00  0.00     0.111 A 
HETATM    7  N   UNL     1     -45.244  56.910 -54.499  1.00  0.00    -0.170 NA
HETATM    8  H   UNL     1     -46.835  57.889 -55.436  1.00  0.00     0.192 HD
ENDROOT
BRANCH   6   9
HETATM    9  C   UNL     1     -42.989  56.010 -54.089  1.00  0.00     0.098 C 
HETATM   10  C   UNL     1     -42.383  56.528 -52.833  1.00  0.00     0.263 C 
HETATM   11  O   UNL     1     -42.614  57.687 -52.488  1.00  0.00    -0.267 OA
HETATM   12  N   UNL     1     -41.574  55.670 -52.096  1.00  0.00    -0.317 N 
HETATM   13  C   UNL     1     -41.055  56.140 -50.820  1.00  0.00     0.159 C 
HETATM   14  C   UNL     1     -41.174  54.396 -52.599  1.00  0.00     0.050 A 
HETATM   15  C   UNL     1     -41.657  53.971 -53.849  1.00  0.00     0.025 A 
HETATM   16  C   UNL     1     -40.290  53.565 -51.891  1.00  0.00     0.031 A 
HETATM   17  C   UNL     1     -41.239  52.733 -54.365  1.00  0.00     0.016 A 
HETATM   18  C   UNL     1     -42.600  54.823 -54.589  1.00  0.00     0.096 C 
HETATM   19  C   UNL     1     -40.357  51.919 -53.654  1.00  0.00     0.001 A 
HETATM   20  C   UNL     1     -39.885  52.336 -52.416  1.00  0.00     0.002 A 
BRANCH  18  21
HETATM   21  O   UNL     1     -43.043  54.301 -55.795  1.00  0.00    -0.359 OA
HETATM   22  H   UNL     1     -42.289  54.269 -56.422  1.00  0.00     0.218 HD
ENDBRANCH  18  21
ENDBRANCH   6   9
BRANCH   1  23
HETATM   23  C   UNL     1     -42.235  58.509 -57.913  1.00  0.00    -0.035 A 
HETATM   24  C   UNL     1     -42.322  57.846 -59.141  1.00  0.00     0.012 A 
HETATM   25  C   UNL     1     -42.155  58.546 -60.341  1.00  0.00     0.007 A 
HETATM   26  C   UNL     1     -41.898  59.921 -60.328  1.00  0.00    -0.062 A 
HETATM   27  C   UNL     1     -41.753  60.690 -61.608  1.00  0.00     0.048 C 
HETATM   28  C   UNL     1     -41.831  60.587 -59.100  1.00  0.00     0.007 A 
HETATM   29  C   UNL     1     -42.002  59.888 -57.903  1.00  0.00     0.012 A 
ENDBRANCH   1  23
TORSDOF 3
ENDMDL
MODEL 2
REMARK VINA RESULT:      -8.3      2.537      7.387
REMARK  3 active torsions:
REMARK  status: ('A' for Active; 'I' for Inactive)
REMARK    1  A    between atoms: C_5  and  C_6 
REMARK    2  A    between atoms: C_11  and  C_12 
REMARK    3  A    between atoms: C_23  and  O_24 
ROOT
HETATM    1  C   UNL     1     -42.738  55.795 -54.481  1.00  0.00     0.031 C 
HETATM    2  C   UNL     1     -42.343  57.055 -54.717  1.00  0.00     0.066 A 
HETATM    3  C   UNL     1     -41.372  57.870 -53.945  1.00  0.00     0.274 A 
HETATM    4  O   UNL     1     -40.660  57.560 -53.013  1.00  0.00    -0.266 OA
HETATM    5  N   UNL     1     -41.485  59.123 -54.529  1.00  0.00    -0.242 N 
HETATM    6  C   UNL     1     -42.858  58.000 -55.744  1.00  0.00     0.111 A 
HETATM    7  N   UNL     1     -42.361  59.207 -55.584  1.00  0.00    -0.170 NA
HETATM    8  H   UNL     1     -40.940  59.924 -54.230  1.00  0.00     0.192 HD
ENDROOT
BRANCH   6   9
HETATM    9  C   UNL     1     -43.839  57.653 -56.794  1.00  0.00     0.098 C 
HETATM   10  C   UNL     1     -45.236  58.163 -56.773  1.00  0.00     0.263 C 
HETATM   11  O   UNL     1     -45.633  58.785 -55.788  1.00  0.00    -0.267 OA
HETATM   12  N   UNL     1     -46.040  57.910 -57.879  1.00  0.00    -0.317 N 
HETATM   13  C   UNL     1     -47.376  58.487 -57.904  1.00  0.00     0.159 C 
HETATM   14  C   UNL     1     -45.623  57.038 -58.929  1.00  0.00     0.050 A 
HETATM   15  C   UNL     1     -44.342  56.462 -58.873  1.00  0.00     0.025 A 
HETATM   16  C   UNL     1     -46.468  56.719 -60.005  1.00  0.00     0.031 A 
HETATM   17  C   UNL     1     -43.940  55.575 -59.885  1.00  0.00     0.016 A 
HETATM   18  C   UNL     1     -43.441  56.807 -57.763  1.00  0.00     0.096 C 
HETATM   19  C   UNL     1     -44.791  55.263 -60.946  1.00  0.00     0.001 A 
HETATM   20  C   UNL     1     -46.054  55.837 -61.005  1.00  0.00     0.002 A 
BRANCH  18  21
HETATM   21  O   UNL     1     -42.189  56.213 -57.815  1.00  0.00    -0.359 OA
HETATM   22  H   UNL     1     -41.532  56.886 -58.096  1.00  0.00     0.218 HD
ENDBRANCH  18  21
ENDBRANCH   6   9
BRANCH   1  23
HETATM   23  C   UNL     1     -42.202  54.873 -53.473  1.00  0.00    -0.035 A 
HETATM   24  C   UNL     1     -41.052  54.131 -53.764  1.00  0.00     0.012 A 
HETATM   25  C   UNL     1     -40.474  53.306 -52.793  1.00  0.00     0.007 A 
HETATM   26  C   UNL     1     -41.038  53.212 -51.516  1.00  0.00    -0.062 A 
HETATM   27  C   UNL     1     -40.405  52.360 -50.456  1.00  0.00     0.048 C 
HETATM   28  C   UNL     1     -42.176  53.970 -51.220  1.00  0.00     0.007 A 
HETATM   29  C   UNL     1     -42.750  54.796 -52.189  1.00  0.00     0.012 A 
ENDBRANCH   1  23
TORSDOF 3
ENDMDL
MODEL 3
REMARK VINA RESULT:      -8.1      1.636      7.671
REMARK  3 active torsions:
REMARK  status: ('A' for Active; 'I' for Inactive)
REMARK    1  A    between atoms: C_5  and  C_6 
REMARK    2  A    between atoms: C_11  and  C_12 
REMARK    3  A    between atoms: C_23  and  O_24 
ROOT
HETATM    1  C   UNL     1     -41.595  54.492 -54.455  1.00  0.00     0.031 C 
HETATM    2  C   UNL     1     -42.562  55.274 -53.951  1.00  0.00     0.066 A 
HETATM    3  C   UNL     1     -43.241  55.158 -52.637  1.00  0.00     0.274 A 
HETATM    4  O   UNL     1     -43.014  54.414 -51.705  1.00  0.00    -0.266 OA
HETATM    5  N   UNL     1     -44.251  56.104 -52.725  1.00  0.00    -0.242 N 
HETATM    6  C   UNL     1     -43.284  56.388 -54.623  1.00  0.00     0.111 A 
HETATM    7  N   UNL     1     -44.285  56.827 -53.892  1.00  0.00    -0.170 NA
HETATM    8  H   UNL     1     -44.908  56.283 -51.973  1.00  0.00     0.192 HD
ENDROOT
BRANCH   6   9
HETATM    9  C   UNL     1     -42.955  56.920 -55.963  1.00  0.00     0.098 C 
HETATM   10  C   UNL     1     -43.016  56.076 -57.186  1.00  0.00     0.263 C 
HETATM   11  O   UNL     1     -43.218  54.867 -57.073  1.00  0.00    -0.267 OA
HETATM   12  N   UNL     1     -42.841  56.698 -58.417  1.00  0.00    -0.317 N 
HETATM   13  C   UNL     1     -42.993  55.895 -59.622  1.00  0.00     0.159 C 
HETATM   14  C   UNL     1     -42.432  58.061 -58.520  1.00  0.00     0.050 A 
HETATM   15  C   UNL     1     -42.257  58.814 -57.346  1.00  0.00     0.025 A 
HETATM   16  C   UNL     1     -42.176  58.665 -59.763  1.00  0.00     0.031 A 
HETATM   17  C   UNL     1     -41.821  60.146 -57.440  1.00  0.00     0.016 A 
HETATM   18  C   UNL     1     -42.544  58.199 -56.042  1.00  0.00     0.096 C 
HETATM   19  C   UNL     1     -41.564  60.732 -58.679  1.00  0.00     0.001 A 
HETATM   20  C   UNL     1     -41.744  59.991 -59.840  1.00  0.00     0.002 A 
BRANCH  18  21
HETATM   21  O   UNL     1     -42.372  59.032 -54.947  1.00  0.00    -0.359 OA
HETATM   22  H   UNL     1     -42.973  59.803 -55.039  1.00  0.00     0.218 HD
ENDBRANCH  18  21
ENDBRANCH   6   9
BRANCH   1  23
HETATM   23  C   UNL     1     -40.883  53.409 -53.767  1.00  0.00    -0.035 A 
HETATM   24  C   UNL     1     -40.378  53.629 -52.481  1.00  0.00     0.012 A 
HETATM   25  C   UNL     1     -39.768  52.589 -51.771  1.00  0.00     0.007 A 
HETATM   26  C   UNL     1     -39.653  51.315 -52.338  1.00  0.00    -0.062 A 
HETATM   27  C   UNL     1     -39.033  50.184 -51.572  1.00  0.00     0.048 C 
HETATM   28  C   UNL     1     -40.176  51.092 -53.616  1.00  0.00     0.007 A 
HETATM   29  C   UNL     1     -40.789  52.130 -54.323  1.00  0.00     0.012 A 
ENDBRANCH   1  23
TORSDOF 3
ENDMDL
MODEL 4
REMARK VINA RESULT:      -8.1      0.801      2.358
REMARK  3 active torsions:
REMARK  status: ('A' for Active; 'I' for Inactive)
REMARK    1  A    between atoms: C_5  and  C_6 
REMARK    2  A    between atoms: C_11  and  C_12 
REMARK    3  A    between atoms: C_23  and  O_24 
ROOT
HETATM    1  C   UNL     1     -42.530  57.549 -56.462  1.00  0.00     0.031 C 
HETATM    2  C   UNL     1     -43.672  57.560 -55.759  1.00  0.00     0.066 A 
HETATM    3  C   UNL     1     -44.900  58.353 -56.019  1.00  0.00     0.274 A 
HETATM    4  O   UNL     1     -45.180  59.073 -56.955  1.00  0.00    -0.266 OA
HETATM    5  N   UNL     1     -45.675  58.101 -54.897  1.00  0.00    -0.242 N 
HETATM    6  C   UNL     1     -43.965  56.870 -54.474  1.00  0.00     0.111 A 
HETATM    7  N   UNL     1     -45.128  57.234 -53.982  1.00  0.00    -0.170 NA
HETATM    8  H   UNL     1     -46.598  58.498 -54.763  1.00  0.00     0.192 HD
ENDROOT
BRANCH   6   9
HETATM    9  C   UNL     1     -43.053  55.921 -53.800  1.00  0.00     0.098 C 
HETATM   10  C   UNL     1     -42.698  54.605 -54.396  1.00  0.00     0.263 C 
HETATM   11  O   UNL     1     -43.277  54.232 -55.416  1.00  0.00    -0.267 OA
HETATM   12  N   UNL     1     -41.717  53.847 -53.766  1.00  0.00    -0.317 N 
HETATM   13  C   UNL     1     -41.299  52.604 -54.396  1.00  0.00     0.159 C 
HETATM   14  C   UNL     1     -41.187  54.211 -52.492  1.00  0.00     0.050 A 
HETATM   15  C   UNL     1     -41.627  55.398 -51.881  1.00  0.00     0.025 A 
HETATM   16  C   UNL     1     -40.257  53.402 -51.819  1.00  0.00     0.031 A 
HETATM   17  C   UNL     1     -41.135  55.743 -50.611  1.00  0.00     0.016 A 
HETATM   18  C   UNL     1     -42.584  56.264 -52.586  1.00  0.00     0.096 C 
HETATM   19  C   UNL     1     -40.215  54.928 -49.952  1.00  0.00     0.001 A 
HETATM   20  C   UNL     1     -39.775  53.758 -50.558  1.00  0.00     0.002 A 
BRANCH  18  21
HETATM   21  O   UNL     1     -42.930  57.427 -51.916  1.00  0.00    -0.359 OA
HETATM   22  H   UNL     1     -43.493  57.975 -52.503  1.00  0.00     0.218 HD
ENDBRANCH  18  21
ENDBRANCH   6   9
BRANCH   1  23
HETATM   23  C   UNL     1     -42.270  58.224 -57.739  1.00  0.00    -0.035 A 
HETATM   24  C   UNL     1     -42.462  57.525 -58.936  1.00  0.00     0.012 A 
HETATM   25  C   UNL     1     -42.300  58.169 -60.168  1.00  0.00     0.007 A 
HETATM   26  C   UNL     1     -41.942  59.520 -60.220  1.00  0.00    -0.062 A 
HETATM   27  C   UNL     1     -41.801  60.230 -61.534  1.00  0.00     0.048 C 
HETATM   28  C   UNL     1     -41.770  60.222 -59.023  1.00  0.00     0.007 A 
HETATM   29  C   UNL     1     -41.936  59.580 -57.793  1.00  0.00     0.012 A 
ENDBRANCH   1  23
TORSDOF 3
ENDMDL
MODEL 5
REMARK VINA RESULT:      -8.1      1.823      7.278
REMARK  3 active torsions:
REMARK  status: ('A' for Active; 'I' for Inactive)
REMARK    1  A    between atoms: C_5  and  C_6 
REMARK    2  A    between atoms: C_11  and  C_12 
REMARK    3  A    between atoms: C_23  and  O_24 
ROOT
HETATM    1  C   UNL     1     -41.612  54.247 -54.216  1.00  0.00     0.031 C 
HETATM    2  C   UNL     1     -42.514  54.998 -53.566  1.00  0.00     0.066 A 
HETATM    3  C   UNL     1     -43.117  54.753 -52.232  1.00  0.00     0.274 A 
HETATM    4  O   UNL     1     -42.865  53.900 -51.407  1.00  0.00    -0.266 OA
HETATM    5  N   UNL     1     -44.090  55.737 -52.146  1.00  0.00    -0.242 N 
HETATM    6  C   UNL     1     -43.228  56.206 -54.059  1.00  0.00     0.111 A 
HETATM    7  N   UNL     1     -44.164  56.592 -53.220  1.00  0.00    -0.170 NA
HETATM    8  H   UNL     1     -44.692  55.851 -51.339  1.00  0.00     0.192 HD
ENDROOT
BRANCH   6   9
HETATM    9  C   UNL     1     -42.959  56.878 -55.348  1.00  0.00     0.098 C 
HETATM   10  C   UNL     1     -42.581  58.315 -55.428  1.00  0.00     0.263 C 
HETATM   11  O   UNL     1     -42.618  59.003 -54.408  1.00  0.00    -0.267 OA
HETATM   12  N   UNL     1     -42.197  58.820 -56.665  1.00  0.00    -0.317 N 
HETATM   13  C   UNL     1     -41.736  60.199 -56.731  1.00  0.00     0.159 C 
HETATM   14  C   UNL     1     -42.331  58.059 -57.864  1.00  0.00     0.050 A 
HETATM   15  C   UNL     1     -42.810  56.739 -57.787  1.00  0.00     0.025 A 
HETATM   16  C   UNL     1     -42.021  58.599 -59.123  1.00  0.00     0.031 A 
HETATM   17  C   UNL     1     -42.977  55.996 -58.967  1.00  0.00     0.016 A 
HETATM   18  C   UNL     1     -43.117  56.155 -56.472  1.00  0.00     0.096 C 
HETATM   19  C   UNL     1     -42.671  56.547 -60.212  1.00  0.00     0.001 A 
HETATM   20  C   UNL     1     -42.191  57.848 -60.288  1.00  0.00     0.002 A 
BRANCH  18  21
HETATM   21  O   UNL     1     -43.551  54.839 -56.499  1.00  0.00    -0.359 OA
HETATM   22  H   UNL     1     -42.851  54.284 -56.903  1.00  0.00     0.218 HD
ENDBRANCH  18  21
ENDBRANCH   6   9
BRANCH   1  23
HETATM   23  C   UNL     1     -40.906  53.068 -53.703  1.00  0.00    -0.035 A 
HETATM   24  C   UNL     1     -40.256  53.142 -52.466  1.00  0.00     0.012 A 
HETATM   25  C   UNL     1     -39.645  52.010 -51.916  1.00  0.00     0.007 A 
HETATM   26  C   UNL     1     -39.674  50.788 -52.597  1.00  0.00    -0.062 A 
HETATM   27  C   UNL     1     -39.054  49.559 -52.000  1.00  0.00     0.048 C 
HETATM   28  C   UNL     1     -40.340  50.711 -53.824  1.00  0.00     0.007 A 
HETATM   29  C   UNL     1     -40.954  51.841 -54.371  1.00  0.00     0.012 A 
ENDBRANCH   1  23
TORSDOF 3
ENDMDL
MODEL 6
REMARK VINA RESULT:      -8.1      1.924      7.594
REMARK  3 active torsions:
REMARK  status: ('A' for Active; 'I' for Inactive)
REMARK    1  A    between atoms: C_5  and  C_6 
REMARK    2  A    between atoms: C_11  and  C_12 
REMARK    3  A    between atoms: C_23  and  O_24 
ROOT
HETATM    1  C   UNL     1     -42.142  56.144 -55.666  1.00  0.00     0.031 C 
HETATM    2  C   UNL     1     -42.875  57.059 -55.016  1.00  0.00     0.066 A 
HETATM    3  C   UNL     1     -43.437  56.977 -53.645  1.00  0.00     0.274 A 
HETATM    4  O   UNL     1     -43.282  56.132 -52.787  1.00  0.00    -0.266 OA
HETATM    5  N   UNL     1     -44.235  58.109 -53.568  1.00  0.00    -0.242 N 
HETATM    6  C   UNL     1     -43.412  58.344 -55.540  1.00  0.00     0.111 A 
HETATM    7  N   UNL     1     -44.229  58.914 -54.681  1.00  0.00    -0.170 NA
HETATM    8  H   UNL     1     -44.767  58.356 -52.741  1.00  0.00     0.192 HD
ENDROOT
BRANCH   6   9
HETATM    9  C   UNL     1     -43.108  58.904 -56.874  1.00  0.00     0.098 C 
HETATM   10  C   UNL     1     -43.722  58.365 -58.117  1.00  0.00     0.263 C 
HETATM   11  O   UNL     1     -44.402  57.340 -58.056  1.00  0.00    -0.267 OA
HETATM   12  N   UNL     1     -43.499  59.051 -59.306  1.00  0.00    -0.317 N 
HETATM   13  C   UNL     1     -44.172  58.583 -60.508  1.00  0.00     0.159 C 
HETATM   14  C   UNL     1     -42.567  60.129 -59.389  1.00  0.00     0.050 A 
HETATM   15  C   UNL     1     -41.898  60.547 -58.225  1.00  0.00     0.025 A 
HETATM   16  C   UNL     1     -42.280  60.768 -60.607  1.00  0.00     0.031 A 
HETATM   17  C   UNL     1     -40.954  61.585 -58.307  1.00  0.00     0.016 A 
HETATM   18  C   UNL     1     -42.207  59.901 -56.940  1.00  0.00     0.096 C 
HETATM   19  C   UNL     1     -40.675  62.207 -59.524  1.00  0.00     0.001 A 
HETATM   20  C   UNL     1     -41.340  61.798 -60.673  1.00  0.00     0.002 A 
BRANCH  18  21
HETATM   21  O   UNL     1     -41.520  60.406 -55.848  1.00  0.00    -0.359 OA
HETATM   22  H   UNL     1     -40.814  61.008 -56.168  1.00  0.00     0.218 HD
ENDBRANCH  18  21
ENDBRANCH   6   9
BRANCH   1  23
HETATM   23  C   UNL     1     -41.606  54.890 -55.123  1.00  0.00    -0.035 A 
HETATM   24  C   UNL     1     -42.450  53.780 -55.000  1.00  0.00     0.012 A 
HETATM   25  C   UNL     1     -41.946  52.550 -54.562  1.00  0.00     0.007 A 
HETATM   26  C   UNL     1     -40.591  52.414 -54.241  1.00  0.00    -0.062 A 
HETATM   27  C   UNL     1     -40.032  51.091 -53.806  1.00  0.00     0.048 C 
HETATM   28  C   UNL     1     -39.746  53.519 -54.383  1.00  0.00     0.007 A 
HETATM   29  C   UNL     1     -40.249  54.745 -54.824  1.00  0.00     0.012 A 
ENDBRANCH   1  23
TORSDOF 3
ENDMDL
MODEL 7
REMARK VINA RESULT:      -7.7      5.884      8.296
REMARK  3 active torsions:
REMARK  status: ('A' for Active; 'I' for Inactive)
REMARK    1  A    between atoms: C_5  and  C_6 
REMARK    2  A    between atoms: C_11  and  C_12 
REMARK    3  A    between atoms: C_23  and  O_24 
ROOT
HETATM    1  C   UNL     1     -44.927  60.962 -49.109  1.00  0.00     0.031 C 
HETATM    2  C   UNL     1     -45.379  60.884 -50.369  1.00  0.00     0.066 A 
HETATM    3  C   UNL     1     -46.470  61.667 -51.000  1.00  0.00     0.274 A 
HETATM    4  O   UNL     1     -47.116  62.598 -50.564  1.00  0.00    -0.266 OA
HETATM    5  N   UNL     1     -46.616  61.056 -52.237  1.00  0.00    -0.242 N 
HETATM    6  C   UNL     1     -44.982  59.917 -51.427  1.00  0.00     0.111 A 
HETATM    7  N   UNL     1     -45.747  60.022 -52.492  1.00  0.00    -0.170 NA
HETATM    8  H   UNL     1     -47.291  61.361 -52.929  1.00  0.00     0.192 HD
ENDROOT
BRANCH   6   9
HETATM    9  C   UNL     1     -43.893  58.925 -51.299  1.00  0.00     0.098 C 
HETATM   10  C   UNL     1     -42.459  59.309 -51.382  1.00  0.00     0.263 C 
HETATM   11  O   UNL     1     -42.163  60.462 -51.697  1.00  0.00    -0.267 OA
HETATM   12  N   UNL     1     -41.506  58.338 -51.096  1.00  0.00    -0.317 N 
HETATM   13  C   UNL     1     -40.105  58.731 -51.084  1.00  0.00     0.159 C 
HETATM   14  C   UNL     1     -41.860  56.968 -50.909  1.00  0.00     0.050 A 
HETATM   15  C   UNL     1     -43.215  56.598 -50.958  1.00  0.00     0.025 A 
HETATM   16  C   UNL     1     -40.888  55.974 -50.703  1.00  0.00     0.031 A 
HETATM   17  C   UNL     1     -43.567  55.246 -50.809  1.00  0.00     0.016 A 
HETATM   18  C   UNL     1     -44.242  57.633 -51.151  1.00  0.00     0.096 C 
HETATM   19  C   UNL     1     -42.592  54.268 -50.610  1.00  0.00     0.001 A 
HETATM   20  C   UNL     1     -41.253  54.634 -50.555  1.00  0.00     0.002 A 
BRANCH  18  21
HETATM   21  O   UNL     1     -45.549  57.172 -51.152  1.00  0.00    -0.359 OA
HETATM   22  H   UNL     1     -45.579  56.306 -50.692  1.00  0.00     0.218 HD
ENDBRANCH  18  21
ENDBRANCH   6   9
BRANCH   1  23
HETATM   23  C   UNL     1     -45.319  61.938 -48.086  1.00  0.00    -0.035 A 
HETATM   24  C   UNL     1     -46.248  61.570 -47.106  1.00  0.00     0.012 A 
HETATM   25  C   UNL     1     -46.578  62.453 -46.072  1.00  0.00     0.007 A 
HETATM   26  C   UNL     1     -45.984  63.718 -46.004  1.00  0.00    -0.062 A 
HETATM   27  C   UNL     1     -46.302  64.659 -44.880  1.00  0.00     0.048 C 
HETATM   28  C   UNL     1     -45.041  64.077 -46.973  1.00  0.00     0.007 A 
HETATM   29  C   UNL     1     -44.709  63.193 -48.003  1.00  0.00     0.012 A 
ENDBRANCH   1  23
TORSDOF 3
ENDMDL
MODEL 8
REMARK VINA RESULT:      -7.6      2.191      7.374
REMARK  3 active torsions:
REMARK  status: ('A' for Active; 'I' for Inactive)
REMARK    1  A    between atoms: C_5  and  C_6 
REMARK    2  A    between atoms: C_11  and  C_12 
REMARK    3  A    between atoms: C_23  and  O_24 
ROOT
HETATM    1  C   UNL     1     -42.722  55.846 -55.325  1.00  0.00     0.031 C 
HETATM    2  C   UNL     1     -43.393  56.683 -54.520  1.00  0.00     0.066 A 
HETATM    3  C   UNL     1     -43.550  56.607 -53.046  1.00  0.00     0.274 A 
HETATM    4  O   UNL     1     -43.039  55.851 -52.245  1.00  0.00    -0.266 OA
HETATM    5  N   UNL     1     -44.469  57.610 -52.779  1.00  0.00    -0.242 N 
HETATM    6  C   UNL     1     -44.249  57.837 -54.906  1.00  0.00     0.111 A 
HETATM    7  N   UNL     1     -44.888  58.334 -53.869  1.00  0.00    -0.170 NA
HETATM    8  H   UNL     1     -44.794  57.828 -51.844  1.00  0.00     0.192 HD
ENDROOT
BRANCH   6   9
HETATM    9  C   UNL     1     -44.404  58.349 -56.284  1.00  0.00     0.098 C 
HETATM   10  C   UNL     1     -43.308  59.065 -56.991  1.00  0.00     0.263 C 
HETATM   11  O   UNL     1     -42.285  59.358 -56.372  1.00  0.00    -0.267 OA
HETATM   12  N   UNL     1     -43.490  59.372 -58.334  1.00  0.00    -0.317 N 
HETATM   13  C   UNL     1     -42.386  59.988 -59.055  1.00  0.00     0.159 C 
HETATM   14  C   UNL     1     -44.746  59.186 -58.986  1.00  0.00     0.050 A 
HETATM   15  C   UNL     1     -45.814  58.622 -58.266  1.00  0.00     0.025 A 
HETATM   16  C   UNL     1     -44.953  59.574 -60.320  1.00  0.00     0.031 A 
HETATM   17  C   UNL     1     -47.063  58.468 -58.891  1.00  0.00     0.016 A 
HETATM   18  C   UNL     1     -45.603  58.192 -56.875  1.00  0.00     0.096 C 
HETATM   19  C   UNL     1     -47.256  58.863 -60.215  1.00  0.00     0.001 A 
HETATM   20  C   UNL     1     -46.200  59.414 -60.929  1.00  0.00     0.002 A 
BRANCH  18  21
HETATM   21  O   UNL     1     -46.706  57.618 -56.263  1.00  0.00    -0.359 OA
HETATM   22  H   UNL     1     -47.493  57.759 -56.832  1.00  0.00     0.218 HD
ENDBRANCH  18  21
ENDBRANCH   6   9
BRANCH   1  23
HETATM   23  C   UNL     1     -41.868  54.723 -54.921  1.00  0.00    -0.035 A 
HETATM   24  C   UNL     1     -42.448  53.474 -54.675  1.00  0.00     0.012 A 
HETATM   25  C   UNL     1     -41.649  52.367 -54.369  1.00  0.00     0.007 A 
HETATM   26  C   UNL     1     -40.257  52.495 -54.303  1.00  0.00    -0.062 A 
HETATM   27  C   UNL     1     -39.388  51.308 -54.011  1.00  0.00     0.048 C 
HETATM   28  C   UNL     1     -39.678  53.740 -54.569  1.00  0.00     0.007 A 
HETATM   29  C   UNL     1     -40.476  54.843 -54.879  1.00  0.00     0.012 A 
ENDBRANCH   1  23
TORSDOF 3
ENDMDL
MODEL 9
REMARK VINA RESULT:      -7.5      2.434      7.524
REMARK  3 active torsions:
REMARK  status: ('A' for Active; 'I' for Inactive)
REMARK    1  A    between atoms: C_5  and  C_6 
REMARK    2  A    between atoms: C_11  and  C_12 
REMARK    3  A    between atoms: C_23  and  O_24 
ROOT
HETATM    1  C   UNL     1     -41.903  56.362 -55.078  1.00  0.00     0.031 C 
HETATM    2  C   UNL     1     -41.804  57.630 -54.651  1.00  0.00     0.066 A 
HETATM    3  C   UNL     1     -41.210  58.126 -53.385  1.00  0.00     0.274 A 
HETATM    4  O   UNL     1     -40.607  57.527 -52.519  1.00  0.00    -0.266 OA
HETATM    5  N   UNL     1     -41.537  59.474 -53.396  1.00  0.00    -0.242 N 
HETATM    6  C   UNL     1     -42.364  58.856 -55.281  1.00  0.00     0.111 A 
HETATM    7  N   UNL     1     -42.220  59.908 -54.506  1.00  0.00    -0.170 NA
HETATM    8  H   UNL     1     -41.268  60.114 -52.658  1.00  0.00     0.192 HD
ENDROOT
BRANCH   6   9
HETATM    9  C   UNL     1     -43.039  58.896 -56.596  1.00  0.00     0.098 C 
HETATM   10  C   UNL     1     -42.364  59.413 -57.817  1.00  0.00     0.263 C 
HETATM   11  O   UNL     1     -41.259  59.945 -57.712  1.00  0.00    -0.267 OA
HETATM   12  N   UNL     1     -43.019  59.269 -59.035  1.00  0.00    -0.317 N 
HETATM   13  C   UNL     1     -42.324  59.687 -60.243  1.00  0.00     0.159 C 
HETATM   14  C   UNL     1     -44.369  58.815 -59.114  1.00  0.00     0.050 A 
HETATM   15  C   UNL     1     -45.038  58.447 -57.934  1.00  0.00     0.025 A 
HETATM   16  C   UNL     1     -45.057  58.749 -60.337  1.00  0.00     0.031 A 
HETATM   17  C   UNL     1     -46.379  58.032 -58.002  1.00  0.00     0.016 A 
HETATM   18  C   UNL     1     -44.321  58.491 -56.651  1.00  0.00     0.096 C 
HETATM   19  C   UNL     1     -47.052  57.977 -59.223  1.00  0.00     0.001 A 
HETATM   20  C   UNL     1     -46.389  58.333 -60.390  1.00  0.00     0.002 A 
BRANCH  18  21
HETATM   21  O   UNL     1     -45.057  58.079 -55.551  1.00  0.00    -0.359 OA
HETATM   22  H   UNL     1     -45.264  58.862 -54.997  1.00  0.00     0.218 HD
ENDBRANCH  18  21
ENDBRANCH   6   9
BRANCH   1  23
HETATM   23  C   UNL     1     -41.327  55.168 -54.449  1.00  0.00    -0.035 A 
HETATM   24  C   UNL     1     -41.848  54.713 -53.233  1.00  0.00     0.012 A 
HETATM   25  C   UNL     1     -41.371  53.533 -52.653  1.00  0.00     0.007 A 
HETATM   26  C   UNL     1     -40.366  52.790 -53.282  1.00  0.00    -0.062 A 
HETATM   27  C   UNL     1     -39.873  51.504 -52.688  1.00  0.00     0.048 C 
HETATM   28  C   UNL     1     -39.859  53.236 -54.507  1.00  0.00     0.007 A 
HETATM   29  C   UNL     1     -40.339  54.413 -55.087  1.00  0.00     0.012 A 
ENDBRANCH   1  23
TORSDOF 3
ENDMDL
MODEL 10
REMARK VINA RESULT:      -7.5      5.123      8.050
REMARK  3 active torsions:
REMARK  status: ('A' for Active; 'I' for Inactive)
REMARK    1  A    between atoms: C_5  and  C_6 
REMARK    2  A    between atoms: C_11  and  C_12 
REMARK    3  A    between atoms: C_23  and  O_24 
ROOT
HETATM    1  C   UNL     1     -43.288  58.025 -51.690  1.00  0.00     0.031 C 
HETATM    2  C   UNL     1     -44.247  58.605 -52.427  1.00  0.00     0.066 A 
HETATM    3  C   UNL     1     -44.758  58.188 -53.757  1.00  0.00     0.274 A 
HETATM    4  O   UNL     1     -44.503  57.201 -54.416  1.00  0.00    -0.266 OA
HETATM    5  N   UNL     1     -45.600  59.232 -54.107  1.00  0.00    -0.242 N 
HETATM    6  C   UNL     1     -44.967  59.878 -52.157  1.00  0.00     0.111 A 
HETATM    7  N   UNL     1     -45.724  60.232 -53.173  1.00  0.00    -0.170 NA
HETATM    8  H   UNL     1     -46.122  59.255 -54.976  1.00  0.00     0.192 HD
ENDROOT
BRANCH   6   9
HETATM    9  C   UNL     1     -44.830  60.680 -50.922  1.00  0.00     0.098 C 
HETATM   10  C   UNL     1     -44.071  61.959 -50.890  1.00  0.00     0.263 C 
HETATM   11  O   UNL     1     -43.426  62.300 -51.881  1.00  0.00    -0.267 OA
HETATM   12  N   UNL     1     -44.125  62.720 -49.727  1.00  0.00    -0.317 N 
HETATM   13  C   UNL     1     -43.462  64.016 -49.722  1.00  0.00     0.159 C 
HETATM   14  C   UNL     1     -44.726  62.226 -48.532  1.00  0.00     0.050 A 
HETATM   15  C   UNL     1     -45.333  60.958 -48.543  1.00  0.00     0.025 A 
HETATM   16  C   UNL     1     -44.707  62.962 -47.335  1.00  0.00     0.031 A 
HETATM   17  C   UNL     1     -45.896  60.451 -47.360  1.00  0.00     0.016 A 
HETATM   18  C   UNL     1     -45.378  60.188 -49.796  1.00  0.00     0.096 C 
HETATM   19  C   UNL     1     -45.866  61.190 -46.177  1.00  0.00     0.001 A 
HETATM   20  C   UNL     1     -45.273  62.446 -46.166  1.00  0.00     0.002 A 
BRANCH  18  21
HETATM   21  O   UNL     1     -46.026  58.966 -49.712  1.00  0.00    -0.359 OA
HETATM   22  H   UNL     1     -46.828  58.993 -50.277  1.00  0.00     0.218 HD
ENDBRANCH  18  21
ENDBRANCH   6   9
BRANCH   1  23
HETATM   23  C   UNL     1     -42.603  56.757 -51.967  1.00  0.00    -0.035 A 
HETATM   24  C   UNL     1     -43.143  55.564 -51.475  1.00  0.00     0.012 A 
HETATM   25  C   UNL     1     -42.556  54.335 -51.793  1.00  0.00     0.007 A 
HETATM   26  C   UNL     1     -41.419  54.282 -52.607  1.00  0.00    -0.062 A 
HETATM   27  C   UNL     1     -40.802  52.967 -52.983  1.00  0.00     0.048 C 
HETATM   28  C   UNL     1     -40.892  55.474 -53.114  1.00  0.00     0.007 A 
HETATM   29  C   UNL     1     -41.481  56.701 -52.799  1.00  0.00     0.012 A 
ENDBRANCH   1  23
TORSDOF 3
ENDMDL
