MODEL 1
REMARK VINA RESULT:      -8.4      0.000      0.000
REMARK  4 active torsions:
REMARK  status: ('A' for Active; 'I' for Inactive)
REMARK    1  A    between atoms: C_6  and  N_7 
REMARK       I    between atoms: N_7  and  C_8 
REMARK    2  A    between atoms: C_8  and  C_9 
REMARK    3  A    between atoms: C_10  and  C_11 
REMARK    4  A    between atoms: C_12  and  O_13 
ROOT
HETATM    1  C   UNL     1     -42.774  58.083 -54.344  1.00  0.00     0.063 A 
HETATM    2  C   UNL     1     -42.350  57.158 -53.212  1.00  0.00     0.205 A 
HETATM    3  N   UNL     1     -41.421  57.828 -52.290  1.00  0.00    -0.084 N 
HETATM    4  C   UNL     1     -40.984  59.117 -52.445  1.00  0.00     0.725 A 
HETATM    5  N   UNL     1     -41.400  59.832 -53.506  1.00  0.00    -0.192 N 
HETATM    6  N   UNL     1     -40.994  57.308 -51.118  1.00  0.00    -0.149 NA
HETATM    7  C   UNL     1     -40.234  58.312 -50.665  1.00  0.00     0.275 A 
HETATM    8  N   UNL     1     -40.207  59.439 -51.443  1.00  0.00    -0.054 NA
HETATM    9  C   UNL     1     -42.295  59.347 -54.453  1.00  0.00     0.037 A 
HETATM   10  C   UNL     1     -42.683  60.318 -55.542  1.00  0.00     0.070 C 
HETATM   11  H   UNL     1     -41.072  60.789 -53.613  1.00  0.00     0.184 HD
ENDROOT
BRANCH   1  12
HETATM   12  C   UNL     1     -43.683  57.537 -55.387  1.00  0.00     0.256 C 
HETATM   13  N   UNL     1     -43.073  57.394 -56.617  1.00  0.00    -0.323 N 
HETATM   14  H   UNL     1     -42.130  57.740 -56.707  1.00  0.00     0.169 HD
HETATM   15  O   UNL     1     -44.831  57.239 -55.082  1.00  0.00    -0.267 OA
BRANCH  13  16
HETATM   16  C   UNL     1     -43.605  56.773 -57.774  1.00  0.00     0.041 A 
HETATM   17  C   UNL     1     -44.373  57.547 -58.672  1.00  0.00    -0.035 A 
HETATM   18  C   UNL     1     -44.853  56.960 -59.859  1.00  0.00     0.015 A 
HETATM   19  C   UNL     1     -44.700  58.994 -58.413  1.00  0.00     0.050 C 
HETATM   20  C   UNL     1     -44.603  55.618 -60.159  1.00  0.00    -0.061 A 
HETATM   21  C   UNL     1     -45.075  55.016 -61.448  1.00  0.00     0.048 C 
HETATM   22  C   UNL     1     -43.851  54.860 -59.263  1.00  0.00     0.009 A 
HETATM   23  C   UNL     1     -43.364  55.430 -58.082  1.00  0.00     0.030 A 
ENDBRANCH  13  16
ENDBRANCH   1  12
BRANCH   2  24
HETATM   24  C   UNL     1     -41.753  55.844 -53.700  1.00  0.00     0.005 A 
HETATM   25  C   UNL     1     -42.345  54.614 -53.355  1.00  0.00     0.076 A 
HETATM   26  C   UNL     1     -41.790  53.418 -53.822  1.00  0.00     0.037 A 
HETATM   27  C   UNL     1     -40.639  53.434 -54.613  1.00  0.00     0.003 A 
HETATM   28  C   UNL     1     -40.040  54.643 -54.950  1.00  0.00     0.001 A 
HETATM   29  C   UNL     1     -40.593  55.842 -54.500  1.00  0.00     0.012 A 
BRANCH  25  30
HETATM   30  O   UNL     1     -43.487  54.675 -52.597  1.00  0.00    -0.355 OA
HETATM   31  C   UNL     1     -43.412  54.063 -51.312  1.00  0.00     0.210 C 
ENDBRANCH  25  30
ENDBRANCH   2  24
TORSDOF 4
ENDMDL
MODEL 2
REMARK VINA RESULT:      -8.0      2.400      5.902
REMARK  4 active torsions:
REMARK  status: ('A' for Active; 'I' for Inactive)
REMARK    1  A    between atoms: C_6  and  N_7 
REMARK       I    between atoms: N_7  and  C_8 
REMARK    2  A    between atoms: C_8  and  C_9 
REMARK    3  A    between atoms: C_10  and  C_11 
REMARK    4  A    between atoms: C_12  and  O_13 
ROOT
HETATM    1  C   UNL     1     -43.323  56.771 -55.299  1.00  0.00     0.063 A 
HETATM    2  C   UNL     1     -43.649  58.027 -54.502  1.00  0.00     0.205 A 
HETATM    3  N   UNL     1     -43.868  59.181 -55.386  1.00  0.00    -0.084 N 
HETATM    4  C   UNL     1     -43.774  59.130 -56.751  1.00  0.00     0.725 A 
HETATM    5  N   UNL     1     -43.445  57.971 -57.347  1.00  0.00    -0.192 N 
HETATM    6  N   UNL     1     -44.317  60.388 -54.973  1.00  0.00    -0.149 NA
HETATM    7  C   UNL     1     -44.385  61.037 -56.141  1.00  0.00     0.275 A 
HETATM    8  N   UNL     1     -44.069  60.302 -57.253  1.00  0.00    -0.054 NA
HETATM    9  C   UNL     1     -43.229  56.786 -56.652  1.00  0.00     0.037 A 
HETATM   10  C   UNL     1     -42.921  55.577 -57.502  1.00  0.00     0.070 C 
HETATM   11  H   UNL     1     -43.379  57.941 -58.361  1.00  0.00     0.184 HD
ENDROOT
BRANCH   1  12
HETATM   12  C   UNL     1     -43.032  55.523 -54.545  1.00  0.00     0.256 C 
HETATM   13  N   UNL     1     -41.711  55.133 -54.629  1.00  0.00    -0.323 N 
HETATM   14  H   UNL     1     -41.111  55.667 -55.241  1.00  0.00     0.169 HD
HETATM   15  O   UNL     1     -43.932  54.984 -53.912  1.00  0.00    -0.267 OA
BRANCH  13  16
HETATM   16  C   UNL     1     -41.075  54.085 -53.918  1.00  0.00     0.041 A 
HETATM   17  C   UNL     1     -40.901  54.216 -52.523  1.00  0.00    -0.035 A 
HETATM   18  C   UNL     1     -40.329  53.156 -51.793  1.00  0.00     0.015 A 
HETATM   19  C   UNL     1     -41.311  55.455 -51.771  1.00  0.00     0.050 C 
HETATM   20  C   UNL     1     -39.909  51.981 -52.425  1.00  0.00    -0.061 A 
HETATM   21  C   UNL     1     -39.349  50.839 -51.633  1.00  0.00     0.048 C 
HETATM   22  C   UNL     1     -40.078  51.865 -53.803  1.00  0.00     0.009 A 
HETATM   23  C   UNL     1     -40.648  52.908 -54.541  1.00  0.00     0.030 A 
ENDBRANCH  13  16
ENDBRANCH   1  12
BRANCH   2  24
HETATM   24  C   UNL     1     -42.601  58.360 -53.448  1.00  0.00     0.005 A 
HETATM   25  C   UNL     1     -42.967  58.533 -52.100  1.00  0.00     0.076 A 
HETATM   26  C   UNL     1     -41.989  58.826 -51.144  1.00  0.00     0.037 A 
HETATM   27  C   UNL     1     -40.652  58.970 -51.521  1.00  0.00     0.003 A 
HETATM   28  C   UNL     1     -40.282  58.811 -52.852  1.00  0.00     0.001 A 
HETATM   29  C   UNL     1     -41.247  58.505 -53.811  1.00  0.00     0.012 A 
BRANCH  25  30
HETATM   30  O   UNL     1     -44.293  58.353 -51.797  1.00  0.00    -0.355 OA
HETATM   31  C   UNL     1     -44.602  57.190 -51.034  1.00  0.00     0.210 C 
ENDBRANCH  25  30
ENDBRANCH   2  24
TORSDOF 4
ENDMDL
MODEL 3
REMARK VINA RESULT:      -7.9      2.832      6.009
REMARK  4 active torsions:
REMARK  status: ('A' for Active; 'I' for Inactive)
REMARK    1  A    between atoms: C_6  and  N_7 
REMARK       I    between atoms: N_7  and  C_8 
REMARK    2  A    between atoms: C_8  and  C_9 
REMARK    3  A    between atoms: C_10  and  C_11 
REMARK    4  A    between atoms: C_12  and  O_13 
ROOT
HETATM    1  C   UNL     1     -41.544  59.607 -52.447  1.00  0.00     0.063 A 
HETATM    2  C   UNL     1     -42.219  60.418 -53.544  1.00  0.00     0.205 A 
HETATM    3  N   UNL     1     -42.972  61.552 -52.988  1.00  0.00    -0.084 N 
HETATM    4  C   UNL     1     -43.063  61.829 -51.650  1.00  0.00     0.725 A 
HETATM    5  N   UNL     1     -42.451  61.020 -50.765  1.00  0.00    -0.192 N 
HETATM    6  N   UNL     1     -43.548  62.527 -53.727  1.00  0.00    -0.149 NA
HETATM    7  C   UNL     1     -44.039  63.310 -52.760  1.00  0.00     0.275 A 
HETATM    8  N   UNL     1     -43.759  62.923 -51.476  1.00  0.00    -0.054 NA
HETATM    9  C   UNL     1     -41.683  59.922 -51.135  1.00  0.00     0.037 A 
HETATM   10  C   UNL     1     -41.032  59.168 -50.001  1.00  0.00     0.070 C 
HETATM   11  H   UNL     1     -42.521  61.234 -49.774  1.00  0.00     0.184 HD
ENDROOT
BRANCH   1  12
HETATM   12  C   UNL     1     -40.776  58.397 -52.846  1.00  0.00     0.256 C 
HETATM   13  N   UNL     1     -41.494  57.228 -52.704  1.00  0.00    -0.323 N 
HETATM   14  H   UNL     1     -42.407  57.295 -52.279  1.00  0.00     0.169 HD
HETATM   15  O   UNL     1     -39.638  58.528 -53.281  1.00  0.00    -0.267 OA
BRANCH  13  16
HETATM   16  C   UNL     1     -41.117  55.929 -53.127  1.00  0.00     0.041 A 
HETATM   17  C   UNL     1     -40.977  54.910 -52.159  1.00  0.00    -0.035 A 
HETATM   18  C   UNL     1     -40.667  53.600 -52.570  1.00  0.00     0.015 A 
HETATM   19  C   UNL     1     -41.153  55.168 -50.685  1.00  0.00     0.050 C 
HETATM   20  C   UNL     1     -40.472  53.288 -53.919  1.00  0.00    -0.061 A 
HETATM   21  C   UNL     1     -40.192  51.880 -54.352  1.00  0.00     0.048 C 
HETATM   22  C   UNL     1     -40.605  54.302 -54.867  1.00  0.00     0.009 A 
HETATM   23  C   UNL     1     -40.918  55.607 -54.473  1.00  0.00     0.030 A 
ENDBRANCH  13  16
ENDBRANCH   1  12
BRANCH   2  24
HETATM   24  C   UNL     1     -43.117  59.580 -54.446  1.00  0.00     0.005 A 
HETATM   25  C   UNL     1     -42.801  59.398 -55.806  1.00  0.00     0.076 A 
HETATM   26  C   UNL     1     -43.630  58.616 -56.616  1.00  0.00     0.037 A 
HETATM   27  C   UNL     1     -44.784  58.030 -56.090  1.00  0.00     0.003 A 
HETATM   28  C   UNL     1     -45.111  58.213 -54.750  1.00  0.00     0.001 A 
HETATM   29  C   UNL     1     -44.283  58.980 -53.931  1.00  0.00     0.012 A 
BRANCH  25  30
HETATM   30  O   UNL     1     -41.641  59.981 -56.249  1.00  0.00    -0.355 OA
HETATM   31  C   UNL     1     -41.730  60.674 -57.491  1.00  0.00     0.210 C 
ENDBRANCH  25  30
ENDBRANCH   2  24
TORSDOF 4
ENDMDL
MODEL 4
REMARK VINA RESULT:      -7.8      2.541      4.684
REMARK  4 active torsions:
REMARK  status: ('A' for Active; 'I' for Inactive)
REMARK    1  A    between atoms: C_6  and  N_7 
REMARK       I    between atoms: N_7  and  C_8 
REMARK    2  A    between atoms: C_8  and  C_9 
REMARK    3  A    between atoms: C_10  and  C_11 
REMARK    4  A    between atoms: C_12  and  O_13 
ROOT
HETATM    1  C   UNL     1     -41.204  55.080 -52.698  1.00  0.00     0.063 A 
HETATM    2  C   UNL     1     -41.194  55.918 -51.427  1.00  0.00     0.205 A 
HETATM    3  N   UNL     1     -41.051  55.076 -50.230  1.00  0.00    -0.084 N 
HETATM    4  C   UNL     1     -40.956  53.711 -50.261  1.00  0.00     0.725 A 
HETATM    5  N   UNL     1     -41.011  53.071 -51.443  1.00  0.00    -0.192 N 
HETATM    6  N   UNL     1     -40.863  55.549 -48.977  1.00  0.00    -0.149 NA
HETATM    7  C   UNL     1     -40.748  54.404 -48.297  1.00  0.00     0.275 A 
HETATM    8  N   UNL     1     -40.792  53.256 -49.045  1.00  0.00    -0.054 NA
HETATM    9  C   UNL     1     -41.121  53.727 -52.664  1.00  0.00     0.037 A 
HETATM   10  C   UNL     1     -41.114  52.839 -53.885  1.00  0.00     0.070 C 
HETATM   11  H   UNL     1     -40.937  52.057 -51.457  1.00  0.00     0.184 HD
ENDROOT
BRANCH   1  12
HETATM   12  C   UNL     1     -41.385  55.784 -53.996  1.00  0.00     0.256 C 
HETATM   13  N   UNL     1     -42.514  55.382 -54.678  1.00  0.00    -0.323 N 
HETATM   14  H   UNL     1     -43.044  54.617 -54.285  1.00  0.00     0.169 HD
HETATM   15  O   UNL     1     -40.579  56.646 -54.325  1.00  0.00    -0.267 OA
BRANCH  13  16
HETATM   16  C   UNL     1     -43.054  55.948 -55.860  1.00  0.00     0.041 A 
HETATM   17  C   UNL     1     -43.854  57.107 -55.756  1.00  0.00    -0.035 A 
HETATM   18  C   UNL     1     -44.344  57.719 -56.926  1.00  0.00     0.015 A 
HETATM   19  C   UNL     1     -44.207  57.729 -54.430  1.00  0.00     0.050 C 
HETATM   20  C   UNL     1     -44.072  57.190 -58.192  1.00  0.00    -0.061 A 
HETATM   21  C   UNL     1     -44.556  57.877 -59.434  1.00  0.00     0.048 C 
HETATM   22  C   UNL     1     -43.288  56.042 -58.283  1.00  0.00     0.009 A 
HETATM   23  C   UNL     1     -42.791  55.425 -57.130  1.00  0.00     0.030 A 
ENDBRANCH  13  16
ENDBRANCH   1  12
BRANCH   2  24
HETATM   24  C   UNL     1     -42.411  56.824 -51.293  1.00  0.00     0.005 A 
HETATM   25  C   UNL     1     -42.273  58.224 -51.326  1.00  0.00     0.076 A 
HETATM   26  C   UNL     1     -43.404  59.040 -51.214  1.00  0.00     0.037 A 
HETATM   27  C   UNL     1     -44.670  58.474 -51.049  1.00  0.00     0.003 A 
HETATM   28  C   UNL     1     -44.816  57.092 -51.004  1.00  0.00     0.001 A 
HETATM   29  C   UNL     1     -43.697  56.270 -51.128  1.00  0.00     0.012 A 
BRANCH  25  30
HETATM   30  O   UNL     1     -41.004  58.710 -51.517  1.00  0.00    -0.355 OA
HETATM   31  C   UNL     1     -40.511  59.573 -50.495  1.00  0.00     0.210 C 
ENDBRANCH  25  30
ENDBRANCH   2  24
TORSDOF 4
ENDMDL
MODEL 5
REMARK VINA RESULT:      -7.7      2.658      6.165
REMARK  4 active torsions:
REMARK  status: ('A' for Active; 'I' for Inactive)
REMARK    1  A    between atoms: C_6  and  N_7 
REMARK       I    between atoms: N_7  and  C_8 
REMARK    2  A    between atoms: C_8  and  C_9 
REMARK    3  A    between atoms: C_10  and  C_11 
REMARK    4  A    between atoms: C_12  and  O_13 
ROOT
HETATM    1  C   UNL     1     -43.452  58.801 -54.319  1.00  0.00     0.063 A 
HETATM    2  C   UNL     1     -43.320  59.641 -55.582  1.00  0.00     0.205 A 
HETATM    3  N   UNL     1     -44.475  60.534 -55.756  1.00  0.00    -0.084 N 
HETATM    4  C   UNL     1     -45.539  60.587 -54.895  1.00  0.00     0.725 A 
HETATM    5  N   UNL     1     -45.565  59.771 -53.826  1.00  0.00    -0.192 N 
HETATM    6  N   UNL     1     -44.565  61.497 -56.701  1.00  0.00    -0.149 NA
HETATM    7  C   UNL     1     -45.752  62.031 -56.395  1.00  0.00     0.275 A 
HETATM    8  N   UNL     1     -46.378  61.508 -55.294  1.00  0.00    -0.054 NA
HETATM    9  C   UNL     1     -44.539  58.887 -53.512  1.00  0.00     0.037 A 
HETATM   10  C   UNL     1     -44.726  58.093 -52.242  1.00  0.00     0.070 C 
HETATM   11  H   UNL     1     -46.357  59.818 -53.191  1.00  0.00     0.184 HD
ENDROOT
BRANCH   1  12
HETATM   12  C   UNL     1     -42.380  57.813 -54.023  1.00  0.00     0.256 C 
HETATM   13  N   UNL     1     -42.788  56.505 -54.184  1.00  0.00    -0.323 N 
HETATM   14  H   UNL     1     -43.762  56.348 -54.397  1.00  0.00     0.169 HD
HETATM   15  O   UNL     1     -41.266  58.216 -53.711  1.00  0.00    -0.267 OA
BRANCH  13  16
HETATM   16  C   UNL     1     -41.985  55.338 -54.127  1.00  0.00     0.041 A 
HETATM   17  C   UNL     1     -42.171  54.434 -53.059  1.00  0.00    -0.035 A 
HETATM   18  C   UNL     1     -41.426  53.239 -53.024  1.00  0.00     0.015 A 
HETATM   19  C   UNL     1     -43.149  54.693 -51.943  1.00  0.00     0.050 C 
HETATM   20  C   UNL     1     -40.488  52.938 -54.016  1.00  0.00    -0.061 A 
HETATM   21  C   UNL     1     -39.737  51.641 -53.997  1.00  0.00     0.048 C 
HETATM   22  C   UNL     1     -40.307  53.840 -55.062  1.00  0.00     0.009 A 
HETATM   23  C   UNL     1     -41.042  55.029 -55.113  1.00  0.00     0.030 A 
ENDBRANCH  13  16
ENDBRANCH   1  12
BRANCH   2  24
HETATM   24  C   UNL     1     -43.102  58.808 -56.839  1.00  0.00     0.005 A 
HETATM   25  C   UNL     1     -42.049  59.105 -57.724  1.00  0.00     0.076 A 
HETATM   26  C   UNL     1     -41.858  58.321 -58.867  1.00  0.00     0.037 A 
HETATM   27  C   UNL     1     -42.718  57.258 -59.148  1.00  0.00     0.003 A 
HETATM   28  C   UNL     1     -43.768  56.963 -58.285  1.00  0.00     0.001 A 
HETATM   29  C   UNL     1     -43.960  57.730 -57.136  1.00  0.00     0.012 A 
BRANCH  25  30
HETATM   30  O   UNL     1     -41.229  60.147 -57.373  1.00  0.00    -0.355 OA
HETATM   31  C   UNL     1     -41.230  61.262 -58.260  1.00  0.00     0.210 C 
ENDBRANCH  25  30
ENDBRANCH   2  24
TORSDOF 4
ENDMDL
MODEL 6
REMARK VINA RESULT:      -7.6      2.234      6.419
REMARK  4 active torsions:
REMARK  status: ('A' for Active; 'I' for Inactive)
REMARK    1  A    between atoms: C_6  and  N_7 
REMARK       I    between atoms: N_7  and  C_8 
REMARK    2  A    between atoms: C_8  and  C_9 
REMARK    3  A    between atoms: C_10  and  C_11 
REMARK    4  A    between atoms: C_12  and  O_13 
ROOT
HETATM    1  C   UNL     1     -42.408  57.917 -56.575  1.00  0.00     0.063 A 
HETATM    2  C   UNL     1     -42.291  57.902 -58.094  1.00  0.00     0.205 A 
HETATM    3  N   UNL     1     -42.342  59.262 -58.649  1.00  0.00    -0.084 N 
HETATM    4  C   UNL     1     -42.492  60.394 -57.893  1.00  0.00     0.725 A 
HETATM    5  N   UNL     1     -42.621  60.284 -56.558  1.00  0.00    -0.192 N 
HETATM    6  N   UNL     1     -42.115  59.570 -59.946  1.00  0.00    -0.149 NA
HETATM    7  C   UNL     1     -42.230  60.903 -59.906  1.00  0.00     0.275 A 
HETATM    8  N   UNL     1     -42.453  61.447 -58.669  1.00  0.00    -0.054 NA
HETATM    9  C   UNL     1     -42.570  59.071 -55.881  1.00  0.00     0.037 A 
HETATM   10  C   UNL     1     -42.680  59.157 -54.378  1.00  0.00     0.070 C 
HETATM   11  H   UNL     1     -42.729  61.130 -56.004  1.00  0.00     0.184 HD
ENDROOT
BRANCH   1  12
HETATM   12  C   UNL     1     -42.416  56.611 -55.864  1.00  0.00     0.256 C 
HETATM   13  N   UNL     1     -41.155  56.180 -55.508  1.00  0.00    -0.323 N 
HETATM   14  H   UNL     1     -40.372  56.730 -55.827  1.00  0.00     0.169 HD
HETATM   15  O   UNL     1     -43.488  56.065 -55.631  1.00  0.00    -0.267 OA
BRANCH  13  16
HETATM   16  C   UNL     1     -40.823  55.063 -54.701  1.00  0.00     0.041 A 
HETATM   17  C   UNL     1     -40.951  55.174 -53.299  1.00  0.00    -0.035 A 
HETATM   18  C   UNL     1     -40.687  54.053 -52.487  1.00  0.00     0.015 A 
HETATM   19  C   UNL     1     -41.369  56.454 -52.625  1.00  0.00     0.050 C 
HETATM   20  C   UNL     1     -40.279  52.835 -53.040  1.00  0.00    -0.061 A 
HETATM   21  C   UNL     1     -40.049  51.635 -52.173  1.00  0.00     0.048 C 
HETATM   22  C   UNL     1     -40.147  52.739 -54.424  1.00  0.00     0.009 A 
HETATM   23  C   UNL     1     -40.410  53.842 -55.243  1.00  0.00     0.030 A 
ENDBRANCH  13  16
ENDBRANCH   1  12
BRANCH   2  24
HETATM   24  C   UNL     1     -43.331  57.017 -58.769  1.00  0.00     0.005 A 
HETATM   25  C   UNL     1     -44.695  57.364 -58.745  1.00  0.00     0.076 A 
HETATM   26  C   UNL     1     -45.634  56.545 -59.381  1.00  0.00     0.037 A 
HETATM   27  C   UNL     1     -45.230  55.372 -60.022  1.00  0.00     0.003 A 
HETATM   28  C   UNL     1     -43.886  55.015 -60.042  1.00  0.00     0.001 A 
HETATM   29  C   UNL     1     -42.940  55.831 -59.423  1.00  0.00     0.012 A 
BRANCH  25  30
HETATM   30  O   UNL     1     -45.017  58.541 -58.119  1.00  0.00    -0.355 OA
HETATM   31  C   UNL     1     -46.050  58.461 -57.140  1.00  0.00     0.210 C 
ENDBRANCH  25  30
ENDBRANCH   2  24
TORSDOF 4
ENDMDL
MODEL 7
REMARK VINA RESULT:      -7.5      2.431      6.040
REMARK  4 active torsions:
REMARK  status: ('A' for Active; 'I' for Inactive)
REMARK    1  A    between atoms: C_6  and  N_7 
REMARK       I    between atoms: N_7  and  C_8 
REMARK    2  A    between atoms: C_8  and  C_9 
REMARK    3  A    between atoms: C_10  and  C_11 
REMARK    4  A    between atoms: C_12  and  O_13 
ROOT
HETATM    1  C   UNL     1     -43.588  57.705 -53.314  1.00  0.00     0.063 A 
HETATM    2  C   UNL     1     -43.467  58.843 -54.318  1.00  0.00     0.205 A 
HETATM    3  N   UNL     1     -43.938  60.114 -53.748  1.00  0.00    -0.084 N 
HETATM    4  C   UNL     1     -44.436  60.247 -52.480  1.00  0.00     0.725 A 
HETATM    5  N   UNL     1     -44.528  59.162 -51.689  1.00  0.00    -0.192 N 
HETATM    6  N   UNL     1     -43.814  61.318 -54.351  1.00  0.00    -0.149 NA
HETATM    7  C   UNL     1     -44.339  62.117 -53.416  1.00  0.00     0.275 A 
HETATM    8  N   UNL     1     -44.725  61.503 -52.253  1.00  0.00    -0.054 NA
HETATM    9  C   UNL     1     -44.104  57.896 -52.075  1.00  0.00     0.037 A 
HETATM   10  C   UNL     1     -44.241  56.815 -51.029  1.00  0.00     0.070 C 
HETATM   11  H   UNL     1     -44.897  59.271 -50.748  1.00  0.00     0.184 HD
ENDROOT
BRANCH   1  12
HETATM   12  C   UNL     1     -43.190  56.342 -53.755  1.00  0.00     0.256 C 
HETATM   13  N   UNL     1     -41.884  56.028 -53.440  1.00  0.00    -0.323 N 
HETATM   14  H   UNL     1     -41.321  56.758 -53.030  1.00  0.00     0.169 HD
HETATM   15  O   UNL     1     -44.019  55.626 -54.305  1.00  0.00    -0.267 OA
BRANCH  13  16
HETATM   16  C   UNL     1     -41.240  54.774 -53.583  1.00  0.00     0.041 A 
HETATM   17  C   UNL     1     -41.058  53.967 -52.439  1.00  0.00    -0.035 A 
HETATM   18  C   UNL     1     -40.479  52.690 -52.576  1.00  0.00     0.015 A 
HETATM   19  C   UNL     1     -41.467  54.415 -51.061  1.00  0.00     0.050 C 
HETATM   20  C   UNL     1     -40.059  52.212 -53.821  1.00  0.00    -0.061 A 
HETATM   21  C   UNL     1     -39.489  50.833 -53.965  1.00  0.00     0.048 C 
HETATM   22  C   UNL     1     -40.236  53.020 -54.943  1.00  0.00     0.009 A 
HETATM   23  C   UNL     1     -40.814  54.288 -54.823  1.00  0.00     0.030 A 
ENDBRANCH  13  16
ENDBRANCH   1  12
BRANCH   2  24
HETATM   24  C   UNL     1     -44.176  58.561 -55.637  1.00  0.00     0.005 A 
HETATM   25  C   UNL     1     -43.466  58.573 -56.852  1.00  0.00     0.076 A 
HETATM   26  C   UNL     1     -44.131  58.300 -58.051  1.00  0.00     0.037 A 
HETATM   27  C   UNL     1     -45.503  58.034 -58.055  1.00  0.00     0.003 A 
HETATM   28  C   UNL     1     -46.215  58.030 -56.861  1.00  0.00     0.001 A 
HETATM   29  C   UNL     1     -45.559  58.289 -55.658  1.00  0.00     0.012 A 
BRANCH  25  30
HETATM   30  O   UNL     1     -42.118  58.816 -56.772  1.00  0.00    -0.355 OA
HETATM   31  C   UNL     1     -41.658  59.986 -57.443  1.00  0.00     0.210 C 
ENDBRANCH  25  30
ENDBRANCH   2  24
TORSDOF 4
ENDMDL
MODEL 8
REMARK VINA RESULT:      -7.5     16.643     19.200
REMARK  4 active torsions:
REMARK  status: ('A' for Active; 'I' for Inactive)
REMARK    1  A    between atoms: C_6  and  N_7 
REMARK       I    between atoms: N_7  and  C_8 
REMARK    2  A    between atoms: C_8  and  C_9 
REMARK    3  A    between atoms: C_10  and  C_11 
REMARK    4  A    between atoms: C_12  and  O_13 
ROOT
HETATM    1  C   UNL     1     -36.457  41.408 -54.736  1.00  0.00     0.063 A 
HETATM    2  C   UNL     1     -35.717  41.425 -56.066  1.00  0.00     0.205 A 
HETATM    3  N   UNL     1     -36.627  41.159 -57.190  1.00  0.00    -0.084 N 
HETATM    4  C   UNL     1     -37.967  40.913 -57.049  1.00  0.00     0.725 A 
HETATM    5  N   UNL     1     -38.509  40.889 -55.818  1.00  0.00    -0.192 N 
HETATM    6  N   UNL     1     -36.285  41.257 -58.494  1.00  0.00    -0.149 NA
HETATM    7  C   UNL     1     -37.455  40.971 -59.077  1.00  0.00     0.275 A 
HETATM    8  N   UNL     1     -38.510  40.762 -58.230  1.00  0.00    -0.054 NA
HETATM    9  C   UNL     1     -37.785  41.143 -54.658  1.00  0.00     0.037 A 
HETATM   10  C   UNL     1     -38.580  41.123 -53.375  1.00  0.00     0.070 C 
HETATM   11  H   UNL     1     -39.504  40.708 -55.722  1.00  0.00     0.184 HD
ENDROOT
BRANCH   1  12
HETATM   12  C   UNL     1     -35.665  41.619 -53.495  1.00  0.00     0.256 C 
HETATM   13  N   UNL     1     -35.139  40.451 -52.982  1.00  0.00    -0.323 N 
HETATM   14  H   UNL     1     -35.402  39.588 -53.434  1.00  0.00     0.169 HD
HETATM   15  O   UNL     1     -35.519  42.757 -53.065  1.00  0.00    -0.267 OA
BRANCH  13  16
HETATM   16  C   UNL     1     -34.225  40.317 -51.907  1.00  0.00     0.041 A 
HETATM   17  C   UNL     1     -34.729  40.070 -50.611  1.00  0.00    -0.035 A 
HETATM   18  C   UNL     1     -33.831  39.870 -49.544  1.00  0.00     0.015 A 
HETATM   19  C   UNL     1     -36.205  40.006 -50.318  1.00  0.00     0.050 C 
HETATM   20  C   UNL     1     -32.448  39.931 -49.737  1.00  0.00    -0.061 A 
HETATM   21  C   UNL     1     -31.500  39.667 -48.606  1.00  0.00     0.048 C 
HETATM   22  C   UNL     1     -31.961  40.183 -51.018  1.00  0.00     0.009 A 
HETATM   23  C   UNL     1     -32.840  40.380 -52.088  1.00  0.00     0.030 A 
ENDBRANCH  13  16
ENDBRANCH   1  12
BRANCH   2  24
HETATM   24  C   UNL     1     -34.533  40.468 -56.108  1.00  0.00     0.005 A 
HETATM   25  C   UNL     1     -34.717  39.087 -55.904  1.00  0.00     0.076 A 
HETATM   26  C   UNL     1     -33.619  38.222 -55.958  1.00  0.00     0.037 A 
HETATM   27  C   UNL     1     -32.336  38.721 -56.194  1.00  0.00     0.003 A 
HETATM   28  C   UNL     1     -32.143  40.085 -56.386  1.00  0.00     0.001 A 
HETATM   29  C   UNL     1     -33.232  40.954 -56.347  1.00  0.00     0.012 A 
BRANCH  25  30
HETATM   30  O   UNL     1     -36.006  38.664 -55.703  1.00  0.00    -0.355 OA
HETATM   31  C   UNL     1     -36.438  37.582 -56.524  1.00  0.00     0.210 C 
ENDBRANCH  25  30
ENDBRANCH   2  24
TORSDOF 4
ENDMDL
MODEL 9
REMARK VINA RESULT:      -7.4      2.651      6.197
REMARK  4 active torsions:
REMARK  status: ('A' for Active; 'I' for Inactive)
REMARK    1  A    between atoms: C_6  and  N_7 
REMARK       I    between atoms: N_7  and  C_8 
REMARK    2  A    between atoms: C_8  and  C_9 
REMARK    3  A    between atoms: C_10  and  C_11 
REMARK    4  A    between atoms: C_12  and  O_13 
ROOT
HETATM    1  C   UNL     1     -42.556  56.359 -54.390  1.00  0.00     0.063 A 
HETATM    2  C   UNL     1     -42.969  57.090 -53.119  1.00  0.00     0.205 A 
HETATM    3  N   UNL     1     -44.016  58.086 -53.389  1.00  0.00    -0.084 N 
HETATM    4  C   UNL     1     -44.538  58.332 -54.631  1.00  0.00     0.725 A 
HETATM    5  N   UNL     1     -44.071  57.648 -55.691  1.00  0.00    -0.192 N 
HETATM    6  N   UNL     1     -44.680  58.779 -52.436  1.00  0.00    -0.149 NA
HETATM    7  C   UNL     1     -45.528  59.485 -53.192  1.00  0.00     0.275 A 
HETATM    8  N   UNL     1     -45.479  59.236 -54.539  1.00  0.00    -0.054 NA
HETATM    9  C   UNL     1     -43.100  56.658 -55.596  1.00  0.00     0.037 A 
HETATM   10  C   UNL     1     -42.744  55.965 -56.889  1.00  0.00     0.070 C 
HETATM   11  H   UNL     1     -44.466  57.835 -56.609  1.00  0.00     0.184 HD
ENDROOT
BRANCH   1  12
HETATM   12  C   UNL     1     -41.472  55.346 -54.290  1.00  0.00     0.256 C 
HETATM   13  N   UNL     1     -41.854  54.209 -53.608  1.00  0.00    -0.323 N 
HETATM   14  H   UNL     1     -42.770  54.209 -53.186  1.00  0.00     0.169 HD
HETATM   15  O   UNL     1     -40.392  55.572 -54.822  1.00  0.00    -0.267 OA
BRANCH  13  16
HETATM   16  C   UNL     1     -41.120  53.005 -53.462  1.00  0.00     0.041 A 
HETATM   17  C   UNL     1     -40.421  52.775 -52.257  1.00  0.00    -0.035 A 
HETATM   18  C   UNL     1     -39.741  51.555 -52.072  1.00  0.00     0.015 A 
HETATM   19  C   UNL     1     -40.374  53.789 -51.145  1.00  0.00     0.050 C 
HETATM   20  C   UNL     1     -39.725  50.573 -53.066  1.00  0.00    -0.061 A 
HETATM   21  C   UNL     1     -39.041  49.259 -52.840  1.00  0.00     0.048 C 
HETATM   22  C   UNL     1     -40.412  50.813 -54.255  1.00  0.00     0.009 A 
HETATM   23  C   UNL     1     -41.095  52.017 -54.452  1.00  0.00     0.030 A 
ENDBRANCH  13  16
ENDBRANCH   1  12
BRANCH   2  24
HETATM   24  C   UNL     1     -41.799  57.738 -52.390  1.00  0.00     0.005 A 
HETATM   25  C   UNL     1     -40.966  58.664 -53.047  1.00  0.00     0.076 A 
HETATM   26  C   UNL     1     -39.904  59.258 -52.358  1.00  0.00     0.037 A 
HETATM   27  C   UNL     1     -39.649  58.923 -51.026  1.00  0.00     0.003 A 
HETATM   28  C   UNL     1     -40.459  58.001 -50.372  1.00  0.00     0.001 A 
HETATM   29  C   UNL     1     -41.529  57.413 -51.046  1.00  0.00     0.012 A 
BRANCH  25  30
HETATM   30  O   UNL     1     -41.290  58.965 -54.346  1.00  0.00    -0.355 OA
HETATM   31  C   UNL     1     -41.814  60.272 -54.567  1.00  0.00     0.210 C 
ENDBRANCH  25  30
ENDBRANCH   2  24
TORSDOF 4
ENDMDL
MODEL 10
REMARK VINA RESULT:      -7.4      2.964      5.490
REMARK  4 active torsions:
REMARK  status: ('A' for Active; 'I' for Inactive)
REMARK    1  A    between atoms: C_6  and  N_7 
REMARK       I    between atoms: N_7  and  C_8 
REMARK    2  A    between atoms: C_8  and  C_9 
REMARK    3  A    between atoms: C_10  and  C_11 
REMARK    4  A    between atoms: C_12  and  O_13 
ROOT
HETATM    1  C   UNL     1     -43.573  57.663 -53.424  1.00  0.00     0.063 A 
HETATM    2  C   UNL     1     -43.757  58.105 -51.979  1.00  0.00     0.205 A 
HETATM    3  N   UNL     1     -44.825  59.108 -51.856  1.00  0.00    -0.084 N 
HETATM    4  C   UNL     1     -45.548  59.591 -52.914  1.00  0.00     0.725 A 
HETATM    5  N   UNL     1     -45.274  59.153 -54.156  1.00  0.00    -0.192 N 
HETATM    6  N   UNL     1     -45.311  59.572 -50.683  1.00  0.00    -0.149 NA
HETATM    7  C   UNL     1     -46.268  60.396 -51.122  1.00  0.00     0.275 A 
HETATM    8  N   UNL     1     -46.451  60.432 -52.479  1.00  0.00    -0.054 NA
HETATM    9  C   UNL     1     -44.310  58.190 -54.433  1.00  0.00     0.037 A 
HETATM   10  C   UNL     1     -44.186  57.788 -55.883  1.00  0.00     0.070 C 
HETATM   11  H   UNL     1     -45.817  59.515 -54.936  1.00  0.00     0.184 HD
ENDROOT
BRANCH   1  12
HETATM   12  C   UNL     1     -42.498  56.679 -53.721  1.00  0.00     0.256 C 
HETATM   13  N   UNL     1     -42.711  55.449 -53.135  1.00  0.00    -0.323 N 
HETATM   14  H   UNL     1     -43.504  55.364 -52.516  1.00  0.00     0.169 HD
HETATM   15  O   UNL     1     -41.572  57.009 -54.452  1.00  0.00    -0.267 OA
BRANCH  13  16
HETATM   16  C   UNL     1     -41.966  54.260 -53.332  1.00  0.00     0.041 A 
HETATM   17  C   UNL     1     -42.153  53.529 -54.526  1.00  0.00    -0.035 A 
HETATM   18  C   UNL     1     -41.372  52.381 -54.766  1.00  0.00     0.015 A 
HETATM   19  C   UNL     1     -43.160  53.933 -55.571  1.00  0.00     0.050 C 
HETATM   20  C   UNL     1     -40.429  51.935 -53.835  1.00  0.00    -0.061 A 
HETATM   21  C   UNL     1     -39.569  50.742 -54.121  1.00  0.00     0.048 C 
HETATM   22  C   UNL     1     -40.258  52.659 -52.656  1.00  0.00     0.009 A 
HETATM   23  C   UNL     1     -41.022  53.804 -52.406  1.00  0.00     0.030 A 
ENDBRANCH  13  16
ENDBRANCH   1  12
BRANCH   2  24
HETATM   24  C   UNL     1     -42.474  58.618 -51.338  1.00  0.00     0.005 A 
HETATM   25  C   UNL     1     -41.676  57.770 -50.547  1.00  0.00     0.076 A 
HETATM   26  C   UNL     1     -40.495  58.256 -49.977  1.00  0.00     0.037 A 
HETATM   27  C   UNL     1     -40.111  59.585 -50.169  1.00  0.00     0.003 A 
HETATM   28  C   UNL     1     -40.898  60.434 -50.940  1.00  0.00     0.001 A 
HETATM   29  C   UNL     1     -42.071  59.956 -51.524  1.00  0.00     0.012 A 
BRANCH  25  30
HETATM   30  O   UNL     1     -42.100  56.472 -50.422  1.00  0.00    -0.355 OA
HETATM   31  C   UNL     1     -41.381  55.673 -49.485  1.00  0.00     0.210 C 
ENDBRANCH  25  30
ENDBRANCH   2  24
TORSDOF 4
ENDMDL
