MODEL 1
REMARK VINA RESULT:      -8.0      0.000      0.000
REMARK  5 active torsions:
REMARK  status: ('A' for Active; 'I' for Inactive)
REMARK    1  A    between atoms: C_3  and  N_4 
REMARK    2  A    between atoms: N_5  and  C_6 
REMARK    3  A    between atoms: C_6  and  C_7 
REMARK    4  A    between atoms: C_7  and  C_8 
REMARK    5  A    between atoms: C_19  and  C_20 
ROOT
HETATM    1  C   UNL     1     -43.269  53.941 -51.502  1.00  0.00     0.175 C 
HETATM    2  N   UNL     1     -42.535  54.675 -52.522  1.00  0.00    -0.186 N 
HETATM    3  C   UNL     1     -42.844  55.901 -52.927  1.00  0.00     0.680 C 
HETATM    4  N   UNL     1     -41.815  56.403 -53.601  1.00  0.00    -0.184 N 
HETATM    5  C   UNL     1     -40.887  55.388 -53.785  1.00  0.00     0.140 C 
HETATM    6  C   UNL     1     -41.360  54.248 -53.169  1.00  0.00     0.077 C 
ENDROOT
BRANCH   4   7
HETATM    7  C   UNL     1     -41.619  57.803 -54.034  1.00  0.00     0.231 C 
BRANCH   7   8
HETATM    8  C   UNL     1     -42.729  58.322 -54.941  1.00  0.00     0.178 C 
HETATM    9  O   UNL     1     -43.588  59.110 -54.539  1.00  0.00    -0.290 OA
BRANCH   8  10
HETATM   10  C   UNL     1     -42.742  57.906 -56.369  1.00  0.00     0.014 A 
HETATM   11  C   UNL     1     -43.369  56.725 -56.783  1.00  0.00     0.055 A 
HETATM   12  C   UNL     1     -43.308  56.411 -58.127  1.00  0.00     0.106 A 
HETATM   13  C   UNL     1     -42.664  57.214 -59.038  1.00  0.00     0.105 A 
HETATM   14  O   UNL     1     -43.848  55.304 -58.702  1.00  0.00    -0.323 OA
HETATM   15  O   UNL     1     -42.722  56.716 -60.300  1.00  0.00    -0.323 OA
HETATM   16  C   UNL     1     -42.036  58.379 -58.660  1.00  0.00     0.040 A 
HETATM   17  C   UNL     1     -43.453  55.491 -60.081  1.00  0.00     0.352 A 
HETATM   18  C   UNL     1     -42.071  58.726 -57.305  1.00  0.00     0.018 A 
ENDBRANCH   8  10
ENDBRANCH   7   8
ENDBRANCH   4   7
BRANCH   3  19
HETATM   19  N   UNL     1     -43.995  56.513 -52.673  1.00  0.00    -0.234 N 
HETATM   20  H   UNL     1     -44.360  56.597 -51.739  1.00  0.00     0.174 HD
HETATM   21  H   UNL     1     -44.666  56.613 -53.435  1.00  0.00     0.174 HD
ENDBRANCH   3  19
BRANCH   6  22
HETATM   22  C   UNL     1     -40.709  52.894 -53.205  1.00  0.00    -0.007 A 
HETATM   23  C   UNL     1     -40.840  52.080 -54.339  1.00  0.00     0.014 A 
HETATM   24  C   UNL     1     -40.247  50.816 -54.369  1.00  0.00     0.001 A 
HETATM   25  C   UNL     1     -39.533  50.351 -53.267  1.00  0.00     0.000 A 
HETATM   26  C   UNL     1     -39.416  51.147 -52.131  1.00  0.00     0.001 A 
HETATM   27  C   UNL     1     -40.003  52.415 -52.098  1.00  0.00     0.014 A 
ENDBRANCH   6  22
TORSDOF 5
ENDMDL
MODEL 2
REMARK VINA RESULT:      -7.9      1.475      2.035
REMARK  5 active torsions:
REMARK  status: ('A' for Active; 'I' for Inactive)
REMARK    1  A    between atoms: C_3  and  N_4 
REMARK    2  A    between atoms: N_5  and  C_6 
REMARK    3  A    between atoms: C_6  and  C_7 
REMARK    4  A    between atoms: C_7  and  C_8 
REMARK    5  A    between atoms: C_19  and  C_20 
ROOT
HETATM    1  C   UNL     1     -40.045  54.210 -50.331  1.00  0.00     0.175 C 
HETATM    2  N   UNL     1     -40.621  54.483 -51.639  1.00  0.00    -0.186 N 
HETATM    3  C   UNL     1     -41.206  55.627 -51.973  1.00  0.00     0.680 C 
HETATM    4  N   UNL     1     -41.321  55.681 -53.296  1.00  0.00    -0.184 N 
HETATM    5  C   UNL     1     -40.958  54.443 -53.807  1.00  0.00     0.140 C 
HETATM    6  C   UNL     1     -40.579  53.632 -52.759  1.00  0.00     0.077 C 
ENDROOT
BRANCH   4   7
HETATM    7  C   UNL     1     -41.694  56.849 -54.120  1.00  0.00     0.231 C 
BRANCH   7   8
HETATM    8  C   UNL     1     -42.922  56.613 -54.994  1.00  0.00     0.178 C 
HETATM    9  O   UNL     1     -44.032  56.379 -54.512  1.00  0.00    -0.290 OA
BRANCH   8  10
HETATM   10  C   UNL     1     -42.782  56.721 -56.470  1.00  0.00     0.014 A 
HETATM   11  C   UNL     1     -42.363  57.908 -57.083  1.00  0.00     0.055 A 
HETATM   12  C   UNL     1     -42.286  57.918 -58.462  1.00  0.00     0.106 A 
HETATM   13  C   UNL     1     -42.601  56.816 -59.221  1.00  0.00     0.105 A 
HETATM   14  O   UNL     1     -41.911  58.980 -59.222  1.00  0.00    -0.323 OA
HETATM   15  O   UNL     1     -42.461  57.045 -60.552  1.00  0.00    -0.323 OA
HETATM   16  C   UNL     1     -43.020  55.637 -58.647  1.00  0.00     0.040 A 
HETATM   17  C   UNL     1     -42.046  58.428 -60.552  1.00  0.00     0.352 A 
HETATM   18  C   UNL     1     -43.117  55.592 -57.252  1.00  0.00     0.018 A 
ENDBRANCH   8  10
ENDBRANCH   7   8
ENDBRANCH   4   7
BRANCH   3  19
HETATM   19  N   UNL     1     -41.590  56.560 -51.109  1.00  0.00    -0.234 N 
HETATM   20  H   UNL     1     -41.907  57.467 -51.408  1.00  0.00     0.174 HD
HETATM   21  H   UNL     1     -41.265  56.486 -50.145  1.00  0.00     0.174 HD
ENDBRANCH   3  19
BRANCH   6  22
HETATM   22  C   UNL     1     -40.200  52.181 -52.862  1.00  0.00    -0.007 A 
HETATM   23  C   UNL     1     -40.239  51.530 -54.103  1.00  0.00     0.014 A 
HETATM   24  C   UNL     1     -39.901  50.178 -54.199  1.00  0.00     0.001 A 
HETATM   25  C   UNL     1     -39.536  49.466 -53.059  1.00  0.00     0.000 A 
HETATM   26  C   UNL     1     -39.515  50.102 -51.820  1.00  0.00     0.001 A 
HETATM   27  C   UNL     1     -39.847  51.455 -51.720  1.00  0.00     0.014 A 
ENDBRANCH   6  22
TORSDOF 5
ENDMDL
MODEL 3
REMARK VINA RESULT:      -7.8      3.290      5.354
REMARK  5 active torsions:
REMARK  status: ('A' for Active; 'I' for Inactive)
REMARK    1  A    between atoms: C_3  and  N_4 
REMARK    2  A    between atoms: N_5  and  C_6 
REMARK    3  A    between atoms: C_6  and  C_7 
REMARK    4  A    between atoms: C_7  and  C_8 
REMARK    5  A    between atoms: C_19  and  C_20 
ROOT
HETATM    1  C   UNL     1     -43.433  54.251 -51.629  1.00  0.00     0.175 C 
HETATM    2  N   UNL     1     -42.682  54.941 -52.667  1.00  0.00    -0.186 N 
HETATM    3  C   UNL     1     -42.993  56.142 -53.141  1.00  0.00     0.680 C 
HETATM    4  N   UNL     1     -41.954  56.621 -53.815  1.00  0.00    -0.184 N 
HETATM    5  C   UNL     1     -41.011  55.609 -53.924  1.00  0.00     0.140 C 
HETATM    6  C   UNL     1     -41.486  54.496 -53.263  1.00  0.00     0.077 C 
ENDROOT
BRANCH   4   7
HETATM    7  C   UNL     1     -41.763  57.999 -54.313  1.00  0.00     0.231 C 
BRANCH   7   8
HETATM    8  C   UNL     1     -41.112  58.931 -53.296  1.00  0.00     0.178 C 
HETATM    9  O   UNL     1     -39.889  59.075 -53.230  1.00  0.00    -0.290 OA
BRANCH   8  10
HETATM   10  C   UNL     1     -41.984  59.729 -52.394  1.00  0.00     0.014 A 
HETATM   11  C   UNL     1     -43.163  60.329 -52.854  1.00  0.00     0.055 A 
HETATM   12  C   UNL     1     -43.894  61.069 -51.947  1.00  0.00     0.106 A 
HETATM   13  C   UNL     1     -43.500  61.223 -50.639  1.00  0.00     0.105 A 
HETATM   14  O   UNL     1     -45.052  61.727 -52.219  1.00  0.00    -0.323 OA
HETATM   15  O   UNL     1     -44.361  61.991 -49.924  1.00  0.00    -0.323 OA
HETATM   16  C   UNL     1     -42.344  60.649 -50.159  1.00  0.00     0.040 A 
HETATM   17  C   UNL     1     -45.333  62.331 -50.935  1.00  0.00     0.352 A 
HETATM   18  C   UNL     1     -41.573  59.897 -51.052  1.00  0.00     0.018 A 
ENDBRANCH   8  10
ENDBRANCH   7   8
ENDBRANCH   4   7
BRANCH   3  19
HETATM   19  N   UNL     1     -44.157  56.752 -52.947  1.00  0.00    -0.234 N 
HETATM   20  H   UNL     1     -44.426  57.114 -52.047  1.00  0.00     0.174 HD
HETATM   21  H   UNL     1     -44.911  56.573 -53.610  1.00  0.00     0.174 HD
ENDBRANCH   3  19
BRANCH   6  22
HETATM   22  C   UNL     1     -40.820  53.151 -53.214  1.00  0.00    -0.007 A 
HETATM   23  C   UNL     1     -40.117  52.755 -52.067  1.00  0.00     0.014 A 
HETATM   24  C   UNL     1     -39.485  51.509 -52.025  1.00  0.00     0.001 A 
HETATM   25  C   UNL     1     -39.539  50.660 -53.127  1.00  0.00     0.000 A 
HETATM   26  C   UNL     1     -40.219  51.055 -54.276  1.00  0.00     0.001 A 
HETATM   27  C   UNL     1     -40.857  52.298 -54.321  1.00  0.00     0.014 A 
ENDBRANCH   6  22
TORSDOF 5
ENDMDL
MODEL 4
REMARK VINA RESULT:      -7.7      2.003      2.821
REMARK  5 active torsions:
REMARK  status: ('A' for Active; 'I' for Inactive)
REMARK    1  A    between atoms: C_3  and  N_4 
REMARK    2  A    between atoms: N_5  and  C_6 
REMARK    3  A    between atoms: C_6  and  C_7 
REMARK    4  A    between atoms: C_7  and  C_8 
REMARK    5  A    between atoms: C_19  and  C_20 
ROOT
HETATM    1  C   UNL     1     -43.267  54.576 -52.178  1.00  0.00     0.175 C 
HETATM    2  N   UNL     1     -42.946  54.532 -53.596  1.00  0.00    -0.186 N 
HETATM    3  C   UNL     1     -43.599  55.213 -54.531  1.00  0.00     0.680 C 
HETATM    4  N   UNL     1     -42.872  55.221 -55.643  1.00  0.00    -0.184 N 
HETATM    5  C   UNL     1     -41.800  54.360 -55.460  1.00  0.00     0.140 C 
HETATM    6  C   UNL     1     -41.866  53.845 -54.183  1.00  0.00     0.077 C 
ENDROOT
BRANCH   4   7
HETATM    7  C   UNL     1     -43.090  56.040 -56.854  1.00  0.00     0.231 C 
BRANCH   7   8
HETATM    8  C   UNL     1     -42.487  57.438 -56.762  1.00  0.00     0.178 C 
HETATM    9  O   UNL     1     -42.139  57.930 -55.686  1.00  0.00    -0.290 OA
BRANCH   8  10
HETATM   10  C   UNL     1     -42.265  58.207 -58.015  1.00  0.00     0.014 A 
HETATM   11  C   UNL     1     -41.981  59.578 -57.994  1.00  0.00     0.055 A 
HETATM   12  C   UNL     1     -41.813  60.210 -59.210  1.00  0.00     0.106 A 
HETATM   13  C   UNL     1     -41.914  59.538 -60.405  1.00  0.00     0.105 A 
HETATM   14  O   UNL     1     -41.545  61.532 -59.380  1.00  0.00    -0.323 OA
HETATM   15  O   UNL     1     -41.718  60.351 -61.475  1.00  0.00    -0.323 OA
HETATM   16  C   UNL     1     -42.196  58.191 -60.457  1.00  0.00     0.040 A 
HETATM   17  C   UNL     1     -41.509  61.621 -60.823  1.00  0.00     0.352 A 
HETATM   18  C   UNL     1     -42.379  57.519 -59.244  1.00  0.00     0.018 A 
ENDBRANCH   8  10
ENDBRANCH   7   8
ENDBRANCH   4   7
BRANCH   3  19
HETATM   19  N   UNL     1     -44.779  55.797 -54.355  1.00  0.00    -0.234 N 
HETATM   20  H   UNL     1     -44.888  56.619 -53.784  1.00  0.00     0.174 HD
HETATM   21  H   UNL     1     -45.619  55.243 -54.522  1.00  0.00     0.174 HD
ENDBRANCH   3  19
BRANCH   6  22
HETATM   22  C   UNL     1     -40.951  52.803 -53.606  1.00  0.00    -0.007 A 
HETATM   23  C   UNL     1     -40.688  51.625 -54.318  1.00  0.00     0.014 A 
HETATM   24  C   UNL     1     -39.847  50.648 -53.777  1.00  0.00     0.001 A 
HETATM   25  C   UNL     1     -39.276  50.835 -52.520  1.00  0.00     0.000 A 
HETATM   26  C   UNL     1     -39.549  51.995 -51.799  1.00  0.00     0.001 A 
HETATM   27  C   UNL     1     -40.385  52.976 -52.338  1.00  0.00     0.014 A 
ENDBRANCH   6  22
TORSDOF 5
ENDMDL
MODEL 5
REMARK VINA RESULT:      -7.6      2.975      5.142
REMARK  5 active torsions:
REMARK  status: ('A' for Active; 'I' for Inactive)
REMARK    1  A    between atoms: C_3  and  N_4 
REMARK    2  A    between atoms: N_5  and  C_6 
REMARK    3  A    between atoms: C_6  and  C_7 
REMARK    4  A    between atoms: C_7  and  C_8 
REMARK    5  A    between atoms: C_19  and  C_20 
ROOT
HETATM    1  C   UNL     1     -42.380  54.395 -50.142  1.00  0.00     0.175 C 
HETATM    2  N   UNL     1     -42.737  54.805 -51.491  1.00  0.00    -0.186 N 
HETATM    3  C   UNL     1     -43.651  55.726 -51.775  1.00  0.00     0.680 C 
HETATM    4  N   UNL     1     -43.506  56.100 -53.041  1.00  0.00    -0.184 N 
HETATM    5  C   UNL     1     -42.581  55.253 -53.634  1.00  0.00     0.140 C 
HETATM    6  C   UNL     1     -42.131  54.363 -52.682  1.00  0.00     0.077 C 
ENDROOT
BRANCH   4   7
HETATM    7  C   UNL     1     -44.141  57.251 -53.717  1.00  0.00     0.231 C 
BRANCH   7   8
HETATM    8  C   UNL     1     -43.179  58.401 -53.997  1.00  0.00     0.178 C 
HETATM    9  O   UNL     1     -43.187  59.014 -55.066  1.00  0.00    -0.290 OA
BRANCH   8  10
HETATM   10  C   UNL     1     -42.240  58.827 -52.926  1.00  0.00     0.014 A 
HETATM   11  C   UNL     1     -40.852  58.732 -53.085  1.00  0.00     0.055 A 
HETATM   12  C   UNL     1     -40.062  59.132 -52.026  1.00  0.00     0.106 A 
HETATM   13  C   UNL     1     -40.597  59.609 -50.852  1.00  0.00     0.105 A 
HETATM   14  O   UNL     1     -38.704  59.098 -52.000  1.00  0.00    -0.323 OA
HETATM   15  O   UNL     1     -39.643  59.939 -49.944  1.00  0.00    -0.323 OA
HETATM   16  C   UNL     1     -41.957  59.710 -50.665  1.00  0.00     0.040 A 
HETATM   17  C   UNL     1     -38.442  59.591 -50.666  1.00  0.00     0.352 A 
HETATM   18  C   UNL     1     -42.789  59.307 -51.715  1.00  0.00     0.018 A 
ENDBRANCH   8  10
ENDBRANCH   7   8
ENDBRANCH   4   7
BRANCH   3  19
HETATM   19  N   UNL     1     -44.544  56.195 -50.910  1.00  0.00    -0.234 N 
HETATM   20  H   UNL     1     -45.393  55.698 -50.697  1.00  0.00     0.174 HD
HETATM   21  H   UNL     1     -44.538  57.195 -50.706  1.00  0.00     0.174 HD
ENDBRANCH   3  19
BRANCH   6  22
HETATM   22  C   UNL     1     -41.190  53.217 -52.925  1.00  0.00    -0.007 A 
HETATM   23  C   UNL     1     -40.268  52.842 -51.938  1.00  0.00     0.014 A 
HETATM   24  C   UNL     1     -39.383  51.785 -52.166  1.00  0.00     0.001 A 
HETATM   25  C   UNL     1     -39.403  51.107 -53.383  1.00  0.00     0.000 A 
HETATM   26  C   UNL     1     -40.303  51.488 -54.375  1.00  0.00     0.001 A 
HETATM   27  C   UNL     1     -41.193  52.541 -54.149  1.00  0.00     0.014 A 
ENDBRANCH   6  22
TORSDOF 5
ENDMDL
MODEL 6
REMARK VINA RESULT:      -7.5      3.854      6.045
REMARK  5 active torsions:
REMARK  status: ('A' for Active; 'I' for Inactive)
REMARK    1  A    between atoms: C_3  and  N_4 
REMARK    2  A    between atoms: N_5  and  C_6 
REMARK    3  A    between atoms: C_6  and  C_7 
REMARK    4  A    between atoms: C_7  and  C_8 
REMARK    5  A    between atoms: C_19  and  C_20 
ROOT
HETATM    1  C   UNL     1     -39.853  54.167 -49.682  1.00  0.00     0.175 C 
HETATM    2  N   UNL     1     -40.578  54.688 -50.831  1.00  0.00    -0.186 N 
HETATM    3  C   UNL     1     -41.183  55.870 -50.859  1.00  0.00     0.680 C 
HETATM    4  N   UNL     1     -41.455  56.184 -52.121  1.00  0.00    -0.184 N 
HETATM    5  C   UNL     1     -41.173  55.077 -52.908  1.00  0.00     0.140 C 
HETATM    6  C   UNL     1     -40.682  54.077 -52.095  1.00  0.00     0.077 C 
ENDROOT
BRANCH   4   7
HETATM    7  C   UNL     1     -41.907  57.489 -52.646  1.00  0.00     0.231 C 
BRANCH   7   8
HETATM    8  C   UNL     1     -43.351  57.825 -52.286  1.00  0.00     0.178 C 
HETATM    9  O   UNL     1     -44.297  57.126 -52.656  1.00  0.00    -0.290 OA
BRANCH   8  10
HETATM   10  C   UNL     1     -43.618  59.002 -51.417  1.00  0.00     0.014 A 
HETATM   11  C   UNL     1     -44.895  59.263 -50.906  1.00  0.00     0.055 A 
HETATM   12  C   UNL     1     -45.050  60.393 -50.128  1.00  0.00     0.106 A 
HETATM   13  C   UNL     1     -44.003  61.241 -49.853  1.00  0.00     0.105 A 
HETATM   14  O   UNL     1     -46.214  60.805 -49.561  1.00  0.00    -0.323 OA
HETATM   15  O   UNL     1     -44.377  62.290 -49.076  1.00  0.00    -0.323 OA
HETATM   16  C   UNL     1     -42.738  61.013 -50.345  1.00  0.00     0.040 A 
HETATM   17  C   UNL     1     -45.787  62.025 -48.912  1.00  0.00     0.352 A 
HETATM   18  C   UNL     1     -42.545  59.881 -51.143  1.00  0.00     0.018 A 
ENDBRANCH   8  10
ENDBRANCH   7   8
ENDBRANCH   4   7
BRANCH   3  19
HETATM   19  N   UNL     1     -41.447  56.609 -49.788  1.00  0.00    -0.234 N 
HETATM   20  H   UNL     1     -42.346  56.592 -49.336  1.00  0.00     0.174 HD
HETATM   21  H   UNL     1     -40.864  57.428 -49.611  1.00  0.00     0.174 HD
ENDBRANCH   3  19
BRANCH   6  22
HETATM   22  C   UNL     1     -40.340  52.680 -52.528  1.00  0.00    -0.007 A 
HETATM   23  C   UNL     1     -39.808  51.767 -51.606  1.00  0.00     0.014 A 
HETATM   24  C   UNL     1     -39.476  50.472 -52.010  1.00  0.00     0.001 A 
HETATM   25  C   UNL     1     -39.659  50.084 -53.335  1.00  0.00     0.000 A 
HETATM   26  C   UNL     1     -40.168  50.991 -54.260  1.00  0.00     0.001 A 
HETATM   27  C   UNL     1     -40.506  52.287 -53.860  1.00  0.00     0.014 A 
ENDBRANCH   6  22
TORSDOF 5
ENDMDL
MODEL 7
REMARK VINA RESULT:      -7.5      1.954      2.527
REMARK  5 active torsions:
REMARK  status: ('A' for Active; 'I' for Inactive)
REMARK    1  A    between atoms: C_3  and  N_4 
REMARK    2  A    between atoms: N_5  and  C_6 
REMARK    3  A    between atoms: C_6  and  C_7 
REMARK    4  A    between atoms: C_7  and  C_8 
REMARK    5  A    between atoms: C_19  and  C_20 
ROOT
HETATM    1  C   UNL     1     -43.204  55.672 -51.311  1.00  0.00     0.175 C 
HETATM    2  N   UNL     1     -43.147  55.798 -52.760  1.00  0.00    -0.186 N 
HETATM    3  C   UNL     1     -43.881  56.652 -53.464  1.00  0.00     0.680 C 
HETATM    4  N   UNL     1     -43.368  56.755 -54.685  1.00  0.00    -0.184 N 
HETATM    5  C   UNL     1     -42.377  55.793 -54.815  1.00  0.00     0.140 C 
HETATM    6  C   UNL     1     -42.268  55.114 -53.620  1.00  0.00     0.077 C 
ENDROOT
BRANCH   4   7
HETATM    7  C   UNL     1     -43.710  57.748 -55.724  1.00  0.00     0.231 C 
BRANCH   7   8
HETATM    8  C   UNL     1     -43.043  57.480 -57.069  1.00  0.00     0.178 C 
HETATM    9  O   UNL     1     -41.836  57.656 -57.247  1.00  0.00    -0.290 OA
BRANCH   8  10
HETATM   10  C   UNL     1     -43.867  56.939 -58.183  1.00  0.00     0.014 A 
HETATM   11  C   UNL     1     -45.081  57.530 -58.553  1.00  0.00     0.055 A 
HETATM   12  C   UNL     1     -45.785  56.942 -59.584  1.00  0.00     0.106 A 
HETATM   13  C   UNL     1     -45.330  55.820 -60.237  1.00  0.00     0.105 A 
HETATM   14  O   UNL     1     -46.981  57.372 -60.067  1.00  0.00    -0.323 OA
HETATM   15  O   UNL     1     -46.179  55.408 -61.212  1.00  0.00    -0.323 OA
HETATM   16  C   UNL     1     -44.143  55.215 -59.892  1.00  0.00     0.040 A 
HETATM   17  C   UNL     1     -47.239  56.380 -61.087  1.00  0.00     0.352 A 
HETATM   18  C   UNL     1     -43.405  55.779 -58.846  1.00  0.00     0.018 A 
ENDBRANCH   8  10
ENDBRANCH   7   8
ENDBRANCH   4   7
BRANCH   3  19
HETATM   19  N   UNL     1     -44.943  57.300 -52.997  1.00  0.00    -0.234 N 
HETATM   20  H   UNL     1     -45.693  56.824 -52.524  1.00  0.00     0.174 HD
HETATM   21  H   UNL     1     -45.161  58.215 -53.392  1.00  0.00     0.174 HD
ENDBRANCH   3  19
BRANCH   6  22
HETATM   22  C   UNL     1     -41.379  53.931 -53.358  1.00  0.00    -0.007 A 
HETATM   23  C   UNL     1     -41.191  52.958 -54.349  1.00  0.00     0.014 A 
HETATM   24  C   UNL     1     -40.376  51.851 -54.103  1.00  0.00     0.001 A 
HETATM   25  C   UNL     1     -39.755  51.701 -52.865  1.00  0.00     0.000 A 
HETATM   26  C   UNL     1     -39.954  52.653 -51.869  1.00  0.00     0.001 A 
HETATM   27  C   UNL     1     -40.764  53.765 -52.113  1.00  0.00     0.014 A 
ENDBRANCH   6  22
TORSDOF 5
ENDMDL
MODEL 8
REMARK VINA RESULT:      -7.3     14.795     16.640
REMARK  5 active torsions:
REMARK  status: ('A' for Active; 'I' for Inactive)
REMARK    1  A    between atoms: C_3  and  N_4 
REMARK    2  A    between atoms: N_5  and  C_6 
REMARK    3  A    between atoms: C_6  and  C_7 
REMARK    4  A    between atoms: C_7  and  C_8 
REMARK    5  A    between atoms: C_19  and  C_20 
ROOT
HETATM    1  C   UNL     1     -32.766  39.332 -55.076  1.00  0.00     0.175 C 
HETATM    2  N   UNL     1     -33.722  40.367 -54.715  1.00  0.00    -0.186 N 
HETATM    3  C   UNL     1     -34.385  41.110 -55.594  1.00  0.00     0.680 C 
HETATM    4  N   UNL     1     -35.396  41.709 -54.976  1.00  0.00    -0.184 N 
HETATM    5  C   UNL     1     -35.263  41.477 -53.614  1.00  0.00     0.140 C 
HETATM    6  C   UNL     1     -34.153  40.684 -53.413  1.00  0.00     0.077 C 
ENDROOT
BRANCH   4   7
HETATM    7  C   UNL     1     -36.523  42.438 -55.593  1.00  0.00     0.231 C 
BRANCH   7   8
HETATM    8  C   UNL     1     -37.654  41.530 -56.064  1.00  0.00     0.178 C 
HETATM    9  O   UNL     1     -38.589  41.213 -55.325  1.00  0.00    -0.290 OA
BRANCH   8  10
HETATM   10  C   UNL     1     -37.654  41.056 -57.473  1.00  0.00     0.014 A 
HETATM   11  C   UNL     1     -38.057  39.759 -57.812  1.00  0.00     0.055 A 
HETATM   12  C   UNL     1     -38.000  39.404 -59.145  1.00  0.00     0.106 A 
HETATM   13  C   UNL     1     -37.569  40.275 -60.118  1.00  0.00     0.105 A 
HETATM   14  O   UNL     1     -38.342  38.189 -59.651  1.00  0.00    -0.323 OA
HETATM   15  O   UNL     1     -37.589  39.720 -61.356  1.00  0.00    -0.323 OA
HETATM   16  C   UNL     1     -37.163  41.554 -59.814  1.00  0.00     0.040 A 
HETATM   17  C   UNL     1     -38.056  38.387 -61.055  1.00  0.00     0.352 A 
HETATM   18  C   UNL     1     -37.200  41.948 -58.472  1.00  0.00     0.018 A 
ENDBRANCH   8  10
ENDBRANCH   7   8
ENDBRANCH   4   7
BRANCH   3  19
HETATM   19  N   UNL     1     -34.077  41.210 -56.882  1.00  0.00    -0.234 N 
HETATM   20  H   UNL     1     -34.213  40.447 -57.525  1.00  0.00     0.174 HD
HETATM   21  H   UNL     1     -33.410  41.929 -57.164  1.00  0.00     0.174 HD
ENDBRANCH   3  19
BRANCH   6  22
HETATM   22  C   UNL     1     -33.595  40.273 -52.080  1.00  0.00    -0.007 A 
HETATM   23  C   UNL     1     -34.453  39.826 -51.065  1.00  0.00     0.014 A 
HETATM   24  C   UNL     1     -33.939  39.457 -49.820  1.00  0.00     0.001 A 
HETATM   25  C   UNL     1     -32.570  39.543 -49.576  1.00  0.00     0.000 A 
HETATM   26  C   UNL     1     -31.715  40.004 -50.573  1.00  0.00     0.001 A 
HETATM   27  C   UNL     1     -32.224  40.370 -51.821  1.00  0.00     0.014 A 
ENDBRANCH   6  22
TORSDOF 5
ENDMDL
MODEL 9
REMARK VINA RESULT:      -7.2      3.892      7.466
REMARK  5 active torsions:
REMARK  status: ('A' for Active; 'I' for Inactive)
REMARK    1  A    between atoms: C_3  and  N_4 
REMARK    2  A    between atoms: N_5  and  C_6 
REMARK    3  A    between atoms: C_6  and  C_7 
REMARK    4  A    between atoms: C_7  and  C_8 
REMARK    5  A    between atoms: C_19  and  C_20 
ROOT
HETATM    1  C   UNL     1     -45.152  59.809 -54.406  1.00  0.00     0.175 C 
HETATM    2  N   UNL     1     -44.739  58.579 -53.748  1.00  0.00    -0.186 N 
HETATM    3  C   UNL     1     -44.672  57.396 -54.350  1.00  0.00     0.680 C 
HETATM    4  N   UNL     1     -43.961  56.568 -53.592  1.00  0.00    -0.184 N 
HETATM    5  C   UNL     1     -43.720  57.198 -52.380  1.00  0.00     0.140 C 
HETATM    6  C   UNL     1     -44.275  58.459 -52.425  1.00  0.00     0.077 C 
ENDROOT
BRANCH   4   7
HETATM    7  C   UNL     1     -43.436  55.237 -53.962  1.00  0.00     0.231 C 
BRANCH   7   8
HETATM    8  C   UNL     1     -41.914  55.182 -54.047  1.00  0.00     0.178 C 
HETATM    9  O   UNL     1     -41.249  56.129 -54.472  1.00  0.00    -0.290 OA
BRANCH   8  10
HETATM   10  C   UNL     1     -41.212  53.969 -53.551  1.00  0.00     0.014 A 
HETATM   11  C   UNL     1     -41.074  52.825 -54.345  1.00  0.00     0.055 A 
HETATM   12  C   UNL     1     -40.426  51.740 -53.789  1.00  0.00     0.106 A 
HETATM   13  C   UNL     1     -39.926  51.763 -52.508  1.00  0.00     0.105 A 
HETATM   14  O   UNL     1     -40.212  50.548 -54.407  1.00  0.00    -0.323 OA
HETATM   15  O   UNL     1     -39.332  50.592 -52.162  1.00  0.00    -0.323 OA
HETATM   16  C   UNL     1     -40.049  52.872 -51.703  1.00  0.00     0.040 A 
HETATM   17  C   UNL     1     -39.537  49.813 -53.360  1.00  0.00     0.352 A 
HETATM   18  C   UNL     1     -40.707  53.988 -52.230  1.00  0.00     0.018 A 
ENDBRANCH   8  10
ENDBRANCH   7   8
ENDBRANCH   4   7
BRANCH   3  19
HETATM   19  N   UNL     1     -45.220  57.115 -55.526  1.00  0.00    -0.234 N 
HETATM   20  H   UNL     1     -44.732  56.587 -56.231  1.00  0.00     0.174 HD
HETATM   21  H   UNL     1     -45.994  57.697 -55.848  1.00  0.00     0.174 HD
ENDBRANCH   3  19
BRANCH   6  22
HETATM   22  C   UNL     1     -44.324  59.440 -51.288  1.00  0.00    -0.007 A 
HETATM   23  C   UNL     1     -45.487  59.566 -50.515  1.00  0.00     0.014 A 
HETATM   24  C   UNL     1     -45.538  60.487 -49.466  1.00  0.00     0.001 A 
HETATM   25  C   UNL     1     -44.439  61.295 -49.190  1.00  0.00     0.000 A 
HETATM   26  C   UNL     1     -43.287  61.190 -49.967  1.00  0.00     0.001 A 
HETATM   27  C   UNL     1     -43.229  60.266 -51.014  1.00  0.00     0.014 A 
ENDBRANCH   6  22
TORSDOF 5
ENDMDL
MODEL 10
REMARK VINA RESULT:      -7.2     15.206     17.014
REMARK  5 active torsions:
REMARK  status: ('A' for Active; 'I' for Inactive)
REMARK    1  A    between atoms: C_3  and  N_4 
REMARK    2  A    between atoms: N_5  and  C_6 
REMARK    3  A    between atoms: C_6  and  C_7 
REMARK    4  A    between atoms: C_7  and  C_8 
REMARK    5  A    between atoms: C_19  and  C_20 
ROOT
HETATM    1  C   UNL     1     -32.023  38.558 -52.161  1.00  0.00     0.175 C 
HETATM    2  N   UNL     1     -32.850  39.687 -51.763  1.00  0.00    -0.186 N 
HETATM    3  C   UNL     1     -33.352  40.580 -52.608  1.00  0.00     0.680 C 
HETATM    4  N   UNL     1     -34.308  41.266 -51.991  1.00  0.00    -0.184 N 
HETATM    5  C   UNL     1     -34.287  40.916 -50.648  1.00  0.00     0.140 C 
HETATM    6  C   UNL     1     -33.308  39.963 -50.461  1.00  0.00     0.077 C 
ENDROOT
BRANCH   4   7
HETATM    7  C   UNL     1     -35.288  42.190 -52.599  1.00  0.00     0.231 C 
BRANCH   7   8
HETATM    8  C   UNL     1     -36.428  41.481 -53.323  1.00  0.00     0.178 C 
HETATM    9  O   UNL     1     -37.313  40.876 -52.714  1.00  0.00    -0.290 OA
BRANCH   8  10
HETATM   10  C   UNL     1     -36.501  41.569 -54.805  1.00  0.00     0.014 A 
HETATM   11  C   UNL     1     -37.520  40.939 -55.529  1.00  0.00     0.055 A 
HETATM   12  C   UNL     1     -37.490  41.060 -56.904  1.00  0.00     0.106 A 
HETATM   13  C   UNL     1     -36.509  41.767 -57.557  1.00  0.00     0.105 A 
HETATM   14  O   UNL     1     -38.388  40.508 -57.762  1.00  0.00    -0.323 OA
HETATM   15  O   UNL     1     -36.668  41.753 -58.905  1.00  0.00    -0.323 OA
HETATM   16  C   UNL     1     -35.492  42.394 -56.872  1.00  0.00     0.040 A 
HETATM   17  C   UNL     1     -37.848  40.932 -59.035  1.00  0.00     0.352 A 
HETATM   18  C   UNL     1     -35.485  42.287 -55.477  1.00  0.00     0.018 A 
ENDBRANCH   8  10
ENDBRANCH   7   8
ENDBRANCH   4   7
BRANCH   3  19
HETATM   19  N   UNL     1     -32.959  40.732 -53.868  1.00  0.00    -0.234 N 
HETATM   20  H   UNL     1     -33.127  40.029 -54.568  1.00  0.00     0.174 HD
HETATM   21  H   UNL     1     -32.213  41.400 -54.061  1.00  0.00     0.174 HD
ENDBRANCH   3  19
BRANCH   6  22
HETATM   22  C   UNL     1     -32.891  39.379 -49.141  1.00  0.00    -0.007 A 
HETATM   23  C   UNL     1     -31.683  39.772 -48.548  1.00  0.00     0.014 A 
HETATM   24  C   UNL     1     -31.286  39.221 -47.328  1.00  0.00     0.001 A 
HETATM   25  C   UNL     1     -32.082  38.266 -46.699  1.00  0.00     0.000 A 
HETATM   26  C   UNL     1     -33.273  37.857 -47.293  1.00  0.00     0.001 A 
HETATM   27  C   UNL     1     -33.677  38.409 -48.511  1.00  0.00     0.014 A 
ENDBRANCH   6  22
TORSDOF 5
ENDMDL
