MODEL 1
REMARK VINA RESULT:      -8.6      0.000      0.000
REMARK  6 active torsions:
REMARK  status: ('A' for Active; 'I' for Inactive)
REMARK    1  A    between atoms: C_5  and  N_6 
REMARK    2  A    between atoms: N_6  and  C_7 
REMARK    3  A    between atoms: C_7  and  N_8 
REMARK    4  A    between atoms: C_11  and  C_12 
REMARK    5  A    between atoms: N_14  and  C_15 
REMARK    6  A    between atoms: C_21  and  O_22 
ROOT
HETATM    1  N   UNL     1     -42.654  56.512 -52.520  1.00  0.00    -0.358 N 
HETATM    2  C   UNL     1     -43.942  56.465 -53.228  1.00  0.00     0.126 C 
HETATM    3  C   UNL     1     -44.482  57.860 -53.536  1.00  0.00     0.031 C 
HETATM    4  C   UNL     1     -43.447  58.752 -54.244  1.00  0.00     0.043 C 
HETATM    5  C   UNL     1     -42.137  58.736 -53.438  1.00  0.00     0.031 C 
HETATM    6  C   UNL     1     -41.635  57.314 -53.202  1.00  0.00     0.126 C 
ENDROOT
BRANCH   4   7
HETATM    7  C   UNL     1     -43.228  58.427 -55.704  1.00  0.00     0.063 C 
HETATM    8  N   UNL     1     -44.138  57.756 -56.418  1.00  0.00    -0.169 NA
HETATM    9  N   UNL     1     -43.586  57.606 -57.655  1.00  0.00    -0.211 N 
HETATM   10  C   UNL     1     -42.419  58.361 -57.773  1.00  0.00     0.165 C 
HETATM   11  C   UNL     1     -42.141  58.828 -56.512  1.00  0.00     0.087 C 
BRANCH   9  12
HETATM   12  C   UNL     1     -44.213  56.766 -58.620  1.00  0.00     0.061 A 
HETATM   13  C   UNL     1     -45.426  57.172 -59.196  1.00  0.00     0.031 A 
HETATM   14  C   UNL     1     -46.048  56.375 -60.159  1.00  0.00     0.002 A 
HETATM   15  C   UNL     1     -45.478  55.161 -60.536  1.00  0.00     0.000 A 
HETATM   16  C   UNL     1     -44.291  54.734 -59.942  1.00  0.00     0.002 A 
HETATM   17  C   UNL     1     -43.659  55.531 -58.983  1.00  0.00     0.031 A 
ENDBRANCH   9  12
BRANCH  10  18
HETATM   18  O   UNL     1     -41.759  58.607 -58.905  1.00  0.00    -0.345 OA
HETATM   19  H   UNL     1     -42.223  58.163 -59.637  1.00  0.00     0.219 HD
ENDBRANCH  10  18
ENDBRANCH   4   7
BRANCH   1  20
HETATM   20  C   UNL     1     -42.290  55.388 -51.791  1.00  0.00     0.174 C 
HETATM   21  S   UNL     1     -43.241  54.650 -50.617  1.00  0.00    -0.041 SA
BRANCH  20  22
HETATM   22  N   UNL     1     -41.041  54.862 -51.984  1.00  0.00    -0.333 N 
HETATM   23  H   UNL     1     -40.316  55.386 -51.506  1.00  0.00     0.168 HD
BRANCH  22  24
HETATM   24  C   UNL     1     -40.634  53.614 -52.503  1.00  0.00     0.034 A 
HETATM   25  C   UNL     1     -39.878  52.681 -51.792  1.00  0.00     0.030 A 
HETATM   26  C   UNL     1     -39.496  51.472 -52.383  1.00  0.00     0.009 A 
HETATM   27  C   UNL     1     -39.839  51.189 -53.708  1.00  0.00    -0.062 A 
HETATM   28  C   UNL     1     -39.460  49.881 -54.335  1.00  0.00     0.048 C 
HETATM   29  C   UNL     1     -40.581  52.130 -54.429  1.00  0.00     0.009 A 
HETATM   30  C   UNL     1     -40.965  53.336 -53.834  1.00  0.00     0.030 A 
ENDBRANCH  22  24
ENDBRANCH  20  22
ENDBRANCH   1  20
TORSDOF 6
ENDMDL
MODEL 2
REMARK VINA RESULT:      -8.3      1.583      1.993
REMARK  6 active torsions:
REMARK  status: ('A' for Active; 'I' for Inactive)
REMARK    1  A    between atoms: C_5  and  N_6 
REMARK    2  A    between atoms: N_6  and  C_7 
REMARK    3  A    between atoms: C_7  and  N_8 
REMARK    4  A    between atoms: C_11  and  C_12 
REMARK    5  A    between atoms: N_14  and  C_15 
REMARK    6  A    between atoms: C_21  and  O_22 
ROOT
HETATM    1  N   UNL     1     -41.734  56.876 -52.065  1.00  0.00    -0.358 N 
HETATM    2  C   UNL     1     -42.933  57.726 -52.116  1.00  0.00     0.126 C 
HETATM    3  C   UNL     1     -42.582  59.212 -52.176  1.00  0.00     0.031 C 
HETATM    4  C   UNL     1     -41.574  59.538 -53.292  1.00  0.00     0.043 C 
HETATM    5  C   UNL     1     -40.362  58.598 -53.161  1.00  0.00     0.031 C 
HETATM    6  C   UNL     1     -40.782  57.132 -53.148  1.00  0.00     0.126 C 
ENDROOT
BRANCH   4   7
HETATM    7  C   UNL     1     -42.155  59.537 -54.687  1.00  0.00     0.063 C 
HETATM    8  N   UNL     1     -42.118  58.448 -55.462  1.00  0.00    -0.169 NA
HETATM    9  N   UNL     1     -42.678  58.828 -56.644  1.00  0.00    -0.211 N 
HETATM   10  C   UNL     1     -43.252  60.095 -56.537  1.00  0.00     0.165 C 
HETATM   11  C   UNL     1     -42.858  60.587 -55.317  1.00  0.00     0.087 C 
BRANCH   9  12
HETATM   12  C   UNL     1     -42.629  57.958 -57.771  1.00  0.00     0.061 A 
HETATM   13  C   UNL     1     -41.937  58.366 -58.921  1.00  0.00     0.031 A 
HETATM   14  C   UNL     1     -41.858  57.521 -60.030  1.00  0.00     0.002 A 
HETATM   15  C   UNL     1     -42.486  56.278 -60.008  1.00  0.00     0.000 A 
HETATM   16  C   UNL     1     -43.206  55.881 -58.882  1.00  0.00     0.002 A 
HETATM   17  C   UNL     1     -43.282  56.718 -57.766  1.00  0.00     0.031 A 
ENDBRANCH   9  12
BRANCH  10  18
HETATM   18  O   UNL     1     -44.059  60.666 -57.432  1.00  0.00    -0.345 OA
HETATM   19  H   UNL     1     -43.891  61.625 -57.434  1.00  0.00     0.219 HD
ENDBRANCH  10  18
ENDBRANCH   4   7
BRANCH   1  20
HETATM   20  C   UNL     1     -41.890  55.593 -51.555  1.00  0.00     0.174 C 
HETATM   21  S   UNL     1     -43.321  54.970 -50.931  1.00  0.00    -0.041 SA
BRANCH  20  22
HETATM   22  N   UNL     1     -40.791  54.780 -51.490  1.00  0.00    -0.333 N 
HETATM   23  H   UNL     1     -40.187  54.999 -50.705  1.00  0.00     0.168 HD
BRANCH  22  24
HETATM   24  C   UNL     1     -40.496  53.570 -52.154  1.00  0.00     0.034 A 
HETATM   25  C   UNL     1     -39.807  52.506 -51.570  1.00  0.00     0.030 A 
HETATM   26  C   UNL     1     -39.535  51.345 -52.300  1.00  0.00     0.009 A 
HETATM   27  C   UNL     1     -39.923  51.240 -53.639  1.00  0.00    -0.062 A 
HETATM   28  C   UNL     1     -39.662  49.984 -54.416  1.00  0.00     0.048 C 
HETATM   29  C   UNL     1     -40.597  52.311 -54.232  1.00  0.00     0.009 A 
HETATM   30  C   UNL     1     -40.871  53.469 -53.498  1.00  0.00     0.030 A 
ENDBRANCH  22  24
ENDBRANCH  20  22
ENDBRANCH   1  20
TORSDOF 6
ENDMDL
MODEL 3
REMARK VINA RESULT:      -8.3      2.769      6.944
REMARK  6 active torsions:
REMARK  status: ('A' for Active; 'I' for Inactive)
REMARK    1  A    between atoms: C_5  and  N_6 
REMARK    2  A    between atoms: N_6  and  C_7 
REMARK    3  A    between atoms: C_7  and  N_8 
REMARK    4  A    between atoms: C_11  and  C_12 
REMARK    5  A    between atoms: N_14  and  C_15 
REMARK    6  A    between atoms: C_21  and  O_22 
ROOT
HETATM    1  N   UNL     1     -42.472  59.590 -54.343  1.00  0.00    -0.358 N 
HETATM    2  C   UNL     1     -41.230  58.902 -53.958  1.00  0.00     0.126 C 
HETATM    3  C   UNL     1     -41.019  58.898 -52.446  1.00  0.00     0.031 C 
HETATM    4  C   UNL     1     -42.249  58.380 -51.677  1.00  0.00     0.043 C 
HETATM    5  C   UNL     1     -43.494  59.152 -52.149  1.00  0.00     0.031 C 
HETATM    6  C   UNL     1     -43.664  59.080 -53.663  1.00  0.00     0.126 C 
ENDROOT
BRANCH   4   7
HETATM    7  C   UNL     1     -42.444  56.883 -51.735  1.00  0.00     0.063 C 
HETATM    8  N   UNL     1     -41.427  56.051 -51.986  1.00  0.00    -0.169 NA
HETATM    9  N   UNL     1     -41.978  54.806 -52.011  1.00  0.00    -0.211 N 
HETATM   10  C   UNL     1     -43.302  54.839 -51.572  1.00  0.00     0.165 C 
HETATM   11  C   UNL     1     -43.632  56.168 -51.466  1.00  0.00     0.087 C 
BRANCH   9  12
HETATM   12  C   UNL     1     -41.204  53.690 -52.441  1.00  0.00     0.061 A 
HETATM   13  C   UNL     1     -41.301  53.263 -53.774  1.00  0.00     0.031 A 
HETATM   14  C   UNL     1     -40.537  52.184 -54.223  1.00  0.00     0.002 A 
HETATM   15  C   UNL     1     -39.690  51.513 -53.344  1.00  0.00     0.000 A 
HETATM   16  C   UNL     1     -39.615  51.909 -52.010  1.00  0.00     0.002 A 
HETATM   17  C   UNL     1     -40.371  52.993 -51.555  1.00  0.00     0.031 A 
ENDBRANCH   9  12
BRANCH  10  18
HETATM   18  O   UNL     1     -44.053  53.779 -51.272  1.00  0.00    -0.345 OA
HETATM   19  H   UNL     1     -44.061  53.669 -50.304  1.00  0.00     0.219 HD
ENDBRANCH  10  18
ENDBRANCH   4   7
BRANCH   1  20
HETATM   20  C   UNL     1     -42.555  60.065 -55.645  1.00  0.00     0.174 C 
HETATM   21  S   UNL     1     -43.316  61.491 -56.106  1.00  0.00    -0.041 SA
BRANCH  20  22
HETATM   22  N   UNL     1     -42.036  59.297 -56.653  1.00  0.00    -0.333 N 
HETATM   23  H   UNL     1     -41.049  59.471 -56.810  1.00  0.00     0.168 HD
BRANCH  22  24
HETATM   24  C   UNL     1     -42.559  58.166 -57.316  1.00  0.00     0.034 A 
HETATM   25  C   UNL     1     -42.515  56.870 -56.801  1.00  0.00     0.030 A 
HETATM   26  C   UNL     1     -43.037  55.794 -57.527  1.00  0.00     0.009 A 
HETATM   27  C   UNL     1     -43.585  55.994 -58.797  1.00  0.00    -0.062 A 
HETATM   28  C   UNL     1     -44.175  54.850 -59.566  1.00  0.00     0.048 C 
HETATM   29  C   UNL     1     -43.613  57.289 -59.324  1.00  0.00     0.009 A 
HETATM   30  C   UNL     1     -43.094  58.362 -58.593  1.00  0.00     0.030 A 
ENDBRANCH  22  24
ENDBRANCH  20  22
ENDBRANCH   1  20
TORSDOF 6
ENDMDL
MODEL 4
REMARK VINA RESULT:      -7.8      1.163      1.924
REMARK  6 active torsions:
REMARK  status: ('A' for Active; 'I' for Inactive)
REMARK    1  A    between atoms: C_5  and  N_6 
REMARK    2  A    between atoms: N_6  and  C_7 
REMARK    3  A    between atoms: C_7  and  N_8 
REMARK    4  A    between atoms: C_11  and  C_12 
REMARK    5  A    between atoms: N_14  and  C_15 
REMARK    6  A    between atoms: C_21  and  O_22 
ROOT
HETATM    1  N   UNL     1     -42.551  58.107 -52.960  1.00  0.00    -0.358 N 
HETATM    2  C   UNL     1     -43.819  57.775 -53.629  1.00  0.00     0.126 C 
HETATM    3  C   UNL     1     -44.463  58.997 -54.280  1.00  0.00     0.031 C 
HETATM    4  C   UNL     1     -43.491  59.763 -55.195  1.00  0.00     0.043 C 
HETATM    5  C   UNL     1     -42.198  60.060 -54.415  1.00  0.00     0.031 C 
HETATM    6  C   UNL     1     -41.589  58.790 -53.827  1.00  0.00     0.126 C 
ENDROOT
BRANCH   4   7
HETATM    7  C   UNL     1     -43.220  59.097 -56.525  1.00  0.00     0.063 C 
HETATM    8  N   UNL     1     -44.131  58.320 -57.120  1.00  0.00    -0.169 NA
HETATM    9  N   UNL     1     -43.529  57.861 -58.252  1.00  0.00    -0.211 N 
HETATM   10  C   UNL     1     -42.315  58.515 -58.470  1.00  0.00     0.165 C 
HETATM   11  C   UNL     1     -42.073  59.250 -57.335  1.00  0.00     0.087 C 
BRANCH   9  12
HETATM   12  C   UNL     1     -44.155  56.849 -59.035  1.00  0.00     0.061 A 
HETATM   13  C   UNL     1     -43.599  55.561 -59.060  1.00  0.00     0.031 A 
HETATM   14  C   UNL     1     -44.207  54.548 -59.804  1.00  0.00     0.002 A 
HETATM   15  C   UNL     1     -45.357  54.817 -60.543  1.00  0.00     0.000 A 
HETATM   16  C   UNL     1     -45.894  56.103 -60.551  1.00  0.00     0.002 A 
HETATM   17  C   UNL     1     -45.295  57.120 -59.803  1.00  0.00     0.031 A 
ENDBRANCH   9  12
BRANCH  10  18
HETATM   18  O   UNL     1     -41.587  58.460 -59.585  1.00  0.00    -0.345 OA
HETATM   19  H   UNL     1     -41.494  57.527 -59.849  1.00  0.00     0.219 HD
ENDBRANCH  10  18
ENDBRANCH   4   7
BRANCH   1  20
HETATM   20  C   UNL     1     -42.112  57.238 -51.970  1.00  0.00     0.174 C 
HETATM   21  S   UNL     1     -41.061  57.649 -50.724  1.00  0.00    -0.041 SA
BRANCH  20  22
HETATM   22  N   UNL     1     -42.505  55.929 -52.030  1.00  0.00    -0.333 N 
HETATM   23  H   UNL     1     -43.473  55.797 -51.755  1.00  0.00     0.168 HD
BRANCH  22  24
HETATM   24  C   UNL     1     -41.895  54.807 -52.631  1.00  0.00     0.034 A 
HETATM   25  C   UNL     1     -42.123  54.405 -53.947  1.00  0.00     0.030 A 
HETATM   26  C   UNL     1     -41.495  53.268 -54.466  1.00  0.00     0.009 A 
HETATM   27  C   UNL     1     -40.650  52.495 -53.665  1.00  0.00    -0.062 A 
HETATM   28  C   UNL     1     -39.949  51.294 -54.226  1.00  0.00     0.048 C 
HETATM   29  C   UNL     1     -40.434  52.884 -52.340  1.00  0.00     0.009 A 
HETATM   30  C   UNL     1     -41.060  54.024 -51.825  1.00  0.00     0.030 A 
ENDBRANCH  22  24
ENDBRANCH  20  22
ENDBRANCH   1  20
TORSDOF 6
ENDMDL
MODEL 5
REMARK VINA RESULT:      -7.8      2.171      3.466
REMARK  6 active torsions:
REMARK  status: ('A' for Active; 'I' for Inactive)
REMARK    1  A    between atoms: C_5  and  N_6 
REMARK    2  A    between atoms: N_6  and  C_7 
REMARK    3  A    between atoms: C_7  and  N_8 
REMARK    4  A    between atoms: C_11  and  C_12 
REMARK    5  A    between atoms: N_14  and  C_15 
REMARK    6  A    between atoms: C_21  and  O_22 
ROOT
HETATM    1  N   UNL     1     -43.245  56.945 -53.108  1.00  0.00    -0.358 N 
HETATM    2  C   UNL     1     -44.004  56.429 -54.257  1.00  0.00     0.126 C 
HETATM    3  C   UNL     1     -44.975  57.466 -54.819  1.00  0.00     0.031 C 
HETATM    4  C   UNL     1     -44.296  58.816 -55.112  1.00  0.00     0.043 C 
HETATM    5  C   UNL     1     -43.526  59.271 -53.860  1.00  0.00     0.031 C 
HETATM    6  C   UNL     1     -42.547  58.204 -53.380  1.00  0.00     0.126 C 
ENDROOT
BRANCH   4   7
HETATM    7  C   UNL     1     -43.436  58.831 -56.355  1.00  0.00     0.063 C 
HETATM    8  N   UNL     1     -42.864  59.955 -56.800  1.00  0.00    -0.169 NA
HETATM    9  N   UNL     1     -42.220  59.602 -57.947  1.00  0.00    -0.211 N 
HETATM   10  C   UNL     1     -42.218  58.217 -58.109  1.00  0.00     0.165 C 
HETATM   11  C   UNL     1     -43.055  57.721 -57.140  1.00  0.00     0.087 C 
BRANCH   9  12
HETATM   12  C   UNL     1     -41.656  60.605 -58.788  1.00  0.00     0.061 A 
HETATM   13  C   UNL     1     -40.811  61.573 -58.226  1.00  0.00     0.031 A 
HETATM   14  C   UNL     1     -40.231  62.554 -59.034  1.00  0.00     0.002 A 
HETATM   15  C   UNL     1     -40.507  62.588 -60.399  1.00  0.00     0.000 A 
HETATM   16  C   UNL     1     -41.375  61.650 -60.958  1.00  0.00     0.002 A 
HETATM   17  C   UNL     1     -41.953  60.662 -60.156  1.00  0.00     0.031 A 
ENDBRANCH   9  12
BRANCH  10  18
HETATM   18  O   UNL     1     -41.496  57.535 -59.000  1.00  0.00    -0.345 OA
HETATM   19  H   UNL     1     -40.566  57.533 -58.709  1.00  0.00     0.219 HD
ENDBRANCH  10  18
ENDBRANCH   4   7
BRANCH   1  20
HETATM   20  C   UNL     1     -42.696  56.010 -52.241  1.00  0.00     0.174 C 
HETATM   21  S   UNL     1     -43.440  55.432 -50.849  1.00  0.00    -0.041 SA
BRANCH  20  22
HETATM   22  N   UNL     1     -41.428  55.557 -52.488  1.00  0.00    -0.333 N 
HETATM   23  H   UNL     1     -40.714  56.220 -52.207  1.00  0.00     0.168 HD
BRANCH  22  24
HETATM   24  C   UNL     1     -40.954  54.270 -52.818  1.00  0.00     0.034 A 
HETATM   25  C   UNL     1     -40.375  53.392 -51.902  1.00  0.00     0.030 A 
HETATM   26  C   UNL     1     -39.910  52.137 -52.310  1.00  0.00     0.009 A 
HETATM   27  C   UNL     1     -39.990  51.752 -53.651  1.00  0.00    -0.062 A 
HETATM   28  C   UNL     1     -39.522  50.396 -54.088  1.00  0.00     0.048 C 
HETATM   29  C   UNL     1     -40.552  52.637 -54.575  1.00  0.00     0.009 A 
HETATM   30  C   UNL     1     -41.020  53.889 -54.163  1.00  0.00     0.030 A 
ENDBRANCH  22  24
ENDBRANCH  20  22
ENDBRANCH   1  20
TORSDOF 6
ENDMDL
MODEL 6
REMARK VINA RESULT:      -7.7      4.465      7.075
REMARK  6 active torsions:
REMARK  status: ('A' for Active; 'I' for Inactive)
REMARK    1  A    between atoms: C_5  and  N_6 
REMARK    2  A    between atoms: N_6  and  C_7 
REMARK    3  A    between atoms: C_7  and  N_8 
REMARK    4  A    between atoms: C_11  and  C_12 
REMARK    5  A    between atoms: N_14  and  C_15 
REMARK    6  A    between atoms: C_21  and  O_22 
ROOT
HETATM    1  N   UNL     1     -41.262  56.679 -51.257  1.00  0.00    -0.358 N 
HETATM    2  C   UNL     1     -40.896  57.745 -50.312  1.00  0.00     0.126 C 
HETATM    3  C   UNL     1     -40.227  58.928 -51.010  1.00  0.00     0.031 C 
HETATM    4  C   UNL     1     -41.043  59.448 -52.207  1.00  0.00     0.043 C 
HETATM    5  C   UNL     1     -41.382  58.266 -53.132  1.00  0.00     0.031 C 
HETATM    6  C   UNL     1     -42.083  57.140 -52.378  1.00  0.00     0.126 C 
ENDROOT
BRANCH   4   7
HETATM    7  C   UNL     1     -42.264  60.256 -51.834  1.00  0.00     0.063 C 
HETATM    8  N   UNL     1     -42.324  60.953 -50.695  1.00  0.00    -0.169 NA
HETATM    9  N   UNL     1     -43.570  61.502 -50.673  1.00  0.00    -0.211 N 
HETATM   10  C   UNL     1     -44.216  61.316 -51.895  1.00  0.00     0.165 C 
HETATM   11  C   UNL     1     -43.423  60.458 -52.616  1.00  0.00     0.087 C 
BRANCH   9  12
HETATM   12  C   UNL     1     -44.041  62.161 -49.501  1.00  0.00     0.061 A 
HETATM   13  C   UNL     1     -43.880  63.550 -49.384  1.00  0.00     0.031 A 
HETATM   14  C   UNL     1     -44.351  64.219 -48.253  1.00  0.00     0.002 A 
HETATM   15  C   UNL     1     -44.965  63.508 -47.225  1.00  0.00     0.000 A 
HETATM   16  C   UNL     1     -45.097  62.123 -47.317  1.00  0.00     0.002 A 
HETATM   17  C   UNL     1     -44.634  61.447 -48.450  1.00  0.00     0.031 A 
ENDBRANCH   9  12
BRANCH  10  18
HETATM   18  O   UNL     1     -45.347  61.908 -52.279  1.00  0.00    -0.345 OA
HETATM   19  H   UNL     1     -45.421  61.838 -53.248  1.00  0.00     0.219 HD
ENDBRANCH  10  18
ENDBRANCH   4   7
BRANCH   1  20
HETATM   20  C   UNL     1     -41.438  55.404 -50.735  1.00  0.00     0.174 C 
HETATM   21  S   UNL     1     -41.058  54.944 -49.163  1.00  0.00    -0.041 SA
BRANCH  20  22
HETATM   22  N   UNL     1     -41.899  54.418 -51.565  1.00  0.00    -0.333 N 
HETATM   23  H   UNL     1     -42.839  54.598 -51.903  1.00  0.00     0.168 HD
BRANCH  22  24
HETATM   24  C   UNL     1     -41.222  53.361 -52.210  1.00  0.00     0.034 A 
HETATM   25  C   UNL     1     -40.263  52.557 -51.595  1.00  0.00     0.030 A 
HETATM   26  C   UNL     1     -39.619  51.540 -52.307  1.00  0.00     0.009 A 
HETATM   27  C   UNL     1     -39.904  51.331 -53.660  1.00  0.00    -0.062 A 
HETATM   28  C   UNL     1     -39.240  50.221 -54.419  1.00  0.00     0.048 C 
HETATM   29  C   UNL     1     -40.851  52.147 -54.284  1.00  0.00     0.009 A 
HETATM   30  C   UNL     1     -41.496  53.160 -53.567  1.00  0.00     0.030 A 
ENDBRANCH  22  24
ENDBRANCH  20  22
ENDBRANCH   1  20
TORSDOF 6
ENDMDL
MODEL 7
REMARK VINA RESULT:      -7.7      4.133      7.167
REMARK  6 active torsions:
REMARK  status: ('A' for Active; 'I' for Inactive)
REMARK    1  A    between atoms: C_5  and  N_6 
REMARK    2  A    between atoms: N_6  and  C_7 
REMARK    3  A    between atoms: C_7  and  N_8 
REMARK    4  A    between atoms: C_11  and  C_12 
REMARK    5  A    between atoms: N_14  and  C_15 
REMARK    6  A    between atoms: C_21  and  O_22 
ROOT
HETATM    1  N   UNL     1     -41.356  56.554 -53.003  1.00  0.00    -0.358 N 
HETATM    2  C   UNL     1     -41.729  56.657 -51.584  1.00  0.00     0.126 C 
HETATM    3  C   UNL     1     -40.843  57.645 -50.827  1.00  0.00     0.031 C 
HETATM    4  C   UNL     1     -40.756  59.016 -51.520  1.00  0.00     0.043 C 
HETATM    5  C   UNL     1     -40.368  58.807 -52.995  1.00  0.00     0.031 C 
HETATM    6  C   UNL     1     -41.317  57.842 -53.698  1.00  0.00     0.126 C 
ENDROOT
BRANCH   4   7
HETATM    7  C   UNL     1     -41.987  59.879 -51.367  1.00  0.00     0.063 C 
HETATM    8  N   UNL     1     -42.102  60.769 -50.375  1.00  0.00    -0.169 NA
HETATM    9  N   UNL     1     -43.342  61.315 -50.522  1.00  0.00    -0.211 N 
HETATM   10  C   UNL     1     -43.921  60.914 -51.727  1.00  0.00     0.165 C 
HETATM   11  C   UNL     1     -43.099  59.939 -52.236  1.00  0.00     0.087 C 
BRANCH   9  12
HETATM   12  C   UNL     1     -43.869  62.173 -49.515  1.00  0.00     0.061 A 
HETATM   13  C   UNL     1     -44.572  61.612 -48.438  1.00  0.00     0.031 A 
HETATM   14  C   UNL     1     -45.081  62.432 -47.429  1.00  0.00     0.002 A 
HETATM   15  C   UNL     1     -44.912  63.813 -47.498  1.00  0.00     0.000 A 
HETATM   16  C   UNL     1     -44.246  64.380 -48.583  1.00  0.00     0.002 A 
HETATM   17  C   UNL     1     -43.727  63.565 -49.593  1.00  0.00     0.031 A 
ENDBRANCH   9  12
BRANCH  10  18
HETATM   18  O   UNL     1     -45.023  61.429 -52.273  1.00  0.00    -0.345 OA
HETATM   19  H   UNL     1     -45.743  60.779 -52.190  1.00  0.00     0.219 HD
ENDBRANCH  10  18
ENDBRANCH   4   7
BRANCH   1  20
HETATM   20  C   UNL     1     -41.743  55.403 -53.677  1.00  0.00     0.174 C 
HETATM   21  S   UNL     1     -43.327  55.011 -54.084  1.00  0.00    -0.041 SA
BRANCH  20  22
HETATM   22  N   UNL     1     -40.785  54.477 -53.989  1.00  0.00    -0.333 N 
HETATM   23  H   UNL     1     -40.146  54.800 -54.707  1.00  0.00     0.168 HD
BRANCH  22  24
HETATM   24  C   UNL     1     -40.394  53.293 -53.328  1.00  0.00     0.034 A 
HETATM   25  C   UNL     1     -40.095  52.096 -53.979  1.00  0.00     0.030 A 
HETATM   26  C   UNL     1     -39.734  50.957 -53.252  1.00  0.00     0.009 A 
HETATM   27  C   UNL     1     -39.695  50.990 -51.855  1.00  0.00    -0.062 A 
HETATM   28  C   UNL     1     -39.276  49.781 -51.072  1.00  0.00     0.048 C 
HETATM   29  C   UNL     1     -40.012  52.182 -51.198  1.00  0.00     0.009 A 
HETATM   30  C   UNL     1     -40.369  53.320 -51.929  1.00  0.00     0.030 A 
ENDBRANCH  22  24
ENDBRANCH  20  22
ENDBRANCH   1  20
TORSDOF 6
ENDMDL
MODEL 8
REMARK VINA RESULT:      -7.6      2.746      7.526
REMARK  6 active torsions:
REMARK  status: ('A' for Active; 'I' for Inactive)
REMARK    1  A    between atoms: C_5  and  N_6 
REMARK    2  A    between atoms: N_6  and  C_7 
REMARK    3  A    between atoms: C_7  and  N_8 
REMARK    4  A    between atoms: C_11  and  C_12 
REMARK    5  A    between atoms: N_14  and  C_15 
REMARK    6  A    between atoms: C_21  and  O_22 
ROOT
HETATM    1  N   UNL     1     -43.411  59.494 -54.547  1.00  0.00    -0.358 N 
HETATM    2  C   UNL     1     -42.141  58.782 -54.757  1.00  0.00     0.126 C 
HETATM    3  C   UNL     1     -41.265  58.785 -53.505  1.00  0.00     0.031 C 
HETATM    4  C   UNL     1     -42.019  58.300 -52.254  1.00  0.00     0.043 C 
HETATM    5  C   UNL     1     -43.330  59.094 -52.120  1.00  0.00     0.031 C 
HETATM    6  C   UNL     1     -44.172  59.014 -53.391  1.00  0.00     0.126 C 
ENDROOT
BRANCH   4   7
HETATM    7  C   UNL     1     -42.242  56.807 -52.192  1.00  0.00     0.063 C 
HETATM    8  N   UNL     1     -41.243  55.939 -52.382  1.00  0.00    -0.169 NA
HETATM    9  N   UNL     1     -41.817  54.706 -52.306  1.00  0.00    -0.211 N 
HETATM   10  C   UNL     1     -43.137  54.799 -51.863  1.00  0.00     0.165 C 
HETATM   11  C   UNL     1     -43.441  56.138 -51.860  1.00  0.00     0.087 C 
BRANCH   9  12
HETATM   12  C   UNL     1     -41.067  53.545 -52.651  1.00  0.00     0.061 A 
HETATM   13  C   UNL     1     -41.109  53.070 -53.970  1.00  0.00     0.031 A 
HETATM   14  C   UNL     1     -40.366  51.946 -54.336  1.00  0.00     0.002 A 
HETATM   15  C   UNL     1     -39.596  51.278 -53.388  1.00  0.00     0.000 A 
HETATM   16  C   UNL     1     -39.577  51.722 -52.067  1.00  0.00     0.002 A 
HETATM   17  C   UNL     1     -40.312  52.851 -51.695  1.00  0.00     0.031 A 
ENDBRANCH   9  12
BRANCH  10  18
HETATM   18  O   UNL     1     -43.905  53.780 -51.476  1.00  0.00    -0.345 OA
HETATM   19  H   UNL     1     -44.290  53.364 -52.268  1.00  0.00     0.219 HD
ENDBRANCH  10  18
ENDBRANCH   4   7
BRANCH   1  20
HETATM   20  C   UNL     1     -44.069  59.960 -55.677  1.00  0.00     0.174 C 
HETATM   21  S   UNL     1     -43.648  61.342 -56.537  1.00  0.00    -0.041 SA
BRANCH  20  22
HETATM   22  N   UNL     1     -45.186  59.293 -56.103  1.00  0.00    -0.333 N 
HETATM   23  H   UNL     1     -46.031  59.604 -55.636  1.00  0.00     0.168 HD
BRANCH  22  24
HETATM   24  C   UNL     1     -45.392  58.456 -57.221  1.00  0.00     0.034 A 
HETATM   25  C   UNL     1     -44.369  57.797 -57.903  1.00  0.00     0.030 A 
HETATM   26  C   UNL     1     -44.651  56.999 -59.017  1.00  0.00     0.009 A 
HETATM   27  C   UNL     1     -45.961  56.872 -59.486  1.00  0.00    -0.062 A 
HETATM   28  C   UNL     1     -46.273  55.992 -60.659  1.00  0.00     0.048 C 
HETATM   29  C   UNL     1     -46.986  57.546 -58.816  1.00  0.00     0.009 A 
HETATM   30  C   UNL     1     -46.701  58.340 -57.700  1.00  0.00     0.030 A 
ENDBRANCH  22  24
ENDBRANCH  20  22
ENDBRANCH   1  20
TORSDOF 6
ENDMDL
MODEL 9
REMARK VINA RESULT:      -7.5      3.487      8.204
REMARK  6 active torsions:
REMARK  status: ('A' for Active; 'I' for Inactive)
REMARK    1  A    between atoms: C_5  and  N_6 
REMARK    2  A    between atoms: N_6  and  C_7 
REMARK    3  A    between atoms: C_7  and  N_8 
REMARK    4  A    between atoms: C_11  and  C_12 
REMARK    5  A    between atoms: N_14  and  C_15 
REMARK    6  A    between atoms: C_21  and  O_22 
ROOT
HETATM    1  N   UNL     1     -43.182  59.280 -55.250  1.00  0.00    -0.358 N 
HETATM    2  C   UNL     1     -41.862  58.652 -55.089  1.00  0.00     0.126 C 
HETATM    3  C   UNL     1     -41.302  58.840 -53.680  1.00  0.00     0.031 C 
HETATM    4  C   UNL     1     -42.299  58.418 -52.586  1.00  0.00     0.043 C 
HETATM    5  C   UNL     1     -43.646  59.118 -52.839  1.00  0.00     0.031 C 
HETATM    6  C   UNL     1     -44.164  58.854 -54.250  1.00  0.00     0.126 C 
ENDROOT
BRANCH   4   7
HETATM    7  C   UNL     1     -42.450  56.924 -52.413  1.00  0.00     0.063 C 
HETATM    8  N   UNL     1     -41.418  56.090 -52.576  1.00  0.00    -0.169 NA
HETATM    9  N   UNL     1     -41.931  54.842 -52.395  1.00  0.00    -0.211 N 
HETATM   10  C   UNL     1     -43.240  54.907 -51.916  1.00  0.00     0.165 C 
HETATM   11  C   UNL     1     -43.606  56.228 -51.996  1.00  0.00     0.087 C 
BRANCH   9  12
HETATM   12  C   UNL     1     -41.139  53.694 -52.684  1.00  0.00     0.061 A 
HETATM   13  C   UNL     1     -41.128  53.180 -53.990  1.00  0.00     0.031 A 
HETATM   14  C   UNL     1     -40.344  52.068 -54.301  1.00  0.00     0.002 A 
HETATM   15  C   UNL     1     -39.583  51.450 -53.311  1.00  0.00     0.000 A 
HETATM   16  C   UNL     1     -39.616  51.933 -52.003  1.00  0.00     0.002 A 
HETATM   17  C   UNL     1     -40.394  53.050 -51.686  1.00  0.00     0.031 A 
ENDBRANCH   9  12
BRANCH  10  18
HETATM   18  O   UNL     1     -43.948  53.886 -51.434  1.00  0.00    -0.345 OA
HETATM   19  H   UNL     1     -43.711  53.758 -50.498  1.00  0.00     0.219 HD
ENDBRANCH  10  18
ENDBRANCH   4   7
BRANCH   1  20
HETATM   20  C   UNL     1     -43.584  59.586 -56.543  1.00  0.00     0.174 C 
HETATM   21  S   UNL     1     -45.115  60.131 -56.974  1.00  0.00    -0.041 SA
BRANCH  20  22
HETATM   22  N   UNL     1     -42.700  59.377 -57.568  1.00  0.00    -0.333 N 
HETATM   23  H   UNL     1     -42.619  58.398 -57.822  1.00  0.00     0.168 HD
BRANCH  22  24
HETATM   24  C   UNL     1     -42.097  60.282 -58.468  1.00  0.00     0.034 A 
HETATM   25  C   UNL     1     -42.288  60.253 -59.849  1.00  0.00     0.030 A 
HETATM   26  C   UNL     1     -41.638  61.173 -60.679  1.00  0.00     0.009 A 
HETATM   27  C   UNL     1     -40.762  62.119 -60.141  1.00  0.00    -0.062 A 
HETATM   28  C   UNL     1     -40.088  63.128 -61.024  1.00  0.00     0.048 C 
HETATM   29  C   UNL     1     -40.554  62.138 -58.759  1.00  0.00     0.009 A 
HETATM   30  C   UNL     1     -41.208  61.220 -57.932  1.00  0.00     0.030 A 
ENDBRANCH  22  24
ENDBRANCH  20  22
ENDBRANCH   1  20
TORSDOF 6
ENDMDL
MODEL 10
REMARK VINA RESULT:      -7.3      4.661      8.570
REMARK  6 active torsions:
REMARK  status: ('A' for Active; 'I' for Inactive)
REMARK    1  A    between atoms: C_5  and  N_6 
REMARK    2  A    between atoms: N_6  and  C_7 
REMARK    3  A    between atoms: C_7  and  N_8 
REMARK    4  A    between atoms: C_11  and  C_12 
REMARK    5  A    between atoms: N_14  and  C_15 
REMARK    6  A    between atoms: C_21  and  O_22 
ROOT
HETATM    1  N   UNL     1     -42.955  60.339 -51.997  1.00  0.00    -0.358 N 
HETATM    2  C   UNL     1     -43.930  59.664 -52.867  1.00  0.00     0.126 C 
HETATM    3  C   UNL     1     -43.307  59.209 -54.185  1.00  0.00     0.031 C 
HETATM    4  C   UNL     1     -42.023  58.386 -53.981  1.00  0.00     0.043 C 
HETATM    5  C   UNL     1     -41.070  59.167 -53.058  1.00  0.00     0.031 C 
HETATM    6  C   UNL     1     -41.746  59.553 -51.745  1.00  0.00     0.126 C 
ENDROOT
BRANCH   4   7
HETATM    7  C   UNL     1     -42.251  56.969 -53.508  1.00  0.00     0.063 C 
HETATM    8  N   UNL     1     -41.254  56.080 -53.449  1.00  0.00    -0.169 NA
HETATM    9  N   UNL     1     -41.832  54.918 -53.033  1.00  0.00    -0.211 N 
HETATM   10  C   UNL     1     -43.152  55.135 -52.635  1.00  0.00     0.165 C 
HETATM   11  C   UNL     1     -43.452  56.423 -53.004  1.00  0.00     0.087 C 
BRANCH   9  12
HETATM   12  C   UNL     1     -41.086  53.705 -53.042  1.00  0.00     0.061 A 
HETATM   13  C   UNL     1     -41.025  52.947 -54.222  1.00  0.00     0.031 A 
HETATM   14  C   UNL     1     -40.283  51.765 -54.260  1.00  0.00     0.002 A 
HETATM   15  C   UNL     1     -39.617  51.321 -53.120  1.00  0.00     0.000 A 
HETATM   16  C   UNL     1     -39.702  52.050 -51.934  1.00  0.00     0.002 A 
HETATM   17  C   UNL     1     -40.437  53.238 -51.891  1.00  0.00     0.031 A 
ENDBRANCH   9  12
BRANCH  10  18
HETATM   18  O   UNL     1     -43.923  54.266 -51.982  1.00  0.00    -0.345 OA
HETATM   19  H   UNL     1     -43.356  53.572 -51.600  1.00  0.00     0.219 HD
ENDBRANCH  10  18
ENDBRANCH   4   7
BRANCH   1  20
HETATM   20  C   UNL     1     -43.460  61.185 -51.018  1.00  0.00     0.174 C 
HETATM   21  S   UNL     1     -42.947  62.763 -50.749  1.00  0.00    -0.041 SA
BRANCH  20  22
HETATM   22  N   UNL     1     -44.404  60.695 -50.156  1.00  0.00    -0.333 N 
HETATM   23  H   UNL     1     -44.501  59.687 -50.213  1.00  0.00     0.168 HD
BRANCH  22  24
HETATM   24  C   UNL     1     -45.060  61.299 -49.063  1.00  0.00     0.034 A 
HETATM   25  C   UNL     1     -44.644  61.177 -47.737  1.00  0.00     0.030 A 
HETATM   26  C   UNL     1     -45.360  61.790 -46.704  1.00  0.00     0.009 A 
HETATM   27  C   UNL     1     -46.524  62.513 -46.978  1.00  0.00    -0.062 A 
HETATM   28  C   UNL     1     -47.277  63.200 -45.877  1.00  0.00     0.048 C 
HETATM   29  C   UNL     1     -46.954  62.622 -48.303  1.00  0.00     0.009 A 
HETATM   30  C   UNL     1     -46.234  62.011 -49.335  1.00  0.00     0.030 A 
ENDBRANCH  22  24
ENDBRANCH  20  22
ENDBRANCH   1  20
TORSDOF 6
ENDMDL
