MODEL 1
REMARK VINA RESULT:      -7.8      0.000      0.000
REMARK  7 active torsions:
REMARK  status: ('A' for Active; 'I' for Inactive)
REMARK    1  A    between atoms: C_2  and  O_3 
REMARK    2  A    between atoms: O_3  and  C_4 
REMARK    3  A    between atoms: C_4  and  C_5 
REMARK    4  A    between atoms: C_6  and  C_7 
REMARK    5  A    between atoms: C_18  and  S_19 
REMARK    6  A    between atoms: S_19  and  C_20 
REMARK    7  A    between atoms: C_20  and  C_21 
ROOT
HETATM    1  C   UNL     1     -42.919  58.933 -51.770  1.00  0.00     0.070 A 
HETATM    2  C   UNL     1     -43.270  57.480 -52.079  1.00  0.00     0.203 A 
HETATM    3  N   UNL     1     -42.457  56.550 -51.282  1.00  0.00    -0.082 N 
HETATM    4  C   UNL     1     -41.529  56.941 -50.359  1.00  0.00     0.726 A 
HETATM    5  N   UNL     1     -41.333  58.251 -50.133  1.00  0.00    -0.192 N 
HETATM    6  N   UNL     1     -42.557  55.207 -51.335  1.00  0.00    -0.128 NA
HETATM    7  C   UNL     1     -41.585  54.849 -50.486  1.00  0.00     0.226 A 
HETATM    8  N   UNL     1     -40.956  55.885 -49.841  1.00  0.00    -0.035 NA
HETATM    9  C   UNL     1     -41.997  59.256 -50.828  1.00  0.00     0.037 A 
HETATM   10  C   UNL     1     -41.631  60.667 -50.434  1.00  0.00     0.070 C 
HETATM   11  H   UNL     1     -40.624  58.533 -49.460  1.00  0.00     0.184 HD
ENDROOT
BRANCH   7  12
HETATM   12  S   UNL     1     -41.161  53.176 -50.265  1.00  0.00    -0.083 SA
BRANCH  12  13
HETATM   13  C   UNL     1     -39.677  53.087 -51.305  1.00  0.00     0.123 C 
BRANCH  13  14
HETATM   14  C   UNL     1     -39.721  51.899 -52.237  1.00  0.00    -0.027 A 
HETATM   15  C   UNL     1     -39.976  52.019 -53.613  1.00  0.00     0.041 A 
HETATM   16 CL   UNL     1     -40.255  53.550 -54.366  1.00  0.00    -0.084 Cl
HETATM   17  C   UNL     1     -40.011  50.886 -54.433  1.00  0.00     0.024 A 
HETATM   18  C   UNL     1     -39.805  49.618 -53.891  1.00  0.00     0.002 A 
HETATM   19  C   UNL     1     -39.564  49.480 -52.527  1.00  0.00     0.001 A 
HETATM   20  C   UNL     1     -39.522  50.609 -51.707  1.00  0.00     0.009 A 
ENDBRANCH  13  14
ENDBRANCH  12  13
ENDBRANCH   7  12
BRANCH   2  21
HETATM   21  C   UNL     1     -43.164  57.114 -53.560  1.00  0.00    -0.028 A 
HETATM   22  C   UNL     1     -41.930  56.822 -54.165  1.00  0.00     0.011 A 
HETATM   23  C   UNL     1     -41.868  56.495 -55.523  1.00  0.00     0.024 A 
HETATM   24  C   UNL     1     -43.035  56.449 -56.282  1.00  0.00     0.034 A 
HETATM   25 CL   UNL     1     -42.954  56.050 -57.953  1.00  0.00    -0.084 Cl
HETATM   26  C   UNL     1     -44.268  56.723 -55.696  1.00  0.00     0.024 A 
HETATM   27  C   UNL     1     -44.333  57.052 -54.341  1.00  0.00     0.011 A 
ENDBRANCH   2  21
BRANCH   1  28
HETATM   28  C   UNL     1     -43.576  59.976 -52.590  1.00  0.00     0.293 C 
HETATM   29  O   UNL     1     -44.733  60.336 -52.440  1.00  0.00    -0.259 OA
BRANCH  28  30
HETATM   30  O   UNL     1     -42.698  60.480 -53.492  1.00  0.00    -0.318 OA
BRANCH  30  31
HETATM   31  C   UNL     1     -43.228  60.684 -54.812  1.00  0.00     0.174 C 
HETATM   32  C   UNL     1     -42.269  60.153 -55.864  1.00  0.00     0.034 C 
ENDBRANCH  30  31
ENDBRANCH  28  30
ENDBRANCH   1  28
TORSDOF 7
ENDMDL
MODEL 2
REMARK VINA RESULT:      -7.7      2.823      4.475
REMARK  7 active torsions:
REMARK  status: ('A' for Active; 'I' for Inactive)
REMARK    1  A    between atoms: C_2  and  O_3 
REMARK    2  A    between atoms: O_3  and  C_4 
REMARK    3  A    between atoms: C_4  and  C_5 
REMARK    4  A    between atoms: C_6  and  C_7 
REMARK    5  A    between atoms: C_18  and  S_19 
REMARK    6  A    between atoms: S_19  and  C_20 
REMARK    7  A    between atoms: C_20  and  C_21 
ROOT
HETATM    1  C   UNL     1     -42.807  57.450 -56.664  1.00  0.00     0.070 A 
HETATM    2  C   UNL     1     -42.241  57.551 -55.249  1.00  0.00     0.203 A 
HETATM    3  N   UNL     1     -42.322  56.263 -54.545  1.00  0.00    -0.082 N 
HETATM    4  C   UNL     1     -42.814  55.116 -55.101  1.00  0.00     0.726 A 
HETATM    5  N   UNL     1     -43.244  55.130 -56.374  1.00  0.00    -0.192 N 
HETATM    6  N   UNL     1     -41.888  56.049 -53.287  1.00  0.00    -0.128 NA
HETATM    7  C   UNL     1     -42.242  54.770 -53.114  1.00  0.00     0.226 A 
HETATM    8  N   UNL     1     -42.779  54.152 -54.217  1.00  0.00    -0.035 NA
HETATM    9  C   UNL     1     -43.265  56.274 -57.163  1.00  0.00     0.037 A 
HETATM   10  C   UNL     1     -43.794  56.086 -58.565  1.00  0.00     0.070 C 
HETATM   11  H   UNL     1     -43.628  54.276 -56.772  1.00  0.00     0.184 HD
ENDROOT
BRANCH   7  12
HETATM   12  S   UNL     1     -42.041  53.986 -51.573  1.00  0.00    -0.083 SA
BRANCH  12  13
HETATM   13  C   UNL     1     -40.265  53.619 -51.635  1.00  0.00     0.123 C 
BRANCH  13  14
HETATM   14  C   UNL     1     -40.007  52.164 -51.950  1.00  0.00    -0.027 A 
HETATM   15  C   UNL     1     -39.853  51.685 -53.261  1.00  0.00     0.041 A 
HETATM   16 CL   UNL     1     -39.937  52.726 -54.638  1.00  0.00    -0.084 Cl
HETATM   17  C   UNL     1     -39.621  50.326 -53.500  1.00  0.00     0.024 A 
HETATM   18  C   UNL     1     -39.551  49.426 -52.436  1.00  0.00     0.002 A 
HETATM   19  C   UNL     1     -39.715  49.883 -51.132  1.00  0.00     0.001 A 
HETATM   20  C   UNL     1     -39.941  51.240 -50.890  1.00  0.00     0.009 A 
ENDBRANCH  13  14
ENDBRANCH  12  13
ENDBRANCH   7  12
BRANCH   2  21
HETATM   21  C   UNL     1     -42.886  58.644 -54.396  1.00  0.00    -0.028 A 
HETATM   22  C   UNL     1     -44.230  58.572 -53.991  1.00  0.00     0.011 A 
HETATM   23  C   UNL     1     -44.790  59.591 -53.214  1.00  0.00     0.024 A 
HETATM   24  C   UNL     1     -44.012  60.681 -52.830  1.00  0.00     0.034 A 
HETATM   25 CL   UNL     1     -44.707  61.934 -51.878  1.00  0.00    -0.084 Cl
HETATM   26  C   UNL     1     -42.676  60.762 -53.211  1.00  0.00     0.024 A 
HETATM   27  C   UNL     1     -42.115  59.748 -53.988  1.00  0.00     0.011 A 
ENDBRANCH   2  21
BRANCH   1  28
HETATM   28  C   UNL     1     -42.900  58.704 -57.445  1.00  0.00     0.293 C 
HETATM   29  O   UNL     1     -43.889  59.420 -57.475  1.00  0.00    -0.259 OA
BRANCH  28  30
HETATM   30  O   UNL     1     -41.727  58.942 -58.083  1.00  0.00    -0.318 OA
BRANCH  30  31
HETATM   31  C   UNL     1     -41.835  59.711 -59.293  1.00  0.00     0.174 C 
HETATM   32  C   UNL     1     -42.104  58.806 -60.482  1.00  0.00     0.034 C 
ENDBRANCH  30  31
ENDBRANCH  28  30
ENDBRANCH   1  28
TORSDOF 7
ENDMDL
MODEL 3
REMARK VINA RESULT:      -7.4      3.602      6.898
REMARK  7 active torsions:
REMARK  status: ('A' for Active; 'I' for Inactive)
REMARK    1  A    between atoms: C_2  and  O_3 
REMARK    2  A    between atoms: O_3  and  C_4 
REMARK    3  A    between atoms: C_4  and  C_5 
REMARK    4  A    between atoms: C_6  and  C_7 
REMARK    5  A    between atoms: C_18  and  S_19 
REMARK    6  A    between atoms: S_19  and  C_20 
REMARK    7  A    between atoms: C_20  and  C_21 
ROOT
HETATM    1  C   UNL     1     -42.968  56.310 -51.828  1.00  0.00     0.070 A 
HETATM    2  C   UNL     1     -41.967  56.210 -52.977  1.00  0.00     0.203 A 
HETATM    3  N   UNL     1     -42.425  56.958 -54.156  1.00  0.00    -0.082 N 
HETATM    4  C   UNL     1     -43.586  57.678 -54.203  1.00  0.00     0.726 A 
HETATM    5  N   UNL     1     -44.372  57.736 -53.114  1.00  0.00    -0.192 N 
HETATM    6  N   UNL     1     -41.742  57.058 -55.313  1.00  0.00    -0.128 NA
HETATM    7  C   UNL     1     -42.600  57.774 -56.050  1.00  0.00     0.226 A 
HETATM    8  N   UNL     1     -43.727  58.203 -55.393  1.00  0.00    -0.035 NA
HETATM    9  C   UNL     1     -44.096  57.057 -51.933  1.00  0.00     0.037 A 
HETATM   10  C   UNL     1     -45.107  57.243 -50.827  1.00  0.00     0.070 C 
HETATM   11  H   UNL     1     -45.245  58.256 -53.166  1.00  0.00     0.184 HD
ENDROOT
BRANCH   7  12
HETATM   12  S   UNL     1     -42.285  58.094 -57.732  1.00  0.00    -0.083 SA
BRANCH  12  13
HETATM   13  C   UNL     1     -43.983  58.295 -58.338  1.00  0.00     0.123 C 
BRANCH  13  14
HETATM   14  C   UNL     1     -44.459  57.069 -59.081  1.00  0.00    -0.027 A 
HETATM   15  C   UNL     1     -45.666  57.034 -59.799  1.00  0.00     0.041 A 
HETATM   16 CL   UNL     1     -46.715  58.404 -59.904  1.00  0.00    -0.084 Cl
HETATM   17  C   UNL     1     -46.065  55.870 -60.466  1.00  0.00     0.024 A 
HETATM   18  C   UNL     1     -45.272  54.723 -60.415  1.00  0.00     0.002 A 
HETATM   19  C   UNL     1     -44.080  54.738 -59.697  1.00  0.00     0.001 A 
HETATM   20  C   UNL     1     -43.677  55.899 -59.035  1.00  0.00     0.009 A 
ENDBRANCH  13  14
ENDBRANCH  12  13
ENDBRANCH   7  12
BRANCH   2  21
HETATM   21  C   UNL     1     -41.624  54.776 -53.381  1.00  0.00    -0.028 A 
HETATM   22  C   UNL     1     -42.406  54.058 -54.302  1.00  0.00     0.011 A 
HETATM   23  C   UNL     1     -42.066  52.746 -54.647  1.00  0.00     0.024 A 
HETATM   24  C   UNL     1     -40.942  52.147 -54.083  1.00  0.00     0.034 A 
HETATM   25 CL   UNL     1     -40.530  50.531 -54.508  1.00  0.00    -0.084 Cl
HETATM   26  C   UNL     1     -40.149  52.847 -53.179  1.00  0.00     0.024 A 
HETATM   27  C   UNL     1     -40.486  54.156 -52.831  1.00  0.00     0.011 A 
ENDBRANCH   2  21
BRANCH   1  28
HETATM   28  C   UNL     1     -42.691  55.503 -50.618  1.00  0.00     0.293 C 
HETATM   29  O   UNL     1     -43.391  54.577 -50.240  1.00  0.00    -0.259 OA
BRANCH  28  30
HETATM   30  O   UNL     1     -41.546  55.927 -50.029  1.00  0.00    -0.318 OA
BRANCH  30  31
HETATM   31  C   UNL     1     -41.048  55.078 -48.981  1.00  0.00     0.174 C 
HETATM   32  C   UNL     1     -39.776  54.373 -49.419  1.00  0.00     0.034 C 
ENDBRANCH  30  31
ENDBRANCH  28  30
ENDBRANCH   1  28
TORSDOF 7
ENDMDL
MODEL 4
REMARK VINA RESULT:      -7.3      4.356      7.884
REMARK  7 active torsions:
REMARK  status: ('A' for Active; 'I' for Inactive)
REMARK    1  A    between atoms: C_2  and  O_3 
REMARK    2  A    between atoms: O_3  and  C_4 
REMARK    3  A    between atoms: C_4  and  C_5 
REMARK    4  A    between atoms: C_6  and  C_7 
REMARK    5  A    between atoms: C_18  and  S_19 
REMARK    6  A    between atoms: S_19  and  C_20 
REMARK    7  A    between atoms: C_20  and  C_21 
ROOT
HETATM    1  C   UNL     1     -42.636  54.800 -53.649  1.00  0.00     0.070 A 
HETATM    2  C   UNL     1     -43.467  56.054 -53.909  1.00  0.00     0.203 A 
HETATM    3  N   UNL     1     -43.307  56.528 -55.291  1.00  0.00    -0.082 N 
HETATM    4  C   UNL     1     -42.535  55.905 -56.231  1.00  0.00     0.726 A 
HETATM    5  N   UNL     1     -41.880  54.777 -55.905  1.00  0.00    -0.192 N 
HETATM    6  N   UNL     1     -43.929  57.606 -55.807  1.00  0.00    -0.128 NA
HETATM    7  C   UNL     1     -43.406  57.630 -57.040  1.00  0.00     0.226 A 
HETATM    8  N   UNL     1     -42.575  56.582 -57.348  1.00  0.00    -0.035 NA
HETATM    9  C   UNL     1     -41.902  54.218 -54.632  1.00  0.00     0.037 A 
HETATM   10  C   UNL     1     -41.094  52.954 -54.464  1.00  0.00     0.070 C 
HETATM   11  H   UNL     1     -41.291  54.332 -56.605  1.00  0.00     0.184 HD
ENDROOT
BRANCH   7  12
HETATM   12  S   UNL     1     -43.761  58.934 -58.137  1.00  0.00    -0.083 SA
BRANCH  12  13
HETATM   13  C   UNL     1     -43.646  58.055 -59.720  1.00  0.00     0.123 C 
BRANCH  13  14
HETATM   14  C   UNL     1     -44.986  57.506 -60.152  1.00  0.00    -0.027 A 
HETATM   15  C   UNL     1     -45.226  56.133 -60.326  1.00  0.00     0.041 A 
HETATM   16 CL   UNL     1     -44.004  54.943 -60.051  1.00  0.00    -0.084 Cl
HETATM   17  C   UNL     1     -46.484  55.676 -60.734  1.00  0.00     0.024 A 
HETATM   18  C   UNL     1     -47.515  56.583 -60.985  1.00  0.00     0.002 A 
HETATM   19  C   UNL     1     -47.288  57.947 -60.829  1.00  0.00     0.001 A 
HETATM   20  C   UNL     1     -46.036  58.406 -60.417  1.00  0.00     0.009 A 
ENDBRANCH  13  14
ENDBRANCH  12  13
ENDBRANCH   7  12
BRANCH   2  21
HETATM   21  C   UNL     1     -43.186  57.200 -52.937  1.00  0.00    -0.028 A 
HETATM   22  C   UNL     1     -44.177  57.703 -52.077  1.00  0.00     0.011 A 
HETATM   23  C   UNL     1     -43.888  58.756 -51.203  1.00  0.00     0.024 A 
HETATM   24  C   UNL     1     -42.608  59.305 -51.175  1.00  0.00     0.034 A 
HETATM   25 CL   UNL     1     -42.258  60.602 -50.100  1.00  0.00    -0.084 Cl
HETATM   26  C   UNL     1     -41.611  58.811 -52.010  1.00  0.00     0.024 A 
HETATM   27  C   UNL     1     -41.896  57.762 -52.885  1.00  0.00     0.011 A 
ENDBRANCH   2  21
BRANCH   1  28
HETATM   28  C   UNL     1     -42.607  54.283 -52.262  1.00  0.00     0.293 C 
HETATM   29  O   UNL     1     -43.553  53.738 -51.716  1.00  0.00    -0.259 OA
BRANCH  28  30
HETATM   30  O   UNL     1     -41.381  54.478 -51.718  1.00  0.00    -0.318 OA
BRANCH  30  31
HETATM   31  C   UNL     1     -41.335  54.436 -50.283  1.00  0.00     0.174 C 
HETATM   32  C   UNL     1     -41.378  55.839 -49.702  1.00  0.00     0.034 C 
ENDBRANCH  30  31
ENDBRANCH  28  30
ENDBRANCH   1  28
TORSDOF 7
ENDMDL
MODEL 5
REMARK VINA RESULT:      -7.3      3.898      5.945
REMARK  7 active torsions:
REMARK  status: ('A' for Active; 'I' for Inactive)
REMARK    1  A    between atoms: C_2  and  O_3 
REMARK    2  A    between atoms: O_3  and  C_4 
REMARK    3  A    between atoms: C_4  and  C_5 
REMARK    4  A    between atoms: C_6  and  C_7 
REMARK    5  A    between atoms: C_18  and  S_19 
REMARK    6  A    between atoms: S_19  and  C_20 
REMARK    7  A    between atoms: C_20  and  C_21 
ROOT
HETATM    1  C   UNL     1     -42.830  57.307 -58.980  1.00  0.00     0.070 A 
HETATM    2  C   UNL     1     -42.194  57.892 -57.721  1.00  0.00     0.203 A 
HETATM    3  N   UNL     1     -42.405  57.020 -56.557  1.00  0.00    -0.082 N 
HETATM    4  C   UNL     1     -43.060  55.822 -56.605  1.00  0.00     0.726 A 
HETATM    5  N   UNL     1     -43.541  55.380 -57.780  1.00  0.00    -0.192 N 
HETATM    6  N   UNL     1     -41.946  57.276 -55.316  1.00  0.00    -0.128 NA
HETATM    7  C   UNL     1     -42.449  56.233 -54.643  1.00  0.00     0.226 A 
HETATM    8  N   UNL     1     -43.108  55.301 -55.407  1.00  0.00    -0.035 NA
HETATM    9  C   UNL     1     -43.453  56.101 -58.965  1.00  0.00     0.037 A 
HETATM   10  C   UNL     1     -44.062  55.436 -60.176  1.00  0.00     0.070 C 
HETATM   11  H   UNL     1     -44.046  54.497 -57.802  1.00  0.00     0.184 HD
ENDROOT
BRANCH   7  12
HETATM   12  S   UNL     1     -42.280  56.117 -52.915  1.00  0.00    -0.083 SA
BRANCH  12  13
HETATM   13  C   UNL     1     -42.785  54.393 -52.663  1.00  0.00     0.123 C 
BRANCH  13  14
HETATM   14  C   UNL     1     -41.595  53.463 -52.621  1.00  0.00    -0.027 A 
HETATM   15  C   UNL     1     -40.855  53.225 -51.451  1.00  0.00     0.041 A 
HETATM   16 CL   UNL     1     -41.251  53.974 -49.944  1.00  0.00    -0.084 Cl
HETATM   17  C   UNL     1     -39.757  52.359 -51.466  1.00  0.00     0.024 A 
HETATM   18  C   UNL     1     -39.374  51.729 -52.651  1.00  0.00     0.002 A 
HETATM   19  C   UNL     1     -40.089  51.965 -53.822  1.00  0.00     0.001 A 
HETATM   20  C   UNL     1     -41.189  52.824 -53.808  1.00  0.00     0.009 A 
ENDBRANCH  13  14
ENDBRANCH  12  13
ENDBRANCH   7  12
BRANCH   2  21
HETATM   21  C   UNL     1     -42.659  59.311 -57.391  1.00  0.00    -0.028 A 
HETATM   22  C   UNL     1     -43.928  59.567 -56.844  1.00  0.00     0.011 A 
HETATM   23  C   UNL     1     -44.324  60.877 -56.557  1.00  0.00     0.024 A 
HETATM   24  C   UNL     1     -43.454  61.937 -56.805  1.00  0.00     0.034 A 
HETATM   25 CL   UNL     1     -43.946  63.547 -56.453  1.00  0.00    -0.084 Cl
HETATM   26  C   UNL     1     -42.189  61.701 -57.334  1.00  0.00     0.024 A 
HETATM   27  C   UNL     1     -41.792  60.395 -57.623  1.00  0.00     0.011 A 
ENDBRANCH   2  21
BRANCH   1  28
HETATM   28  C   UNL     1     -42.799  58.140 -60.203  1.00  0.00     0.293 C 
HETATM   29  O   UNL     1     -41.796  58.336 -60.872  1.00  0.00    -0.259 OA
BRANCH  28  30
HETATM   30  O   UNL     1     -44.040  58.613 -60.474  1.00  0.00    -0.318 OA
BRANCH  30  31
HETATM   31  C   UNL     1     -44.078  59.910 -61.091  1.00  0.00     0.174 C 
HETATM   32  C   UNL     1     -44.827  60.900 -60.215  1.00  0.00     0.034 C 
ENDBRANCH  30  31
ENDBRANCH  28  30
ENDBRANCH   1  28
TORSDOF 7
ENDMDL
MODEL 6
REMARK VINA RESULT:      -7.2      2.073      2.995
REMARK  7 active torsions:
REMARK  status: ('A' for Active; 'I' for Inactive)
REMARK    1  A    between atoms: C_2  and  O_3 
REMARK    2  A    between atoms: O_3  and  C_4 
REMARK    3  A    between atoms: C_4  and  C_5 
REMARK    4  A    between atoms: C_6  and  C_7 
REMARK    5  A    between atoms: C_18  and  S_19 
REMARK    6  A    between atoms: S_19  and  C_20 
REMARK    7  A    between atoms: C_20  and  C_21 
ROOT
HETATM    1  C   UNL     1     -43.061  59.357 -51.953  1.00  0.00     0.070 A 
HETATM    2  C   UNL     1     -43.686  58.373 -52.940  1.00  0.00     0.203 A 
HETATM    3  N   UNL     1     -42.908  57.129 -53.023  1.00  0.00    -0.082 N 
HETATM    4  C   UNL     1     -41.786  56.876 -52.286  1.00  0.00     0.726 A 
HETATM    5  N   UNL     1     -41.349  57.798 -51.410  1.00  0.00    -0.192 N 
HETATM    6  N   UNL     1     -43.227  56.077 -53.803  1.00  0.00    -0.128 NA
HETATM    7  C   UNL     1     -42.194  55.261 -53.558  1.00  0.00     0.226 A 
HETATM    8  N   UNL     1     -41.308  55.701 -52.605  1.00  0.00    -0.035 NA
HETATM    9  C   UNL     1     -41.953  59.038 -51.238  1.00  0.00     0.037 A 
HETATM   10  C   UNL     1     -41.307  59.937 -50.211  1.00  0.00     0.070 C 
HETATM   11  H   UNL     1     -40.501  57.609 -50.882  1.00  0.00     0.184 HD
ENDROOT
BRANCH   7  12
HETATM   12  S   UNL     1     -42.009  53.765 -54.428  1.00  0.00    -0.083 SA
BRANCH  12  13
HETATM   13  C   UNL     1     -40.244  53.453 -54.147  1.00  0.00     0.123 C 
BRANCH  13  14
HETATM   14  C   UNL     1     -40.009  52.093 -53.533  1.00  0.00    -0.027 A 
HETATM   15  C   UNL     1     -39.747  51.911 -52.164  1.00  0.00     0.041 A 
HETATM   16 CL   UNL     1     -39.680  53.235 -51.056  1.00  0.00    -0.084 Cl
HETATM   17  C   UNL     1     -39.530  50.630 -51.645  1.00  0.00     0.024 A 
HETATM   18  C   UNL     1     -39.560  49.516 -52.484  1.00  0.00     0.002 A 
HETATM   19  C   UNL     1     -39.804  49.681 -53.845  1.00  0.00     0.001 A 
HETATM   20  C   UNL     1     -40.027  50.957 -54.365  1.00  0.00     0.009 A 
ENDBRANCH  13  14
ENDBRANCH  12  13
ENDBRANCH   7  12
BRANCH   2  21
HETATM   21  C   UNL     1     -43.892  58.944 -54.343  1.00  0.00    -0.028 A 
HETATM   22  C   UNL     1     -45.174  59.122 -54.890  1.00  0.00     0.011 A 
HETATM   23  C   UNL     1     -45.328  59.644 -56.178  1.00  0.00     0.024 A 
HETATM   24  C   UNL     1     -44.206  59.999 -56.924  1.00  0.00     0.034 A 
HETATM   25 CL   UNL     1     -44.399  60.636 -58.510  1.00  0.00    -0.084 Cl
HETATM   26  C   UNL     1     -42.929  59.841 -56.394  1.00  0.00     0.024 A 
HETATM   27  C   UNL     1     -42.772  59.319 -55.109  1.00  0.00     0.011 A 
ENDBRANCH   2  21
BRANCH   1  28
HETATM   28  C   UNL     1     -43.674  60.701 -51.860  1.00  0.00     0.293 C 
HETATM   29  O   UNL     1     -43.288  61.674 -52.490  1.00  0.00    -0.259 OA
BRANCH  28  30
HETATM   30  O   UNL     1     -44.728  60.674 -51.008  1.00  0.00    -0.318 OA
BRANCH  30  31
HETATM   31  C   UNL     1     -46.018  60.821 -51.625  1.00  0.00     0.174 C 
HETATM   32  C   UNL     1     -46.662  62.135 -51.216  1.00  0.00     0.034 C 
ENDBRANCH  30  31
ENDBRANCH  28  30
ENDBRANCH   1  28
TORSDOF 7
ENDMDL
MODEL 7
REMARK VINA RESULT:      -7.1      4.654      8.238
REMARK  7 active torsions:
REMARK  status: ('A' for Active; 'I' for Inactive)
REMARK    1  A    between atoms: C_2  and  O_3 
REMARK    2  A    between atoms: O_3  and  C_4 
REMARK    3  A    between atoms: C_4  and  C_5 
REMARK    4  A    between atoms: C_6  and  C_7 
REMARK    5  A    between atoms: C_18  and  S_19 
REMARK    6  A    between atoms: S_19  and  C_20 
REMARK    7  A    between atoms: C_20  and  C_21 
ROOT
HETATM    1  C   UNL     1     -42.406  54.986 -53.849  1.00  0.00     0.070 A 
HETATM    2  C   UNL     1     -43.426  56.103 -54.055  1.00  0.00     0.203 A 
HETATM    3  N   UNL     1     -43.398  56.609 -55.435  1.00  0.00    -0.082 N 
HETATM    4  C   UNL     1     -42.582  56.118 -56.415  1.00  0.00     0.726 A 
HETATM    5  N   UNL     1     -41.752  55.098 -56.133  1.00  0.00    -0.192 N 
HETATM    6  N   UNL     1     -44.196  57.585 -55.909  1.00  0.00    -0.128 NA
HETATM    7  C   UNL     1     -43.735  57.700 -57.162  1.00  0.00     0.226 A 
HETATM    8  N   UNL     1     -42.770  56.792 -57.519  1.00  0.00    -0.035 NA
HETATM    9  C   UNL     1     -41.635  54.531 -54.869  1.00  0.00     0.037 A 
HETATM   10  C   UNL     1     -40.640  53.401 -54.754  1.00  0.00     0.070 C 
HETATM   11  H   UNL     1     -41.132  54.754 -56.863  1.00  0.00     0.184 HD
ENDROOT
BRANCH   7  12
HETATM   12  S   UNL     1     -44.328  58.945 -58.223  1.00  0.00    -0.083 SA
BRANCH  12  13
HETATM   13  C   UNL     1     -46.115  58.692 -58.039  1.00  0.00     0.123 C 
BRANCH  13  14
HETATM   14  C   UNL     1     -46.739  58.175 -59.314  1.00  0.00    -0.027 A 
HETATM   15  C   UNL     1     -47.396  59.010 -60.234  1.00  0.00     0.041 A 
HETATM   16 CL   UNL     1     -47.541  60.715 -59.988  1.00  0.00    -0.084 Cl
HETATM   17  C   UNL     1     -47.963  58.480 -61.398  1.00  0.00     0.024 A 
HETATM   18  C   UNL     1     -47.893  57.111 -61.655  1.00  0.00     0.002 A 
HETATM   19  C   UNL     1     -47.258  56.269 -60.747  1.00  0.00     0.001 A 
HETATM   20  C   UNL     1     -46.686  56.795 -59.588  1.00  0.00     0.009 A 
ENDBRANCH  13  14
ENDBRANCH  12  13
ENDBRANCH   7  12
BRANCH   2  21
HETATM   21  C   UNL     1     -43.280  57.270 -53.078  1.00  0.00    -0.028 A 
HETATM   22  C   UNL     1     -42.125  58.070 -53.046  1.00  0.00     0.011 A 
HETATM   23  C   UNL     1     -42.022  59.127 -52.137  1.00  0.00     0.024 A 
HETATM   24  C   UNL     1     -43.071  59.397 -51.261  1.00  0.00     0.034 A 
HETATM   25 CL   UNL     1     -42.938  60.697 -50.142  1.00  0.00    -0.084 Cl
HETATM   26  C   UNL     1     -44.228  58.623 -51.288  1.00  0.00     0.024 A 
HETATM   27  C   UNL     1     -44.333  57.566 -52.193  1.00  0.00     0.011 A 
ENDBRANCH   2  21
BRANCH   1  28
HETATM   28  C   UNL     1     -42.241  54.467 -52.473  1.00  0.00     0.293 C 
HETATM   29  O   UNL     1     -43.056  53.753 -51.909  1.00  0.00    -0.259 OA
BRANCH  28  30
HETATM   30  O   UNL     1     -41.054  54.875 -51.960  1.00  0.00    -0.318 OA
BRANCH  30  31
HETATM   31  C   UNL     1     -40.960  54.832 -50.527  1.00  0.00     0.174 C 
HETATM   32  C   UNL     1     -41.367  56.165 -49.922  1.00  0.00     0.034 C 
ENDBRANCH  30  31
ENDBRANCH  28  30
ENDBRANCH   1  28
TORSDOF 7
ENDMDL
MODEL 8
REMARK VINA RESULT:      -7.1      4.219      8.175
REMARK  7 active torsions:
REMARK  status: ('A' for Active; 'I' for Inactive)
REMARK    1  A    between atoms: C_2  and  O_3 
REMARK    2  A    between atoms: O_3  and  C_4 
REMARK    3  A    between atoms: C_4  and  C_5 
REMARK    4  A    between atoms: C_6  and  C_7 
REMARK    5  A    between atoms: C_18  and  S_19 
REMARK    6  A    between atoms: S_19  and  C_20 
REMARK    7  A    between atoms: C_20  and  C_21 
ROOT
HETATM    1  C   UNL     1     -42.362  54.951 -53.841  1.00  0.00     0.070 A 
HETATM    2  C   UNL     1     -43.371  56.074 -54.071  1.00  0.00     0.203 A 
HETATM    3  N   UNL     1     -43.329  56.557 -55.458  1.00  0.00    -0.082 N 
HETATM    4  C   UNL     1     -42.512  56.043 -56.425  1.00  0.00     0.726 A 
HETATM    5  N   UNL     1     -41.694  55.021 -56.122  1.00  0.00    -0.192 N 
HETATM    6  N   UNL     1     -44.115  57.534 -55.952  1.00  0.00    -0.128 NA
HETATM    7  C   UNL     1     -43.646  57.624 -57.203  1.00  0.00     0.226 A 
HETATM    8  N   UNL     1     -42.687  56.702 -57.541  1.00  0.00    -0.035 NA
HETATM    9  C   UNL     1     -41.590  54.472 -54.849  1.00  0.00     0.037 A 
HETATM   10  C   UNL     1     -40.607  53.335 -54.710  1.00  0.00     0.070 C 
HETATM   11  H   UNL     1     -41.073  54.659 -56.843  1.00  0.00     0.184 HD
ENDROOT
BRANCH   7  12
HETATM   12  S   UNL     1     -44.221  58.858 -58.288  1.00  0.00    -0.083 SA
BRANCH  12  13
HETATM   13  C   UNL     1     -42.884  58.847 -59.515  1.00  0.00     0.123 C 
BRANCH  13  14
HETATM   14  C   UNL     1     -42.076  60.123 -59.470  1.00  0.00    -0.027 A 
HETATM   15  C   UNL     1     -41.810  60.896 -60.613  1.00  0.00     0.041 A 
HETATM   16 CL   UNL     1     -42.396  60.456 -62.179  1.00  0.00    -0.084 Cl
HETATM   17  C   UNL     1     -41.051  62.067 -60.520  1.00  0.00     0.024 A 
HETATM   18  C   UNL     1     -40.537  62.477 -59.289  1.00  0.00     0.002 A 
HETATM   19  C   UNL     1     -40.781  61.715 -58.150  1.00  0.00     0.001 A 
HETATM   20  C   UNL     1     -41.543  60.549 -58.239  1.00  0.00     0.009 A 
ENDBRANCH  13  14
ENDBRANCH  12  13
ENDBRANCH   7  12
BRANCH   2  21
HETATM   21  C   UNL     1     -43.219  57.254 -53.111  1.00  0.00    -0.028 A 
HETATM   22  C   UNL     1     -44.232  57.604 -52.201  1.00  0.00     0.011 A 
HETATM   23  C   UNL     1     -44.063  58.693 -51.339  1.00  0.00     0.024 A 
HETATM   24  C   UNL     1     -42.881  59.430 -51.373  1.00  0.00     0.034 A 
HETATM   25 CL   UNL     1     -42.679  60.770 -50.314  1.00  0.00    -0.084 Cl
HETATM   26  C   UNL     1     -41.863  59.089 -52.258  1.00  0.00     0.024 A 
HETATM   27  C   UNL     1     -42.029  58.005 -53.121  1.00  0.00     0.011 A 
ENDBRANCH   2  21
BRANCH   1  28
HETATM   28  C   UNL     1     -42.211  54.451 -52.455  1.00  0.00     0.293 C 
HETATM   29  O   UNL     1     -43.053  53.784 -51.873  1.00  0.00    -0.259 OA
BRANCH  28  30
HETATM   30  O   UNL     1     -41.004  54.817 -51.959  1.00  0.00    -0.318 OA
BRANCH  30  31
HETATM   31  C   UNL     1     -40.910  54.825 -50.525  1.00  0.00     0.174 C 
HETATM   32  C   UNL     1     -41.351  56.166 -49.965  1.00  0.00     0.034 C 
ENDBRANCH  30  31
ENDBRANCH  28  30
ENDBRANCH   1  28
TORSDOF 7
ENDMDL
MODEL 9
REMARK VINA RESULT:      -6.9      3.460      5.484
REMARK  7 active torsions:
REMARK  status: ('A' for Active; 'I' for Inactive)
REMARK    1  A    between atoms: C_2  and  O_3 
REMARK    2  A    between atoms: O_3  and  C_4 
REMARK    3  A    between atoms: C_4  and  C_5 
REMARK    4  A    between atoms: C_6  and  C_7 
REMARK    5  A    between atoms: C_18  and  S_19 
REMARK    6  A    between atoms: S_19  and  C_20 
REMARK    7  A    between atoms: C_20  and  C_21 
ROOT
HETATM    1  C   UNL     1     -43.813  58.633 -57.621  1.00  0.00     0.070 A 
HETATM    2  C   UNL     1     -42.754  58.360 -56.555  1.00  0.00     0.203 A 
HETATM    3  N   UNL     1     -42.563  56.918 -56.345  1.00  0.00    -0.082 N 
HETATM    4  C   UNL     1     -43.227  55.947 -57.040  1.00  0.00     0.726 A 
HETATM    5  N   UNL     1     -44.107  56.302 -57.992  1.00  0.00    -0.192 N 
HETATM    6  N   UNL     1     -41.685  56.381 -55.474  1.00  0.00    -0.128 NA
HETATM    7  C   UNL     1     -41.946  55.076 -55.628  1.00  0.00     0.226 A 
HETATM    8  N   UNL     1     -42.861  54.769 -56.605  1.00  0.00    -0.035 NA
HETATM    9  C   UNL     1     -44.425  57.622 -58.288  1.00  0.00     0.037 A 
HETATM   10  C   UNL     1     -45.445  57.814 -59.386  1.00  0.00     0.070 C 
HETATM   11  H   UNL     1     -44.613  55.572 -58.489  1.00  0.00     0.184 HD
ENDROOT
BRANCH   7  12
HETATM   12  S   UNL     1     -41.177  53.885 -54.619  1.00  0.00    -0.083 SA
BRANCH  12  13
HETATM   13  C   UNL     1     -42.271  53.943 -53.172  1.00  0.00     0.123 C 
BRANCH  13  14
HETATM   14  C   UNL     1     -41.498  54.185 -51.898  1.00  0.00    -0.027 A 
HETATM   15  C   UNL     1     -41.447  55.439 -51.265  1.00  0.00     0.041 A 
HETATM   16 CL   UNL     1     -42.278  56.819 -51.889  1.00  0.00    -0.084 Cl
HETATM   17  C   UNL     1     -40.711  55.613 -50.088  1.00  0.00     0.024 A 
HETATM   18  C   UNL     1     -40.007  54.544 -49.533  1.00  0.00     0.002 A 
HETATM   19  C   UNL     1     -40.036  53.299 -50.156  1.00  0.00     0.001 A 
HETATM   20  C   UNL     1     -40.774  53.121 -51.327  1.00  0.00     0.009 A 
ENDBRANCH  13  14
ENDBRANCH  12  13
ENDBRANCH   7  12
BRANCH   2  21
HETATM   21  C   UNL     1     -43.029  59.042 -55.214  1.00  0.00    -0.028 A 
HETATM   22  C   UNL     1     -44.191  58.773 -54.470  1.00  0.00     0.011 A 
HETATM   23  C   UNL     1     -44.414  59.418 -53.249  1.00  0.00     0.024 A 
HETATM   24  C   UNL     1     -43.477  60.325 -52.760  1.00  0.00     0.034 A 
HETATM   25 CL   UNL     1     -43.756  61.118 -51.259  1.00  0.00    -0.084 Cl
HETATM   26  C   UNL     1     -42.314  60.593 -53.477  1.00  0.00     0.024 A 
HETATM   27  C   UNL     1     -42.090  59.953 -54.697  1.00  0.00     0.011 A 
ENDBRANCH   2  21
BRANCH   1  28
HETATM   28  C   UNL     1     -44.194  60.045 -57.848  1.00  0.00     0.293 C 
HETATM   29  O   UNL     1     -45.149  60.589 -57.315  1.00  0.00    -0.259 OA
BRANCH  28  30
HETATM   30  O   UNL     1     -43.317  60.633 -58.698  1.00  0.00    -0.318 OA
BRANCH  30  31
HETATM   31  C   UNL     1     -42.575  61.733 -58.145  1.00  0.00     0.174 C 
HETATM   32  C   UNL     1     -41.085  61.433 -58.151  1.00  0.00     0.034 C 
ENDBRANCH  30  31
ENDBRANCH  28  30
ENDBRANCH   1  28
TORSDOF 7
ENDMDL
MODEL 10
REMARK VINA RESULT:      -6.9      4.167      8.028
REMARK  7 active torsions:
REMARK  status: ('A' for Active; 'I' for Inactive)
REMARK    1  A    between atoms: C_2  and  O_3 
REMARK    2  A    between atoms: O_3  and  C_4 
REMARK    3  A    between atoms: C_4  and  C_5 
REMARK    4  A    between atoms: C_6  and  C_7 
REMARK    5  A    between atoms: C_18  and  S_19 
REMARK    6  A    between atoms: S_19  and  C_20 
REMARK    7  A    between atoms: C_20  and  C_21 
ROOT
HETATM    1  C   UNL     1     -42.754  54.735 -53.372  1.00  0.00     0.070 A 
HETATM    2  C   UNL     1     -43.609  55.933 -53.780  1.00  0.00     0.203 A 
HETATM    3  N   UNL     1     -43.485  56.216 -55.216  1.00  0.00    -0.082 N 
HETATM    4  C   UNL     1     -42.725  55.480 -56.081  1.00  0.00     0.726 A 
HETATM    5  N   UNL     1     -42.047  54.414 -55.620  1.00  0.00    -0.192 N 
HETATM    6  N   UNL     1     -44.134  57.207 -55.860  1.00  0.00    -0.128 NA
HETATM    7  C   UNL     1     -43.638  57.070 -57.096  1.00  0.00     0.226 A 
HETATM    8  N   UNL     1     -42.798  55.999 -57.279  1.00  0.00    -0.035 NA
HETATM    9  C   UNL     1     -42.033  54.034 -54.283  1.00  0.00     0.037 A 
HETATM   10  C   UNL     1     -41.204  52.813 -53.964  1.00  0.00     0.070 C 
HETATM   11  H   UNL     1     -41.467  53.885 -56.267  1.00  0.00     0.184 HD
ENDROOT
BRANCH   7  12
HETATM   12  S   UNL     1     -44.035  58.208 -58.351  1.00  0.00    -0.083 SA
BRANCH  12  13
HETATM   13  C   UNL     1     -42.475  58.213 -59.278  1.00  0.00     0.123 C 
BRANCH  13  14
HETATM   14  C   UNL     1     -42.039  59.617 -59.627  1.00  0.00    -0.027 A 
HETATM   15  C   UNL     1     -41.685  60.569 -58.656  1.00  0.00     0.041 A 
HETATM   16 CL   UNL     1     -41.711  60.211 -56.965  1.00  0.00    -0.084 Cl
HETATM   17  C   UNL     1     -41.294  61.858 -59.032  1.00  0.00     0.024 A 
HETATM   18  C   UNL     1     -41.260  62.219 -60.379  1.00  0.00     0.002 A 
HETATM   19  C   UNL     1     -41.621  61.291 -61.353  1.00  0.00     0.001 A 
HETATM   20  C   UNL     1     -42.006  60.002 -60.981  1.00  0.00     0.009 A 
ENDBRANCH  13  14
ENDBRANCH  12  13
ENDBRANCH   7  12
BRANCH   2  21
HETATM   21  C   UNL     1     -43.323  57.204 -52.979  1.00  0.00    -0.028 A 
HETATM   22  C   UNL     1     -42.097  57.882 -53.078  1.00  0.00     0.011 A 
HETATM   23  C   UNL     1     -41.867  59.040 -52.328  1.00  0.00     0.024 A 
HETATM   24  C   UNL     1     -42.860  59.532 -51.484  1.00  0.00     0.034 A 
HETATM   25 CL   UNL     1     -42.572  60.955 -50.561  1.00  0.00    -0.084 Cl
HETATM   26  C   UNL     1     -44.086  58.880 -51.384  1.00  0.00     0.024 A 
HETATM   27  C   UNL     1     -44.318  57.723 -52.129  1.00  0.00     0.011 A 
ENDBRANCH   2  21
BRANCH   1  28
HETATM   28  C   UNL     1     -42.688  54.412 -51.928  1.00  0.00     0.293 C 
HETATM   29  O   UNL     1     -43.576  53.841 -51.315  1.00  0.00    -0.259 OA
BRANCH  28  30
HETATM   30  O   UNL     1     -41.499  54.813 -51.416  1.00  0.00    -0.318 OA
BRANCH  30  31
HETATM   31  C   UNL     1     -41.581  55.540 -50.179  1.00  0.00     0.174 C 
HETATM   32  C   UNL     1     -41.063  54.697 -49.025  1.00  0.00     0.034 C 
ENDBRANCH  30  31
ENDBRANCH  28  30
ENDBRANCH   1  28
TORSDOF 7
ENDMDL
