MODEL 1
REMARK VINA RESULT:      -8.1      0.000      0.000
REMARK  6 active torsions:
REMARK  status: ('A' for Active; 'I' for Inactive)
REMARK    1  A    between atoms: C_4  and  C_5 
REMARK    2  A    between atoms: C_9  and  N_10 
REMARK       I    between atoms: N_10  and  C_11 
REMARK    3  A    between atoms: C_11  and  C_12 
REMARK    4  A    between atoms: C_12  and  C_13 
REMARK    5  A    between atoms: C_13  and  C_14 
REMARK    6  A    between atoms: C_13  and  C_20 
ROOT
HETATM    1  N   UNL     1     -41.809  55.672 -56.217  1.00  0.00    -0.312 N 
HETATM    2  C   UNL     1     -41.961  54.524 -55.469  1.00  0.00     0.224 C 
HETATM    3  O   UNL     1     -43.061  54.029 -55.206  1.00  0.00    -0.273 OA
HETATM    4  H   UNL     1     -40.886  56.018 -56.447  1.00  0.00     0.170 HD
ENDROOT
BRANCH   1   5
HETATM    5  C   UNL     1     -42.883  56.381 -56.719  1.00  0.00     0.132 A 
HETATM    6  N   UNL     1     -43.658  57.228 -55.974  1.00  0.00    -0.261 N 
HETATM    7  N   UNL     1     -44.653  57.805 -56.669  1.00  0.00    -0.170 NA
HETATM    8  H   UNL     1     -43.545  57.437 -54.985  1.00  0.00     0.191 HD
HETATM    9  C   UNL     1     -44.491  57.326 -57.911  1.00  0.00     0.120 A 
HETATM   10  C   UNL     1     -43.394  56.418 -58.000  1.00  0.00     0.017 A 
HETATM   11  C   UNL     1     -42.912  55.703 -59.208  1.00  0.00     0.055 C 
BRANCH   9  12
HETATM   12  C   UNL     1     -45.381  57.739 -59.040  1.00  0.00     0.106 A 
HETATM   13  O   UNL     1     -46.286  56.921 -59.664  1.00  0.00    -0.313 OA
HETATM   14  C   UNL     1     -46.884  57.648 -60.648  1.00  0.00     0.050 A 
HETATM   15  C   UNL     1     -47.894  56.941 -61.461  1.00  0.00     0.076 C 
HETATM   16  C   UNL     1     -46.389  58.932 -60.658  1.00  0.00     0.035 A 
HETATM   17  C   UNL     1     -45.422  58.990 -59.626  1.00  0.00     0.042 A 
ENDBRANCH   9  12
ENDBRANCH   1   5
BRANCH   2  18
HETATM   18  C   UNL     1     -40.692  53.910 -54.881  1.00  0.00     0.116 C 
BRANCH  18  19
HETATM   19  C   UNL     1     -40.819  52.826 -53.789  1.00  0.00     0.049 C 
BRANCH  19  20
HETATM   20  C   UNL     1     -40.979  53.343 -52.344  1.00  0.00    -0.050 A 
HETATM   21  C   UNL     1     -42.156  53.937 -51.855  1.00  0.00     0.008 A 
HETATM   22  C   UNL     1     -42.243  54.402 -50.537  1.00  0.00     0.001 A 
HETATM   23  C   UNL     1     -41.167  54.258 -49.670  1.00  0.00     0.000 A 
HETATM   24  C   UNL     1     -40.008  53.631 -50.113  1.00  0.00     0.001 A 
HETATM   25  C   UNL     1     -39.922  53.168 -51.428  1.00  0.00     0.008 A 
ENDBRANCH  19  20
BRANCH  19  26
HETATM   26  C   UNL     1     -39.784  51.705 -53.903  1.00  0.00    -0.027 C 
HETATM   27  C   UNL     1     -39.983  50.443 -54.310  1.00  0.00     0.007 C 
ENDBRANCH  19  26
ENDBRANCH  18  19
ENDBRANCH   2  18
TORSDOF 6
ENDMDL
MODEL 2
REMARK VINA RESULT:      -8.1      0.862      2.495
REMARK  6 active torsions:
REMARK  status: ('A' for Active; 'I' for Inactive)
REMARK    1  A    between atoms: C_4  and  C_5 
REMARK    2  A    between atoms: C_9  and  N_10 
REMARK       I    between atoms: N_10  and  C_11 
REMARK    3  A    between atoms: C_11  and  C_12 
REMARK    4  A    between atoms: C_12  and  C_13 
REMARK    5  A    between atoms: C_13  and  C_14 
REMARK    6  A    between atoms: C_13  and  C_20 
ROOT
HETATM    1  N   UNL     1     -41.794  56.074 -56.096  1.00  0.00    -0.312 N 
HETATM    2  C   UNL     1     -41.792  54.775 -55.632  1.00  0.00     0.224 C 
HETATM    3  O   UNL     1     -42.786  54.045 -55.661  1.00  0.00    -0.273 OA
HETATM    4  H   UNL     1     -40.943  56.622 -56.094  1.00  0.00     0.170 HD
ENDROOT
BRANCH   1   5
HETATM    5  C   UNL     1     -42.923  56.676 -56.616  1.00  0.00     0.132 A 
HETATM    6  N   UNL     1     -43.754  57.495 -55.900  1.00  0.00    -0.261 N 
HETATM    7  N   UNL     1     -44.795  57.962 -56.608  1.00  0.00    -0.170 NA
HETATM    8  H   UNL     1     -43.648  57.756 -54.923  1.00  0.00     0.191 HD
HETATM    9  C   UNL     1     -44.609  57.441 -57.829  1.00  0.00     0.120 A 
HETATM   10  C   UNL     1     -43.446  56.616 -57.891  1.00  0.00     0.017 A 
HETATM   11  C   UNL     1     -42.922  55.885 -59.072  1.00  0.00     0.055 C 
BRANCH   9  12
HETATM   12  C   UNL     1     -45.537  57.734 -58.965  1.00  0.00     0.106 A 
HETATM   13  O   UNL     1     -46.264  56.793 -59.646  1.00  0.00    -0.313 OA
HETATM   14  C   UNL     1     -46.966  57.441 -60.615  1.00  0.00     0.050 A 
HETATM   15  C   UNL     1     -47.812  56.598 -61.483  1.00  0.00     0.076 C 
HETATM   16  C   UNL     1     -46.716  58.794 -60.561  1.00  0.00     0.035 A 
HETATM   17  C   UNL     1     -45.796  58.981 -59.501  1.00  0.00     0.042 A 
ENDBRANCH   9  12
ENDBRANCH   1   5
BRANCH   2  18
HETATM   18  C   UNL     1     -40.504  54.279 -54.977  1.00  0.00     0.116 C 
BRANCH  18  19
HETATM   19  C   UNL     1     -40.545  53.797 -53.510  1.00  0.00     0.049 C 
BRANCH  19  20
HETATM   20  C   UNL     1     -40.202  52.311 -53.280  1.00  0.00    -0.050 A 
HETATM   21  C   UNL     1     -39.733  51.800 -52.057  1.00  0.00     0.008 A 
HETATM   22  C   UNL     1     -39.423  50.443 -51.906  1.00  0.00     0.001 A 
HETATM   23  C   UNL     1     -39.602  49.561 -52.966  1.00  0.00     0.000 A 
HETATM   24  C   UNL     1     -40.110  50.031 -54.172  1.00  0.00     0.001 A 
HETATM   25  C   UNL     1     -40.418  51.385 -54.320  1.00  0.00     0.008 A 
ENDBRANCH  19  20
BRANCH  19  26
HETATM   26  C   UNL     1     -41.795  54.239 -52.747  1.00  0.00    -0.027 C 
HETATM   27  C   UNL     1     -42.049  54.102 -51.437  1.00  0.00     0.007 C 
ENDBRANCH  19  26
ENDBRANCH  18  19
ENDBRANCH   2  18
TORSDOF 6
ENDMDL
MODEL 3
REMARK VINA RESULT:      -8.1      2.041      3.696
REMARK  6 active torsions:
REMARK  status: ('A' for Active; 'I' for Inactive)
REMARK    1  A    between atoms: C_4  and  C_5 
REMARK    2  A    between atoms: C_9  and  N_10 
REMARK       I    between atoms: N_10  and  C_11 
REMARK    3  A    between atoms: C_11  and  C_12 
REMARK    4  A    between atoms: C_12  and  C_13 
REMARK    5  A    between atoms: C_13  and  C_14 
REMARK    6  A    between atoms: C_13  and  C_20 
ROOT
HETATM    1  N   UNL     1     -43.420  55.030 -53.089  1.00  0.00    -0.312 N 
HETATM    2  C   UNL     1     -42.745  55.472 -51.971  1.00  0.00     0.224 C 
HETATM    3  O   UNL     1     -42.453  56.656 -51.781  1.00  0.00    -0.273 OA
HETATM    4  H   UNL     1     -43.679  54.056 -53.183  1.00  0.00     0.170 HD
ENDROOT
BRANCH   1   5
HETATM    5  C   UNL     1     -43.809  55.879 -54.107  1.00  0.00     0.132 A 
HETATM    6  N   UNL     1     -44.742  56.871 -53.964  1.00  0.00    -0.261 N 
HETATM    7  N   UNL     1     -44.967  57.568 -55.090  1.00  0.00    -0.170 NA
HETATM    8  H   UNL     1     -45.253  57.101 -53.116  1.00  0.00     0.191 HD
HETATM    9  C   UNL     1     -44.129  57.017 -55.979  1.00  0.00     0.120 A 
HETATM   10  C   UNL     1     -43.377  55.942 -55.416  1.00  0.00     0.017 A 
HETATM   11  C   UNL     1     -42.353  55.108 -56.092  1.00  0.00     0.055 C 
BRANCH   9  12
HETATM   12  C   UNL     1     -44.024  57.517 -57.384  1.00  0.00     0.106 A 
HETATM   13  O   UNL     1     -42.859  57.602 -58.101  1.00  0.00    -0.313 OA
HETATM   14  C   UNL     1     -43.166  58.122 -59.321  1.00  0.00     0.050 A 
HETATM   15  C   UNL     1     -42.038  58.312 -60.254  1.00  0.00     0.076 C 
HETATM   16  C   UNL     1     -44.519  58.361 -59.410  1.00  0.00     0.035 A 
HETATM   17  C   UNL     1     -45.069  57.974 -58.165  1.00  0.00     0.042 A 
ENDBRANCH   9  12
ENDBRANCH   1   5
BRANCH   2  18
HETATM   18  C   UNL     1     -42.275  54.406 -50.983  1.00  0.00     0.116 C 
BRANCH  18  19
HETATM   19  C   UNL     1     -40.790  53.979 -50.990  1.00  0.00     0.049 C 
BRANCH  19  20
HETATM   20  C   UNL     1     -40.411  52.879 -52.003  1.00  0.00    -0.050 A 
HETATM   21  C   UNL     1     -40.571  53.012 -53.394  1.00  0.00     0.008 A 
HETATM   22  C   UNL     1     -40.223  51.976 -54.268  1.00  0.00     0.001 A 
HETATM   23  C   UNL     1     -39.681  50.795 -53.776  1.00  0.00     0.000 A 
HETATM   24  C   UNL     1     -39.466  50.655 -52.409  1.00  0.00     0.001 A 
HETATM   25  C   UNL     1     -39.815  51.690 -51.538  1.00  0.00     0.008 A 
ENDBRANCH  19  20
BRANCH  19  26
HETATM   26  C   UNL     1     -40.212  53.724 -49.597  1.00  0.00    -0.027 C 
HETATM   27  C   UNL     1     -40.588  54.281 -48.436  1.00  0.00     0.007 C 
ENDBRANCH  19  26
ENDBRANCH  18  19
ENDBRANCH   2  18
TORSDOF 6
ENDMDL
MODEL 4
REMARK VINA RESULT:      -7.9     15.280     17.245
REMARK  6 active torsions:
REMARK  status: ('A' for Active; 'I' for Inactive)
REMARK    1  A    between atoms: C_4  and  C_5 
REMARK    2  A    between atoms: C_9  and  N_10 
REMARK       I    between atoms: N_10  and  C_11 
REMARK    3  A    between atoms: C_11  and  C_12 
REMARK    4  A    between atoms: C_12  and  C_13 
REMARK    5  A    between atoms: C_13  and  C_14 
REMARK    6  A    between atoms: C_13  and  C_20 
ROOT
HETATM    1  N   UNL     1     -34.933  42.004 -53.523  1.00  0.00    -0.312 N 
HETATM    2  C   UNL     1     -35.002  41.181 -52.418  1.00  0.00     0.224 C 
HETATM    3  O   UNL     1     -35.806  40.250 -52.316  1.00  0.00    -0.273 OA
HETATM    4  H   UNL     1     -34.228  42.727 -53.584  1.00  0.00     0.170 HD
ENDROOT
BRANCH   1   5
HETATM    5  C   UNL     1     -35.780  41.866 -54.606  1.00  0.00     0.132 A 
HETATM    6  N   UNL     1     -37.144  41.963 -54.531  1.00  0.00    -0.261 N 
HETATM    7  N   UNL     1     -37.765  41.788 -55.709  1.00  0.00    -0.170 NA
HETATM    8  H   UNL     1     -37.690  42.143 -53.692  1.00  0.00     0.191 HD
HETATM    9  C   UNL     1     -36.758  41.595 -56.573  1.00  0.00     0.120 A 
HETATM   10  C   UNL     1     -35.484  41.628 -55.933  1.00  0.00     0.017 A 
HETATM   11  C   UNL     1     -34.152  41.464 -56.566  1.00  0.00     0.055 C 
BRANCH   9  12
HETATM   12  C   UNL     1     -36.999  41.387 -58.035  1.00  0.00     0.106 A 
HETATM   13  O   UNL     1     -37.107  40.165 -58.645  1.00  0.00    -0.313 OA
HETATM   14  C   UNL     1     -37.301  40.387 -59.974  1.00  0.00     0.050 A 
HETATM   15  C   UNL     1     -37.429  39.187 -60.825  1.00  0.00     0.076 C 
HETATM   16  C   UNL     1     -37.335  41.739 -60.231  1.00  0.00     0.035 A 
HETATM   17  C   UNL     1     -37.139  42.381 -58.985  1.00  0.00     0.042 A 
ENDBRANCH   9  12
ENDBRANCH   1   5
BRANCH   2  18
HETATM   18  C   UNL     1     -34.082  41.523 -51.247  1.00  0.00     0.116 C 
BRANCH  18  19
HETATM   19  C   UNL     1     -32.824  40.660 -51.006  1.00  0.00     0.049 C 
BRANCH  19  20
HETATM   20  C   UNL     1     -32.382  39.770 -52.185  1.00  0.00    -0.050 A 
HETATM   21  C   UNL     1     -31.933  40.276 -53.418  1.00  0.00     0.008 A 
HETATM   22  C   UNL     1     -31.557  39.421 -54.462  1.00  0.00     0.001 A 
HETATM   23  C   UNL     1     -31.594  38.043 -54.288  1.00  0.00     0.000 A 
HETATM   24  C   UNL     1     -31.988  37.516 -53.063  1.00  0.00     0.001 A 
HETATM   25  C   UNL     1     -32.363  38.370 -52.023  1.00  0.00     0.008 A 
ENDBRANCH  19  20
BRANCH  19  26
HETATM   26  C   UNL     1     -32.830  39.913 -49.672  1.00  0.00    -0.027 C 
HETATM   27  C   UNL     1     -31.857  39.869 -48.750  1.00  0.00     0.007 C 
ENDBRANCH  19  26
ENDBRANCH  18  19
ENDBRANCH   2  18
TORSDOF 6
ENDMDL
MODEL 5
REMARK VINA RESULT:      -7.8      3.619      4.831
REMARK  6 active torsions:
REMARK  status: ('A' for Active; 'I' for Inactive)
REMARK    1  A    between atoms: C_4  and  C_5 
REMARK    2  A    between atoms: C_9  and  N_10 
REMARK       I    between atoms: N_10  and  C_11 
REMARK    3  A    between atoms: C_11  and  C_12 
REMARK    4  A    between atoms: C_12  and  C_13 
REMARK    5  A    between atoms: C_13  and  C_14 
REMARK    6  A    between atoms: C_13  and  C_20 
ROOT
HETATM    1  N   UNL     1     -41.413  56.261 -53.069  1.00  0.00    -0.312 N 
HETATM    2  C   UNL     1     -42.071  55.934 -51.902  1.00  0.00     0.224 C 
HETATM    3  O   UNL     1     -42.771  56.733 -51.274  1.00  0.00    -0.273 OA
HETATM    4  H   UNL     1     -40.887  55.562 -53.576  1.00  0.00     0.170 HD
ENDROOT
BRANCH   1   5
HETATM    5  C   UNL     1     -41.466  57.525 -53.623  1.00  0.00     0.132 A 
HETATM    6  N   UNL     1     -40.970  58.649 -53.019  1.00  0.00    -0.261 N 
HETATM    7  N   UNL     1     -41.138  59.770 -53.739  1.00  0.00    -0.170 NA
HETATM    8  H   UNL     1     -40.514  58.694 -52.111  1.00  0.00     0.191 HD
HETATM    9  C   UNL     1     -41.742  59.343 -54.857  1.00  0.00     0.120 A 
HETATM   10  C   UNL     1     -41.979  57.935 -54.837  1.00  0.00     0.017 A 
HETATM   11  C   UNL     1     -42.615  57.113 -55.896  1.00  0.00     0.055 C 
BRANCH   9  12
HETATM   12  C   UNL     1     -42.093  60.274 -55.973  1.00  0.00     0.106 A 
HETATM   13  O   UNL     1     -41.302  60.527 -57.062  1.00  0.00    -0.313 OA
HETATM   14  C   UNL     1     -41.950  61.438 -57.838  1.00  0.00     0.050 A 
HETATM   15  C   UNL     1     -41.254  61.863 -59.068  1.00  0.00     0.076 C 
HETATM   16  C   UNL     1     -43.161  61.768 -57.272  1.00  0.00     0.035 A 
HETATM   17  C   UNL     1     -43.252  61.021 -56.073  1.00  0.00     0.042 A 
ENDBRANCH   9  12
ENDBRANCH   1   5
BRANCH   2  18
HETATM   18  C   UNL     1     -41.830  54.533 -51.344  1.00  0.00     0.116 C 
BRANCH  18  19
HETATM   19  C   UNL     1     -40.396  53.957 -51.357  1.00  0.00     0.049 C 
BRANCH  19  20
HETATM   20  C   UNL     1     -40.191  52.684 -52.203  1.00  0.00    -0.050 A 
HETATM   21  C   UNL     1     -39.699  51.473 -51.683  1.00  0.00     0.008 A 
HETATM   22  C   UNL     1     -39.519  50.350 -52.500  1.00  0.00     0.001 A 
HETATM   23  C   UNL     1     -39.854  50.403 -53.848  1.00  0.00     0.000 A 
HETATM   24  C   UNL     1     -40.389  51.571 -54.377  1.00  0.00     0.001 A 
HETATM   25  C   UNL     1     -40.567  52.691 -53.561  1.00  0.00     0.008 A 
ENDBRANCH  19  20
BRANCH  19  26
HETATM   26  C   UNL     1     -39.756  53.855 -49.972  1.00  0.00    -0.027 C 
HETATM   27  C   UNL     1     -40.340  54.051 -48.780  1.00  0.00     0.007 C 
ENDBRANCH  19  26
ENDBRANCH  18  19
ENDBRANCH   2  18
TORSDOF 6
ENDMDL
MODEL 6
REMARK VINA RESULT:      -7.8     15.232     17.062
REMARK  6 active torsions:
REMARK  status: ('A' for Active; 'I' for Inactive)
REMARK    1  A    between atoms: C_4  and  C_5 
REMARK    2  A    between atoms: C_9  and  N_10 
REMARK       I    between atoms: N_10  and  C_11 
REMARK    3  A    between atoms: C_11  and  C_12 
REMARK    4  A    between atoms: C_12  and  C_13 
REMARK    5  A    between atoms: C_13  and  C_14 
REMARK    6  A    between atoms: C_13  and  C_20 
ROOT
HETATM    1  N   UNL     1     -35.728  40.743 -53.100  1.00  0.00    -0.312 N 
HETATM    2  C   UNL     1     -35.317  41.809 -52.327  1.00  0.00     0.224 C 
HETATM    3  O   UNL     1     -35.555  42.985 -52.614  1.00  0.00    -0.273 OA
HETATM    4  H   UNL     1     -35.550  39.793 -52.803  1.00  0.00     0.170 HD
ENDROOT
BRANCH   1   5
HETATM    5  C   UNL     1     -36.426  40.907 -54.280  1.00  0.00     0.132 A 
HETATM    6  N   UNL     1     -37.761  41.205 -54.348  1.00  0.00    -0.261 N 
HETATM    7  N   UNL     1     -38.229  41.310 -55.602  1.00  0.00    -0.170 NA
HETATM    8  H   UNL     1     -38.389  41.340 -53.559  1.00  0.00     0.191 HD
HETATM    9  C   UNL     1     -37.148  41.095 -56.365  1.00  0.00     0.120 A 
HETATM   10  C   UNL     1     -35.983  40.829 -55.585  1.00  0.00     0.017 A 
HETATM   11  C   UNL     1     -34.611  40.555 -56.079  1.00  0.00     0.055 C 
BRANCH   9  12
HETATM   12  C   UNL     1     -37.209  41.151 -57.858  1.00  0.00     0.106 A 
HETATM   13  O   UNL     1     -37.289  40.058 -58.681  1.00  0.00    -0.313 OA
HETATM   14  C   UNL     1     -37.302  40.512 -59.964  1.00  0.00     0.050 A 
HETATM   15  C   UNL     1     -37.371  39.484 -61.021  1.00  0.00     0.076 C 
HETATM   16  C   UNL     1     -37.247  41.888 -59.983  1.00  0.00     0.035 A 
HETATM   17  C   UNL     1     -37.185  42.297 -58.630  1.00  0.00     0.042 A 
ENDBRANCH   9  12
ENDBRANCH   1   5
BRANCH   2  18
HETATM   18  C   UNL     1     -34.453  41.484 -51.109  1.00  0.00     0.116 C 
BRANCH  18  19
HETATM   19  C   UNL     1     -33.490  40.278 -51.172  1.00  0.00     0.049 C 
BRANCH  19  20
HETATM   20  C   UNL     1     -33.161  39.610 -49.822  1.00  0.00    -0.050 A 
HETATM   21  C   UNL     1     -34.010  38.690 -49.180  1.00  0.00     0.008 A 
HETATM   22  C   UNL     1     -33.668  38.122 -47.947  1.00  0.00     0.001 A 
HETATM   23  C   UNL     1     -32.458  38.438 -47.341  1.00  0.00     0.000 A 
HETATM   24  C   UNL     1     -31.578  39.307 -47.976  1.00  0.00     0.001 A 
HETATM   25  C   UNL     1     -31.921  39.873 -49.207  1.00  0.00     0.008 A 
ENDBRANCH  19  20
BRANCH  19  26
HETATM   26  C   UNL     1     -32.247  40.521 -52.030  1.00  0.00    -0.027 C 
HETATM   27  C   UNL     1     -32.027  40.119 -53.290  1.00  0.00     0.007 C 
ENDBRANCH  19  26
ENDBRANCH  18  19
ENDBRANCH   2  18
TORSDOF 6
ENDMDL
MODEL 7
REMARK VINA RESULT:      -7.8      2.120      3.433
REMARK  6 active torsions:
REMARK  status: ('A' for Active; 'I' for Inactive)
REMARK    1  A    between atoms: C_4  and  C_5 
REMARK    2  A    between atoms: C_9  and  N_10 
REMARK       I    between atoms: N_10  and  C_11 
REMARK    3  A    between atoms: C_11  and  C_12 
REMARK    4  A    between atoms: C_12  and  C_13 
REMARK    5  A    between atoms: C_13  and  C_14 
REMARK    6  A    between atoms: C_13  and  C_20 
ROOT
HETATM    1  N   UNL     1     -43.161  55.108 -55.694  1.00  0.00    -0.312 N 
HETATM    2  C   UNL     1     -41.984  54.618 -55.169  1.00  0.00     0.224 C 
HETATM    3  O   UNL     1     -40.910  54.643 -55.776  1.00  0.00    -0.273 OA
HETATM    4  H   UNL     1     -44.010  55.109 -55.143  1.00  0.00     0.170 HD
ENDROOT
BRANCH   1   5
HETATM    5  C   UNL     1     -43.240  55.652 -56.961  1.00  0.00     0.132 A 
HETATM    6  N   UNL     1     -43.669  54.965 -58.065  1.00  0.00    -0.261 N 
HETATM    7  N   UNL     1     -43.656  55.693 -59.194  1.00  0.00    -0.170 NA
HETATM    8  H   UNL     1     -43.974  53.996 -58.091  1.00  0.00     0.191 HD
HETATM    9  C   UNL     1     -43.225  56.897 -58.792  1.00  0.00     0.120 A 
HETATM   10  C   UNL     1     -42.942  56.928 -57.393  1.00  0.00     0.017 A 
HETATM   11  C   UNL     1     -42.457  58.083 -56.597  1.00  0.00     0.055 C 
BRANCH   9  12
HETATM   12  C   UNL     1     -43.088  58.047 -59.739  1.00  0.00     0.106 A 
HETATM   13  O   UNL     1     -44.123  58.834 -60.172  1.00  0.00    -0.313 OA
HETATM   14  C   UNL     1     -43.607  59.751 -61.035  1.00  0.00     0.050 A 
HETATM   15  C   UNL     1     -44.567  60.698 -61.634  1.00  0.00     0.076 C 
HETATM   16  C   UNL     1     -42.246  59.578 -61.155  1.00  0.00     0.035 A 
HETATM   17  C   UNL     1     -41.914  58.482 -60.324  1.00  0.00     0.042 A 
ENDBRANCH   9  12
ENDBRANCH   1   5
BRANCH   2  18
HETATM   18  C   UNL     1     -42.069  53.939 -53.803  1.00  0.00     0.116 C 
BRANCH  18  19
HETATM   19  C   UNL     1     -40.763  53.613 -53.045  1.00  0.00     0.049 C 
BRANCH  19  20
HETATM   20  C   UNL     1     -40.317  52.137 -53.078  1.00  0.00    -0.050 A 
HETATM   21  C   UNL     1     -40.297  51.355 -54.247  1.00  0.00     0.008 A 
HETATM   22  C   UNL     1     -39.896  50.014 -54.219  1.00  0.00     0.001 A 
HETATM   23  C   UNL     1     -39.478  49.432 -53.028  1.00  0.00     0.000 A 
HETATM   24  C   UNL     1     -39.440  50.196 -51.867  1.00  0.00     0.001 A 
HETATM   25  C   UNL     1     -39.842  51.534 -51.897  1.00  0.00     0.008 A 
ENDBRANCH  19  20
BRANCH  19  26
HETATM   26  C   UNL     1     -40.691  54.220 -51.643  1.00  0.00    -0.027 C 
HETATM   27  C   UNL     1     -41.580  55.033 -51.053  1.00  0.00     0.007 C 
ENDBRANCH  19  26
ENDBRANCH  18  19
ENDBRANCH   2  18
TORSDOF 6
ENDMDL
MODEL 8
REMARK VINA RESULT:      -7.6      1.659      3.387
REMARK  6 active torsions:
REMARK  status: ('A' for Active; 'I' for Inactive)
REMARK    1  A    between atoms: C_4  and  C_5 
REMARK    2  A    between atoms: C_9  and  N_10 
REMARK       I    between atoms: N_10  and  C_11 
REMARK    3  A    between atoms: C_11  and  C_12 
REMARK    4  A    between atoms: C_12  and  C_13 
REMARK    5  A    between atoms: C_13  and  C_14 
REMARK    6  A    between atoms: C_13  and  C_20 
ROOT
HETATM    1  N   UNL     1     -42.796  55.263 -53.823  1.00  0.00    -0.312 N 
HETATM    2  C   UNL     1     -41.548  54.901 -53.360  1.00  0.00     0.224 C 
HETATM    3  O   UNL     1     -40.511  55.075 -54.005  1.00  0.00    -0.273 OA
HETATM    4  H   UNL     1     -43.615  55.143 -53.242  1.00  0.00     0.170 HD
ENDROOT
BRANCH   1   5
HETATM    5  C   UNL     1     -42.991  55.834 -55.065  1.00  0.00     0.132 A 
HETATM    6  N   UNL     1     -42.283  55.493 -56.186  1.00  0.00    -0.261 N 
HETATM    7  N   UNL     1     -42.638  56.185 -57.282  1.00  0.00    -0.170 NA
HETATM    8  H   UNL     1     -41.545  54.797 -56.244  1.00  0.00     0.191 HD
HETATM    9  C   UNL     1     -43.627  56.980 -56.850  1.00  0.00     0.120 A 
HETATM   10  C   UNL     1     -43.888  56.806 -55.458  1.00  0.00     0.017 A 
HETATM   11  C   UNL     1     -44.911  57.504 -54.639  1.00  0.00     0.055 C 
BRANCH   9  12
HETATM   12  C   UNL     1     -44.348  57.915 -57.767  1.00  0.00     0.106 A 
HETATM   13  O   UNL     1     -45.324  57.545 -58.654  1.00  0.00    -0.313 OA
HETATM   14  C   UNL     1     -45.720  58.665 -59.320  1.00  0.00     0.050 A 
HETATM   15  C   UNL     1     -46.766  58.482 -60.344  1.00  0.00     0.076 C 
HETATM   16  C   UNL     1     -45.022  59.761 -58.862  1.00  0.00     0.035 A 
HETATM   17  C   UNL     1     -44.140  59.278 -57.866  1.00  0.00     0.042 A 
ENDBRANCH   9  12
ENDBRANCH   1   5
BRANCH   2  18
HETATM   18  C   UNL     1     -41.495  54.174 -52.018  1.00  0.00     0.116 C 
BRANCH  18  19
HETATM   19  C   UNL     1     -40.158  53.559 -51.550  1.00  0.00     0.049 C 
BRANCH  19  20
HETATM   20  C   UNL     1     -39.931  52.080 -51.923  1.00  0.00    -0.050 A 
HETATM   21  C   UNL     1     -39.833  51.043 -50.978  1.00  0.00     0.008 A 
HETATM   22  C   UNL     1     -39.613  49.718 -51.371  1.00  0.00     0.001 A 
HETATM   23  C   UNL     1     -39.513  49.393 -52.718  1.00  0.00     0.000 A 
HETATM   24  C   UNL     1     -39.654  50.390 -53.677  1.00  0.00     0.001 A 
HETATM   25  C   UNL     1     -39.874  51.713 -53.283  1.00  0.00     0.008 A 
ENDBRANCH  19  20
BRANCH  19  26
HETATM   26  C   UNL     1     -39.814  53.859 -50.090  1.00  0.00    -0.027 C 
HETATM   27  C   UNL     1     -40.470  54.663 -49.240  1.00  0.00     0.007 C 
ENDBRANCH  19  26
ENDBRANCH  18  19
ENDBRANCH   2  18
TORSDOF 6
ENDMDL
MODEL 9
REMARK VINA RESULT:      -7.6      4.378      6.014
REMARK  6 active torsions:
REMARK  status: ('A' for Active; 'I' for Inactive)
REMARK    1  A    between atoms: C_4  and  C_5 
REMARK    2  A    between atoms: C_9  and  N_10 
REMARK       I    between atoms: N_10  and  C_11 
REMARK    3  A    between atoms: C_11  and  C_12 
REMARK    4  A    between atoms: C_12  and  C_13 
REMARK    5  A    between atoms: C_13  and  C_14 
REMARK    6  A    between atoms: C_13  and  C_20 
ROOT
HETATM    1  N   UNL     1     -40.884  56.444 -53.792  1.00  0.00    -0.312 N 
HETATM    2  C   UNL     1     -41.471  55.398 -54.473  1.00  0.00     0.224 C 
HETATM    3  O   UNL     1     -42.636  55.424 -54.879  1.00  0.00    -0.273 OA
HETATM    4  H   UNL     1     -39.911  56.398 -53.518  1.00  0.00     0.170 HD
ENDROOT
BRANCH   1   5
HETATM    5  C   UNL     1     -41.564  57.606 -53.486  1.00  0.00     0.132 A 
HETATM    6  N   UNL     1     -42.131  58.432 -54.419  1.00  0.00    -0.261 N 
HETATM    7  N   UNL     1     -42.735  59.510 -53.891  1.00  0.00    -0.170 NA
HETATM    8  H   UNL     1     -42.124  58.298 -55.426  1.00  0.00     0.191 HD
HETATM    9  C   UNL     1     -42.568  59.354 -52.570  1.00  0.00     0.120 A 
HETATM   10  C   UNL     1     -41.830  58.174 -52.256  1.00  0.00     0.017 A 
HETATM   11  C   UNL     1     -41.462  57.673 -50.909  1.00  0.00     0.055 C 
BRANCH   9  12
HETATM   12  C   UNL     1     -43.122  60.330 -51.582  1.00  0.00     0.106 A 
HETATM   13  O   UNL     1     -44.019  60.021 -50.594  1.00  0.00    -0.313 OA
HETATM   14  C   UNL     1     -44.298  61.170 -49.919  1.00  0.00     0.050 A 
HETATM   15  C   UNL     1     -45.267  61.058 -48.811  1.00  0.00     0.076 C 
HETATM   16  C   UNL     1     -43.580  62.218 -50.448  1.00  0.00     0.035 A 
HETATM   17  C   UNL     1     -42.826  61.679 -51.518  1.00  0.00     0.042 A 
ENDBRANCH   9  12
ENDBRANCH   1   5
BRANCH   2  18
HETATM   18  C   UNL     1     -40.637  54.129 -54.640  1.00  0.00     0.116 C 
BRANCH  18  19
HETATM   19  C   UNL     1     -40.813  52.977 -53.627  1.00  0.00     0.049 C 
BRANCH  19  20
HETATM   20  C   UNL     1     -40.936  53.395 -52.148  1.00  0.00    -0.050 A 
HETATM   21  C   UNL     1     -39.848  53.435 -51.257  1.00  0.00     0.008 A 
HETATM   22  C   UNL     1     -40.017  53.810 -49.918  1.00  0.00     0.001 A 
HETATM   23  C   UNL     1     -41.271  54.180 -49.447  1.00  0.00     0.000 A 
HETATM   24  C   UNL     1     -42.355  54.196 -50.318  1.00  0.00     0.001 A 
HETATM   25  C   UNL     1     -42.184  53.821 -51.653  1.00  0.00     0.008 A 
ENDBRANCH  19  20
BRANCH  19  26
HETATM   26  C   UNL     1     -39.841  51.815 -53.834  1.00  0.00    -0.027 C 
HETATM   27  C   UNL     1     -40.109  50.597 -54.330  1.00  0.00     0.007 C 
ENDBRANCH  19  26
ENDBRANCH  18  19
ENDBRANCH   2  18
TORSDOF 6
ENDMDL
MODEL 10
REMARK VINA RESULT:      -7.3      2.190      3.414
REMARK  6 active torsions:
REMARK  status: ('A' for Active; 'I' for Inactive)
REMARK    1  A    between atoms: C_4  and  C_5 
REMARK    2  A    between atoms: C_9  and  N_10 
REMARK       I    between atoms: N_10  and  C_11 
REMARK    3  A    between atoms: C_11  and  C_12 
REMARK    4  A    between atoms: C_12  and  C_13 
REMARK    5  A    between atoms: C_13  and  C_14 
REMARK    6  A    between atoms: C_13  and  C_20 
ROOT
HETATM    1  N   UNL     1     -43.969  56.191 -55.763  1.00  0.00    -0.312 N 
HETATM    2  C   UNL     1     -43.098  55.914 -54.730  1.00  0.00     0.224 C 
HETATM    3  O   UNL     1     -42.138  56.634 -54.443  1.00  0.00    -0.273 OA
HETATM    4  H   UNL     1     -44.770  55.597 -55.935  1.00  0.00     0.170 HD
ENDROOT
BRANCH   1   5
HETATM    5  C   UNL     1     -43.824  57.294 -56.582  1.00  0.00     0.132 A 
HETATM    6  N   UNL     1     -43.902  58.589 -56.146  1.00  0.00    -0.261 N 
HETATM    7  N   UNL     1     -43.737  59.499 -57.120  1.00  0.00    -0.170 NA
HETATM    8  H   UNL     1     -44.072  58.895 -55.191  1.00  0.00     0.191 HD
HETATM    9  C   UNL     1     -43.521  58.757 -58.216  1.00  0.00     0.120 A 
HETATM   10  C   UNL     1     -43.571  57.358 -57.937  1.00  0.00     0.017 A 
HETATM   11  C   UNL     1     -43.371  56.242 -58.894  1.00  0.00     0.055 C 
BRANCH   9  12
HETATM   12  C   UNL     1     -43.251  59.376 -59.550  1.00  0.00     0.106 A 
HETATM   13  O   UNL     1     -44.207  59.908 -60.375  1.00  0.00    -0.313 OA
HETATM   14  C   UNL     1     -43.579  60.350 -61.499  1.00  0.00     0.050 A 
HETATM   15  C   UNL     1     -44.440  60.953 -62.535  1.00  0.00     0.076 C 
HETATM   16  C   UNL     1     -42.224  60.125 -61.406  1.00  0.00     0.035 A 
HETATM   17  C   UNL     1     -42.014  59.497 -60.155  1.00  0.00     0.042 A 
ENDBRANCH   9  12
ENDBRANCH   1   5
BRANCH   2  18
HETATM   18  C   UNL     1     -43.313  54.600 -53.982  1.00  0.00     0.116 C 
BRANCH  18  19
HETATM   19  C   UNL     1     -42.465  54.305 -52.725  1.00  0.00     0.049 C 
BRANCH  19  20
HETATM   20  C   UNL     1     -41.351  53.252 -52.897  1.00  0.00    -0.050 A 
HETATM   21  C   UNL     1     -40.521  52.816 -51.848  1.00  0.00     0.008 A 
HETATM   22  C   UNL     1     -39.515  51.866 -52.063  1.00  0.00     0.001 A 
HETATM   23  C   UNL     1     -39.334  51.309 -53.323  1.00  0.00     0.000 A 
HETATM   24  C   UNL     1     -40.172  51.685 -54.367  1.00  0.00     0.001 A 
HETATM   25  C   UNL     1     -41.175  52.634 -54.151  1.00  0.00     0.008 A 
ENDBRANCH  19  20
BRANCH  19  26
HETATM   26  C   UNL     1     -43.290  54.089 -51.456  1.00  0.00    -0.027 C 
HETATM   27  C   UNL     1     -43.286  54.829 -50.337  1.00  0.00     0.007 C 
ENDBRANCH  19  26
ENDBRANCH  18  19
ENDBRANCH   2  18
TORSDOF 6
ENDMDL
