MODEL 1
REMARK VINA RESULT:      -8.3      0.000      0.000
REMARK  8 active torsions:
REMARK  status: ('A' for Active; 'I' for Inactive)
REMARK    1  A    between atoms: C_8  and  C_9 
REMARK       I    between atoms: C_9  and  N_10 
REMARK    2  A    between atoms: N_10  and  N_11 
REMARK    3  A    between atoms: N_11  and  C_12 
REMARK    4  A    between atoms: C_12  and  N_13 
REMARK    5  A    between atoms: N_13  and  C_14 
REMARK    6  A    between atoms: C_15  and  O_16 
REMARK    7  A    between atoms: C_19  and  O_20 
REMARK    8  A    between atoms: C_26  and  C_27 
ROOT
HETATM    1  C   UNL     1     -42.966  54.559 -55.513  1.00  0.00     0.275 C 
HETATM    2  N   UNL     1     -42.947  55.811 -56.097  1.00  0.00    -0.263 N 
HETATM    3  O   UNL     1     -43.591  53.614 -55.991  1.00  0.00    -0.266 OA
HETATM    4  H   UNL     1     -42.727  56.609 -55.502  1.00  0.00     0.190 HD
ENDROOT
BRANCH   2   5
HETATM    5  N   UNL     1     -43.832  56.074 -57.161  1.00  0.00    -0.273 N 
HETATM    6  H   UNL     1     -44.536  56.786 -56.955  1.00  0.00     0.189 HD
BRANCH   5   7
HETATM    7  C   UNL     1     -43.392  55.935 -58.479  1.00  0.00     0.191 C 
HETATM    8  S   UNL     1     -44.230  55.021 -59.613  1.00  0.00    -0.039 SA
BRANCH   7   9
HETATM    9  N   UNL     1     -42.267  56.714 -58.692  1.00  0.00    -0.330 N 
HETATM   10  H   UNL     1     -41.425  56.377 -58.235  1.00  0.00     0.168 HD
BRANCH   9  11
HETATM   11  C   UNL     1     -42.137  58.044 -59.158  1.00  0.00     0.068 A 
HETATM   12  C   UNL     1     -42.058  59.063 -58.185  1.00  0.00     0.097 A 
HETATM   13  C   UNL     1     -41.913  60.400 -58.578  1.00  0.00     0.075 A 
HETATM   14  C   UNL     1     -41.833  60.727 -59.933  1.00  0.00     0.070 A 
HETATM   15  C   UNL     1     -41.871  59.712 -60.889  1.00  0.00     0.039 A 
HETATM   16  C   UNL     1     -42.016  58.377 -60.506  1.00  0.00     0.035 A 
BRANCH  12  17
HETATM   17  O   UNL     1     -42.137  58.632 -56.879  1.00  0.00    -0.354 OA
HETATM   18  C   UNL     1     -42.155  59.630 -55.865  1.00  0.00     0.210 C 
ENDBRANCH  12  17
BRANCH  14  19
HETATM   19  O   UNL     1     -41.694  61.986 -60.452  1.00  0.00    -0.356 OA
HETATM   20  C   UNL     1     -41.091  62.092 -61.736  1.00  0.00     0.210 C 
ENDBRANCH  14  19
ENDBRANCH   9  11
ENDBRANCH   7   9
ENDBRANCH   5   7
ENDBRANCH   2   5
BRANCH   1  21
HETATM   21  C   UNL     1     -42.244  54.476 -54.259  1.00  0.00     0.098 A 
HETATM   22  C   UNL     1     -41.388  53.491 -53.799  1.00  0.00     0.138 A 
HETATM   23  N   UNL     1     -40.977  52.298 -54.293  1.00  0.00    -0.370 N 
HETATM   24  N   UNL     1     -40.952  53.917 -52.565  1.00  0.00    -0.240 N 
HETATM   25  C   UNL     1     -39.818  51.623 -53.715  1.00  0.00     0.081 C 
HETATM   26  H   UNL     1     -41.401  51.855 -55.108  1.00  0.00     0.161 HD
HETATM   27  C   UNL     1     -39.794  50.168 -54.170  1.00  0.00     0.032 C 
HETATM   28  C   UNL     1     -39.894  51.726 -52.191  1.00  0.00     0.061 C 
HETATM   29  C   UNL     1     -39.987  53.200 -51.747  1.00  0.00     0.221 C 
HETATM   30  N   UNL     1     -41.418  55.127 -52.219  1.00  0.00    -0.181 NA
HETATM   31  C   UNL     1     -42.239  55.441 -53.224  1.00  0.00     0.160 A 
BRANCH  29  32
HETATM   32  C   UNL     1     -40.321  53.264 -50.271  1.00  0.00     0.409 C 
HETATM   33  F   UNL     1     -41.588  53.677 -50.043  1.00  0.00    -0.169 F 
HETATM   34  F   UNL     1     -40.222  52.016 -49.734  1.00  0.00    -0.169 F 
HETATM   35  F   UNL     1     -39.480  54.041 -49.557  1.00  0.00    -0.169 F 
ENDBRANCH  29  32
ENDBRANCH   1  21
TORSDOF 8
ENDMDL
MODEL 2
REMARK VINA RESULT:      -8.1      3.516      5.022
REMARK  8 active torsions:
REMARK  status: ('A' for Active; 'I' for Inactive)
REMARK    1  A    between atoms: C_8  and  C_9 
REMARK       I    between atoms: C_9  and  N_10 
REMARK    2  A    between atoms: N_10  and  N_11 
REMARK    3  A    between atoms: N_11  and  C_12 
REMARK    4  A    between atoms: C_12  and  N_13 
REMARK    5  A    between atoms: N_13  and  C_14 
REMARK    6  A    between atoms: C_15  and  O_16 
REMARK    7  A    between atoms: C_19  and  O_20 
REMARK    8  A    between atoms: C_26  and  C_27 
ROOT
HETATM    1  C   UNL     1     -41.749  55.000 -50.287  1.00  0.00     0.275 C 
HETATM    2  N   UNL     1     -42.875  55.453 -50.947  1.00  0.00    -0.263 N 
HETATM    3  O   UNL     1     -41.302  55.555 -49.285  1.00  0.00    -0.266 OA
HETATM    4  H   UNL     1     -42.987  55.192 -51.926  1.00  0.00     0.190 HD
ENDROOT
BRANCH   2   5
HETATM    5  N   UNL     1     -43.414  56.704 -50.588  1.00  0.00    -0.273 N 
HETATM    6  H   UNL     1     -42.774  57.298 -50.057  1.00  0.00     0.189 HD
BRANCH   5   7
HETATM    7  C   UNL     1     -44.359  57.314 -51.414  1.00  0.00     0.191 C 
HETATM    8  S   UNL     1     -45.251  58.651 -50.920  1.00  0.00    -0.039 SA
BRANCH   7   9
HETATM    9  N   UNL     1     -44.358  56.718 -52.663  1.00  0.00    -0.330 N 
HETATM   10  H   UNL     1     -44.299  55.704 -52.649  1.00  0.00     0.168 HD
BRANCH   9  11
HETATM   11  C   UNL     1     -44.109  57.259 -53.947  1.00  0.00     0.068 A 
HETATM   12  C   UNL     1     -42.760  57.476 -54.304  1.00  0.00     0.097 A 
HETATM   13  C   UNL     1     -42.443  57.996 -55.566  1.00  0.00     0.075 A 
HETATM   14  C   UNL     1     -43.459  58.288 -56.480  1.00  0.00     0.070 A 
HETATM   15  C   UNL     1     -44.786  58.032 -56.136  1.00  0.00     0.039 A 
HETATM   16  C   UNL     1     -45.112  57.516 -54.880  1.00  0.00     0.035 A 
BRANCH  12  17
HETATM   17  O   UNL     1     -41.839  57.147 -53.335  1.00  0.00    -0.354 OA
HETATM   18  C   UNL     1     -40.709  58.001 -53.196  1.00  0.00     0.210 C 
ENDBRANCH  12  17
BRANCH  14  19
HETATM   19  O   UNL     1     -43.289  58.798 -57.738  1.00  0.00    -0.356 OA
HETATM   20  C   UNL     1     -43.999  58.163 -58.793  1.00  0.00     0.210 C 
ENDBRANCH  14  19
ENDBRANCH   9  11
ENDBRANCH   7   9
ENDBRANCH   5   7
ENDBRANCH   2   5
BRANCH   1  21
HETATM   21  C   UNL     1     -41.108  53.862 -50.913  1.00  0.00     0.098 A 
HETATM   22  C   UNL     1     -40.803  53.645 -52.245  1.00  0.00     0.138 A 
HETATM   23  N   UNL     1     -41.024  54.345 -53.385  1.00  0.00    -0.370 N 
HETATM   24  N   UNL     1     -40.173  52.422 -52.295  1.00  0.00    -0.240 N 
HETATM   25  C   UNL     1     -40.302  54.005 -54.608  1.00  0.00     0.081 C 
HETATM   26  H   UNL     1     -41.636  55.160 -53.431  1.00  0.00     0.161 HD
HETATM   27  C   UNL     1     -40.985  54.658 -55.804  1.00  0.00     0.032 C 
HETATM   28  C   UNL     1     -40.265  52.482 -54.753  1.00  0.00     0.061 C 
HETATM   29  C   UNL     1     -39.633  51.829 -53.507  1.00  0.00     0.221 C 
HETATM   30  N   UNL     1     -39.998  51.860 -51.089  1.00  0.00    -0.181 NA
HETATM   31  C   UNL     1     -40.610  52.710 -50.260  1.00  0.00     0.160 A 
BRANCH  29  32
HETATM   32  C   UNL     1     -39.844  50.331 -53.560  1.00  0.00     0.409 C 
HETATM   33  F   UNL     1     -40.984  49.989 -54.201  1.00  0.00    -0.169 F 
HETATM   34  F   UNL     1     -38.824  49.758 -54.260  1.00  0.00    -0.169 F 
HETATM   35  F   UNL     1     -39.838  49.739 -52.348  1.00  0.00    -0.169 F 
ENDBRANCH  29  32
ENDBRANCH   1  21
TORSDOF 8
ENDMDL
MODEL 3
REMARK VINA RESULT:      -7.8      2.728      3.439
REMARK  8 active torsions:
REMARK  status: ('A' for Active; 'I' for Inactive)
REMARK    1  A    between atoms: C_8  and  C_9 
REMARK       I    between atoms: C_9  and  N_10 
REMARK    2  A    between atoms: N_10  and  N_11 
REMARK    3  A    between atoms: N_11  and  C_12 
REMARK    4  A    between atoms: C_12  and  N_13 
REMARK    5  A    between atoms: N_13  and  C_14 
REMARK    6  A    between atoms: C_15  and  O_16 
REMARK    7  A    between atoms: C_19  and  O_20 
REMARK    8  A    between atoms: C_26  and  C_27 
ROOT
HETATM    1  C   UNL     1     -42.322  54.687 -55.471  1.00  0.00     0.275 C 
HETATM    2  N   UNL     1     -41.752  55.688 -56.235  1.00  0.00    -0.263 N 
HETATM    3  O   UNL     1     -43.281  54.023 -55.860  1.00  0.00    -0.266 OA
HETATM    4  H   UNL     1     -41.224  56.412 -55.748  1.00  0.00     0.190 HD
ENDROOT
BRANCH   2   5
HETATM    5  N   UNL     1     -42.411  56.103 -57.408  1.00  0.00    -0.273 N 
HETATM    6  H   UNL     1     -43.000  55.384 -57.834  1.00  0.00     0.189 HD
BRANCH   5   7
HETATM    7  C   UNL     1     -42.779  57.441 -57.560  1.00  0.00     0.191 C 
HETATM    8  S   UNL     1     -42.518  58.584 -56.357  1.00  0.00    -0.039 SA
BRANCH   7   9
HETATM    9  N   UNL     1     -43.274  57.659 -58.835  1.00  0.00    -0.330 N 
HETATM   10  H   UNL     1     -42.802  58.394 -59.353  1.00  0.00     0.168 HD
BRANCH   9  11
HETATM   11  C   UNL     1     -44.499  57.274 -59.431  1.00  0.00     0.068 A 
HETATM   12  C   UNL     1     -45.576  58.181 -59.332  1.00  0.00     0.097 A 
HETATM   13  C   UNL     1     -46.812  57.868 -59.913  1.00  0.00     0.075 A 
HETATM   14  C   UNL     1     -46.979  56.665 -60.603  1.00  0.00     0.070 A 
HETATM   15  C   UNL     1     -45.898  55.792 -60.732  1.00  0.00     0.039 A 
HETATM   16  C   UNL     1     -44.663  56.095 -60.155  1.00  0.00     0.035 A 
BRANCH  12  17
HETATM   17  O   UNL     1     -45.303  59.340 -58.640  1.00  0.00    -0.354 OA
HETATM   18  C   UNL     1     -46.022  59.558 -57.431  1.00  0.00     0.210 C 
ENDBRANCH  12  17
BRANCH  14  19
HETATM   19  O   UNL     1     -48.126  56.237 -61.212  1.00  0.00    -0.356 OA
HETATM   20  C   UNL     1     -48.481  56.867 -62.436  1.00  0.00     0.210 C 
ENDBRANCH  14  19
ENDBRANCH   9  11
ENDBRANCH   7   9
ENDBRANCH   5   7
ENDBRANCH   2   5
BRANCH   1  21
HETATM   21  C   UNL     1     -41.737  54.535 -54.155  1.00  0.00     0.098 A 
HETATM   22  C   UNL     1     -41.003  53.485 -53.632  1.00  0.00     0.138 A 
HETATM   23  N   UNL     1     -40.631  52.271 -54.108  1.00  0.00    -0.370 N 
HETATM   24  N   UNL     1     -40.664  53.861 -52.353  1.00  0.00    -0.240 N 
HETATM   25  C   UNL     1     -39.587  51.506 -53.433  1.00  0.00     0.081 C 
HETATM   26  H   UNL     1     -41.002  51.871 -54.970  1.00  0.00     0.161 HD
HETATM   27  C   UNL     1     -39.620  50.060 -53.912  1.00  0.00     0.032 C 
HETATM   28  C   UNL     1     -39.807  51.594 -51.921  1.00  0.00     0.061 C 
HETATM   29  C   UNL     1     -39.838  53.065 -51.458  1.00  0.00     0.221 C 
HETATM   30  N   UNL     1     -41.074  55.097 -52.030  1.00  0.00    -0.181 NA
HETATM   31  C   UNL     1     -41.767  55.483 -53.105  1.00  0.00     0.160 A 
BRANCH  29  32
HETATM   32  C   UNL     1     -40.313  53.133 -50.022  1.00  0.00     0.409 C 
HETATM   33  F   UNL     1     -41.596  53.547 -49.918  1.00  0.00    -0.169 F 
HETATM   34  F   UNL     1     -40.266  51.887 -49.473  1.00  0.00    -0.169 F 
HETATM   35  F   UNL     1     -39.545  53.912 -49.233  1.00  0.00    -0.169 F 
ENDBRANCH  29  32
ENDBRANCH   1  21
TORSDOF 8
ENDMDL
MODEL 4
REMARK VINA RESULT:      -7.7      2.464      4.014
REMARK  8 active torsions:
REMARK  status: ('A' for Active; 'I' for Inactive)
REMARK    1  A    between atoms: C_8  and  C_9 
REMARK       I    between atoms: C_9  and  N_10 
REMARK    2  A    between atoms: N_10  and  N_11 
REMARK    3  A    between atoms: N_11  and  C_12 
REMARK    4  A    between atoms: C_12  and  N_13 
REMARK    5  A    between atoms: N_13  and  C_14 
REMARK    6  A    between atoms: C_15  and  O_16 
REMARK    7  A    between atoms: C_19  and  O_20 
REMARK    8  A    between atoms: C_26  and  C_27 
ROOT
HETATM    1  C   UNL     1     -42.280  54.775 -55.488  1.00  0.00     0.275 C 
HETATM    2  N   UNL     1     -41.679  55.792 -56.205  1.00  0.00    -0.263 N 
HETATM    3  O   UNL     1     -43.249  54.149 -55.913  1.00  0.00    -0.266 OA
HETATM    4  H   UNL     1     -41.141  56.485 -55.686  1.00  0.00     0.190 HD
ENDROOT
BRANCH   2   5
HETATM    5  N   UNL     1     -42.316  56.267 -57.369  1.00  0.00    -0.273 N 
HETATM    6  H   UNL     1     -42.823  55.551 -57.891  1.00  0.00     0.189 HD
BRANCH   5   7
HETATM    7  C   UNL     1     -42.785  57.581 -57.414  1.00  0.00     0.191 C 
HETATM    8  S   UNL     1     -43.766  58.141 -58.659  1.00  0.00    -0.039 SA
BRANCH   7   9
HETATM    9  N   UNL     1     -42.401  58.265 -56.273  1.00  0.00    -0.330 N 
HETATM   10  H   UNL     1     -41.397  58.322 -56.130  1.00  0.00     0.168 HD
BRANCH   9  11
HETATM   11  C   UNL     1     -43.135  58.624 -55.117  1.00  0.00     0.068 A 
HETATM   12  C   UNL     1     -42.397  59.063 -53.996  1.00  0.00     0.097 A 
HETATM   13  C   UNL     1     -43.063  59.447 -52.825  1.00  0.00     0.075 A 
HETATM   14  C   UNL     1     -44.457  59.410 -52.766  1.00  0.00     0.070 A 
HETATM   15  C   UNL     1     -45.182  59.015 -53.890  1.00  0.00     0.039 A 
HETATM   16  C   UNL     1     -44.527  58.629 -55.062  1.00  0.00     0.035 A 
BRANCH  12  17
HETATM   17  O   UNL     1     -41.030  59.070 -54.163  1.00  0.00    -0.354 OA
HETATM   18  C   UNL     1     -40.234  58.823 -53.009  1.00  0.00     0.210 C 
ENDBRANCH  12  17
BRANCH  14  19
HETATM   19  O   UNL     1     -45.229  59.754 -51.690  1.00  0.00    -0.356 OA
HETATM   20  C   UNL     1     -46.409  60.502 -51.953  1.00  0.00     0.210 C 
ENDBRANCH  14  19
ENDBRANCH   9  11
ENDBRANCH   7   9
ENDBRANCH   5   7
ENDBRANCH   2   5
BRANCH   1  21
HETATM   21  C   UNL     1     -41.713  54.558 -54.173  1.00  0.00     0.098 A 
HETATM   22  C   UNL     1     -40.990  53.482 -53.691  1.00  0.00     0.138 A 
HETATM   23  N   UNL     1     -40.613  52.291 -54.219  1.00  0.00    -0.370 N 
HETATM   24  N   UNL     1     -40.666  53.796 -52.390  1.00  0.00    -0.240 N 
HETATM   25  C   UNL     1     -39.580  51.492 -53.568  1.00  0.00     0.081 C 
HETATM   26  H   UNL     1     -40.973  51.935 -55.104  1.00  0.00     0.161 HD
HETATM   27  C   UNL     1     -39.610  50.070 -54.116  1.00  0.00     0.032 C 
HETATM   28  C   UNL     1     -39.821  51.508 -52.057  1.00  0.00     0.061 C 
HETATM   29  C   UNL     1     -39.855  52.955 -51.524  1.00  0.00     0.221 C 
HETATM   30  N   UNL     1     -41.079  55.016 -52.014  1.00  0.00    -0.181 NA
HETATM   31  C   UNL     1     -41.755  55.455 -53.079  1.00  0.00     0.160 A 
BRANCH  29  32
HETATM   32  C   UNL     1     -40.349  52.956 -50.093  1.00  0.00     0.409 C 
HETATM   33  F   UNL     1     -41.625  53.389 -49.984  1.00  0.00    -0.169 F 
HETATM   34  F   UNL     1     -40.335  51.681 -49.612  1.00  0.00    -0.169 F 
HETATM   35  F   UNL     1     -39.578  53.676 -49.253  1.00  0.00    -0.169 F 
ENDBRANCH  29  32
ENDBRANCH   1  21
TORSDOF 8
ENDMDL
MODEL 5
REMARK VINA RESULT:      -7.7      3.988      5.955
REMARK  8 active torsions:
REMARK  status: ('A' for Active; 'I' for Inactive)
REMARK    1  A    between atoms: C_8  and  C_9 
REMARK       I    between atoms: C_9  and  N_10 
REMARK    2  A    between atoms: N_10  and  N_11 
REMARK    3  A    between atoms: N_11  and  C_12 
REMARK    4  A    between atoms: C_12  and  N_13 
REMARK    5  A    between atoms: N_13  and  C_14 
REMARK    6  A    between atoms: C_15  and  O_16 
REMARK    7  A    between atoms: C_19  and  O_20 
REMARK    8  A    between atoms: C_26  and  C_27 
ROOT
HETATM    1  C   UNL     1     -41.163  54.901 -50.120  1.00  0.00     0.275 C 
HETATM    2  N   UNL     1     -41.103  56.162 -50.682  1.00  0.00    -0.263 N 
HETATM    3  O   UNL     1     -41.559  54.706 -48.973  1.00  0.00    -0.266 OA
HETATM    4  H   UNL     1     -40.461  56.304 -51.461  1.00  0.00     0.190 HD
ENDROOT
BRANCH   2   5
HETATM    5  N   UNL     1     -41.308  57.283 -49.853  1.00  0.00    -0.273 N 
HETATM    6  H   UNL     1     -40.982  57.159 -48.893  1.00  0.00     0.189 HD
BRANCH   5   7
HETATM    7  C   UNL     1     -41.284  58.565 -50.404  1.00  0.00     0.191 C 
HETATM    8  S   UNL     1     -39.906  59.527 -50.375  1.00  0.00    -0.039 SA
BRANCH   7   9
HETATM    9  N   UNL     1     -42.491  58.843 -51.022  1.00  0.00    -0.330 N 
HETATM   10  H   UNL     1     -43.239  59.114 -50.390  1.00  0.00     0.168 HD
BRANCH   9  11
HETATM   11  C   UNL     1     -42.965  58.521 -52.316  1.00  0.00     0.068 A 
HETATM   12  C   UNL     1     -44.295  58.059 -52.419  1.00  0.00     0.097 A 
HETATM   13  C   UNL     1     -44.831  57.736 -53.673  1.00  0.00     0.075 A 
HETATM   14  C   UNL     1     -44.056  57.883 -54.826  1.00  0.00     0.070 A 
HETATM   15  C   UNL     1     -42.757  58.379 -54.721  1.00  0.00     0.039 A 
HETATM   16  C   UNL     1     -42.213  58.702 -53.476  1.00  0.00     0.035 A 
BRANCH  12  17
HETATM   17  O   UNL     1     -44.972  57.959 -51.224  1.00  0.00    -0.354 OA
HETATM   18  C   UNL     1     -45.892  58.999 -50.910  1.00  0.00     0.210 C 
ENDBRANCH  12  17
BRANCH  14  19
HETATM   19  O   UNL     1     -44.453  57.604 -56.105  1.00  0.00    -0.356 OA
HETATM   20  C   UNL     1     -43.428  57.388 -57.066  1.00  0.00     0.210 C 
ENDBRANCH  14  19
ENDBRANCH   9  11
ENDBRANCH   7   9
ENDBRANCH   5   7
ENDBRANCH   2   5
BRANCH   1  21
HETATM   21  C   UNL     1     -40.658  53.844 -50.973  1.00  0.00     0.098 A 
HETATM   22  C   UNL     1     -40.963  53.553 -52.290  1.00  0.00     0.138 A 
HETATM   23  N   UNL     1     -41.826  54.081 -53.193  1.00  0.00    -0.370 N 
HETATM   24  N   UNL     1     -40.184  52.470 -52.628  1.00  0.00    -0.240 N 
HETATM   25  C   UNL     1     -41.695  53.758 -54.611  1.00  0.00     0.081 C 
HETATM   26  H   UNL     1     -42.547  54.759 -52.946  1.00  0.00     0.161 HD
HETATM   27  C   UNL     1     -42.972  54.148 -55.345  1.00  0.00     0.032 C 
HETATM   28  C   UNL     1     -41.408  52.262 -54.753  1.00  0.00     0.061 C 
HETATM   29  C   UNL     1     -40.152  51.867 -53.951  1.00  0.00     0.221 C 
HETATM   30  N   UNL     1     -39.359  52.075 -51.646  1.00  0.00    -0.181 NA
HETATM   31  C   UNL     1     -39.684  52.877 -50.629  1.00  0.00     0.160 A 
BRANCH  29  32
HETATM   32  C   UNL     1     -40.041  50.358 -53.895  1.00  0.00     0.409 C 
HETATM   33  F   UNL     1     -40.993  49.740 -54.629  1.00  0.00    -0.169 F 
HETATM   34  F   UNL     1     -38.843  49.976 -54.421  1.00  0.00    -0.169 F 
HETATM   35  F   UNL     1     -40.071  49.858 -52.643  1.00  0.00    -0.169 F 
ENDBRANCH  29  32
ENDBRANCH   1  21
TORSDOF 8
ENDMDL
MODEL 6
REMARK VINA RESULT:      -7.6      4.418      9.010
REMARK  8 active torsions:
REMARK  status: ('A' for Active; 'I' for Inactive)
REMARK    1  A    between atoms: C_8  and  C_9 
REMARK       I    between atoms: C_9  and  N_10 
REMARK    2  A    between atoms: N_10  and  N_11 
REMARK    3  A    between atoms: N_11  and  C_12 
REMARK    4  A    between atoms: C_12  and  N_13 
REMARK    5  A    between atoms: N_13  and  C_14 
REMARK    6  A    between atoms: C_15  and  O_16 
REMARK    7  A    between atoms: C_19  and  O_20 
REMARK    8  A    between atoms: C_26  and  C_27 
ROOT
HETATM    1  C   UNL     1     -42.041  57.790 -55.353  1.00  0.00     0.275 C 
HETATM    2  N   UNL     1     -41.588  57.153 -54.214  1.00  0.00    -0.263 N 
HETATM    3  O   UNL     1     -42.084  59.015 -55.453  1.00  0.00    -0.266 OA
HETATM    4  H   UNL     1     -41.897  56.195 -54.053  1.00  0.00     0.190 HD
ENDROOT
BRANCH   2   5
HETATM    5  N   UNL     1     -41.359  57.920 -53.054  1.00  0.00    -0.273 N 
HETATM    6  H   UNL     1     -41.764  58.858 -53.086  1.00  0.00     0.189 HD
BRANCH   5   7
HETATM    7  C   UNL     1     -41.245  57.286 -51.816  1.00  0.00     0.191 C 
HETATM    8  S   UNL     1     -40.615  58.063 -50.466  1.00  0.00    -0.039 SA
BRANCH   7   9
HETATM    9  N   UNL     1     -41.799  56.018 -51.875  1.00  0.00    -0.330 N 
HETATM   10  H   UNL     1     -42.769  55.965 -51.577  1.00  0.00     0.168 HD
BRANCH   9  11
HETATM   11  C   UNL     1     -41.190  54.744 -51.971  1.00  0.00     0.068 A 
HETATM   12  C   UNL     1     -41.010  54.024 -50.770  1.00  0.00     0.097 A 
HETATM   13  C   UNL     1     -40.426  52.751 -50.796  1.00  0.00     0.075 A 
HETATM   14  C   UNL     1     -40.032  52.185 -52.010  1.00  0.00     0.070 A 
HETATM   15  C   UNL     1     -40.250  52.884 -53.197  1.00  0.00     0.039 A 
HETATM   16  C   UNL     1     -40.830  54.154 -53.181  1.00  0.00     0.035 A 
BRANCH  12  17
HETATM   17  O   UNL     1     -41.440  54.670 -49.632  1.00  0.00    -0.354 OA
HETATM   18  C   UNL     1     -40.725  54.410 -48.429  1.00  0.00     0.210 C 
ENDBRANCH  12  17
BRANCH  14  19
HETATM   19  O   UNL     1     -39.451  50.957 -52.177  1.00  0.00    -0.356 OA
HETATM   20  C   UNL     1     -39.600  50.339 -53.448  1.00  0.00     0.210 C 
ENDBRANCH  14  19
ENDBRANCH   9  11
ENDBRANCH   7   9
ENDBRANCH   5   7
ENDBRANCH   2   5
BRANCH   1  21
HETATM   21  C   UNL     1     -42.519  56.895 -56.387  1.00  0.00     0.098 A 
HETATM   22  C   UNL     1     -42.609  57.094 -57.753  1.00  0.00     0.138 A 
HETATM   23  N   UNL     1     -42.349  58.146 -58.568  1.00  0.00    -0.370 N 
HETATM   24  N   UNL     1     -43.101  55.919 -58.274  1.00  0.00    -0.240 N 
HETATM   25  C   UNL     1     -42.241  57.949 -60.010  1.00  0.00     0.081 C 
HETATM   26  H   UNL     1     -42.157  59.086 -58.222  1.00  0.00     0.161 HD
HETATM   27  C   UNL     1     -42.329  59.296 -60.719  1.00  0.00     0.032 C 
HETATM   28  C   UNL     1     -43.359  57.009 -60.466  1.00  0.00     0.061 C 
HETATM   29  C   UNL     1     -43.300  55.675 -59.694  1.00  0.00     0.221 C 
HETATM   30  N   UNL     1     -43.283  54.959 -57.355  1.00  0.00    -0.181 NA
HETATM   31  C   UNL     1     -42.977  55.569 -56.206  1.00  0.00     0.160 A 
BRANCH  29  32
HETATM   32  C   UNL     1     -44.555  54.875 -59.970  1.00  0.00     0.409 C 
HETATM   33  F   UNL     1     -45.678  55.516 -59.573  1.00  0.00    -0.169 F 
HETATM   34  F   UNL     1     -44.679  54.683 -61.314  1.00  0.00    -0.169 F 
HETATM   35  F   UNL     1     -44.547  53.643 -59.421  1.00  0.00    -0.169 F 
ENDBRANCH  29  32
ENDBRANCH   1  21
TORSDOF 8
ENDMDL
MODEL 7
REMARK VINA RESULT:      -7.6      5.267      7.221
REMARK  8 active torsions:
REMARK  status: ('A' for Active; 'I' for Inactive)
REMARK    1  A    between atoms: C_8  and  C_9 
REMARK       I    between atoms: C_9  and  N_10 
REMARK    2  A    between atoms: N_10  and  N_11 
REMARK    3  A    between atoms: N_11  and  C_12 
REMARK    4  A    between atoms: C_12  and  N_13 
REMARK    5  A    between atoms: N_13  and  C_14 
REMARK    6  A    between atoms: C_15  and  O_16 
REMARK    7  A    between atoms: C_19  and  O_20 
REMARK    8  A    between atoms: C_26  and  C_27 
ROOT
HETATM    1  C   UNL     1     -41.117  55.340 -50.286  1.00  0.00     0.275 C 
HETATM    2  N   UNL     1     -41.018  56.574 -50.900  1.00  0.00    -0.263 N 
HETATM    3  O   UNL     1     -41.527  55.205 -49.135  1.00  0.00    -0.266 OA
HETATM    4  H   UNL     1     -40.366  56.665 -51.678  1.00  0.00     0.190 HD
ENDROOT
BRANCH   2   5
HETATM    5  N   UNL     1     -41.199  57.734 -50.121  1.00  0.00    -0.273 N 
HETATM    6  H   UNL     1     -41.145  57.575 -49.113  1.00  0.00     0.189 HD
BRANCH   5   7
HETATM    7  C   UNL     1     -40.796  58.974 -50.621  1.00  0.00     0.191 C 
HETATM    8  S   UNL     1     -39.225  59.544 -50.446  1.00  0.00    -0.039 SA
BRANCH   7   9
HETATM    9  N   UNL     1     -41.832  59.564 -51.326  1.00  0.00    -0.330 N 
HETATM   10  H   UNL     1     -41.596  59.841 -52.274  1.00  0.00     0.168 HD
BRANCH   9  11
HETATM   11  C   UNL     1     -43.048  60.134 -50.880  1.00  0.00     0.068 A 
HETATM   12  C   UNL     1     -44.197  59.314 -50.920  1.00  0.00     0.097 A 
HETATM   13  C   UNL     1     -45.430  59.812 -50.480  1.00  0.00     0.075 A 
HETATM   14  C   UNL     1     -45.526  61.116 -49.989  1.00  0.00     0.070 A 
HETATM   15  C   UNL     1     -44.379  61.907 -49.915  1.00  0.00     0.039 A 
HETATM   16  C   UNL     1     -43.146  61.420 -50.352  1.00  0.00     0.035 A 
BRANCH  12  17
HETATM   17  O   UNL     1     -43.991  58.044 -51.412  1.00  0.00    -0.354 OA
HETATM   18  C   UNL     1     -44.564  57.739 -52.679  1.00  0.00     0.210 C 
ENDBRANCH  12  17
BRANCH  14  19
HETATM   19  O   UNL     1     -46.662  61.725 -49.532  1.00  0.00    -0.356 OA
HETATM   20  C   UNL     1     -46.514  63.010 -48.942  1.00  0.00     0.210 C 
ENDBRANCH  14  19
ENDBRANCH   9  11
ENDBRANCH   7   9
ENDBRANCH   5   7
ENDBRANCH   2   5
BRANCH   1  21
HETATM   21  C   UNL     1     -40.634  54.235 -51.088  1.00  0.00     0.098 A 
HETATM   22  C   UNL     1     -40.964  53.875 -52.382  1.00  0.00     0.138 A 
HETATM   23  N   UNL     1     -41.839  54.359 -53.298  1.00  0.00    -0.370 N 
HETATM   24  N   UNL     1     -40.198  52.769 -52.674  1.00  0.00    -0.240 N 
HETATM   25  C   UNL     1     -41.735  53.958 -54.697  1.00  0.00     0.081 C 
HETATM   26  H   UNL     1     -42.551  55.054 -53.075  1.00  0.00     0.161 HD
HETATM   27  C   UNL     1     -43.023  54.317 -55.430  1.00  0.00     0.032 C 
HETATM   28  C   UNL     1     -41.461  52.455 -54.763  1.00  0.00     0.061 C 
HETATM   29  C   UNL     1     -40.193  52.095 -53.962  1.00  0.00     0.221 C 
HETATM   30  N   UNL     1     -39.359  52.422 -51.686  1.00  0.00    -0.181 NA
HETATM   31  C   UNL     1     -39.660  53.281 -50.708  1.00  0.00     0.160 A 
BRANCH  29  32
HETATM   32  C   UNL     1     -40.091  50.591 -53.826  1.00  0.00     0.409 C 
HETATM   33  F   UNL     1     -41.069  49.940 -54.495  1.00  0.00    -0.169 F 
HETATM   34  F   UNL     1     -38.912  50.169 -54.365  1.00  0.00    -0.169 F 
HETATM   35  F   UNL     1     -40.085  50.160 -52.547  1.00  0.00    -0.169 F 
ENDBRANCH  29  32
ENDBRANCH   1  21
TORSDOF 8
ENDMDL
MODEL 8
REMARK VINA RESULT:      -7.6      1.637      2.079
REMARK  8 active torsions:
REMARK  status: ('A' for Active; 'I' for Inactive)
REMARK    1  A    between atoms: C_8  and  C_9 
REMARK       I    between atoms: C_9  and  N_10 
REMARK    2  A    between atoms: N_10  and  N_11 
REMARK    3  A    between atoms: N_11  and  C_12 
REMARK    4  A    between atoms: C_12  and  N_13 
REMARK    5  A    between atoms: N_13  and  C_14 
REMARK    6  A    between atoms: C_15  and  O_16 
REMARK    7  A    between atoms: C_19  and  O_20 
REMARK    8  A    between atoms: C_26  and  C_27 
ROOT
HETATM    1  C   UNL     1     -42.839  54.231 -55.626  1.00  0.00     0.275 C 
HETATM    2  N   UNL     1     -42.424  55.216 -56.503  1.00  0.00    -0.263 N 
HETATM    3  O   UNL     1     -43.762  53.461 -55.885  1.00  0.00    -0.266 OA
HETATM    4  H   UNL     1     -41.927  56.017 -56.115  1.00  0.00     0.190 HD
ENDROOT
BRANCH   2   5
HETATM    5  N   UNL     1     -43.210  55.482 -57.642  1.00  0.00    -0.273 N 
HETATM    6  H   UNL     1     -44.190  55.211 -57.547  1.00  0.00     0.189 HD
BRANCH   5   7
HETATM    7  C   UNL     1     -42.895  56.568 -58.461  1.00  0.00     0.191 C 
HETATM    8  S   UNL     1     -43.537  56.741 -60.005  1.00  0.00    -0.039 SA
BRANCH   7   9
HETATM    9  N   UNL     1     -42.091  57.465 -57.779  1.00  0.00    -0.330 N 
HETATM   10  H   UNL     1     -41.280  57.050 -57.328  1.00  0.00     0.168 HD
BRANCH   9  11
HETATM   11  C   UNL     1     -42.347  58.782 -57.329  1.00  0.00     0.068 A 
HETATM   12  C   UNL     1     -43.119  58.924 -56.155  1.00  0.00     0.097 A 
HETATM   13  C   UNL     1     -43.397  60.200 -55.648  1.00  0.00     0.075 A 
HETATM   14  C   UNL     1     -42.900  61.335 -56.293  1.00  0.00     0.070 A 
HETATM   15  C   UNL     1     -42.104  61.186 -57.428  1.00  0.00     0.039 A 
HETATM   16  C   UNL     1     -41.823  59.918 -57.942  1.00  0.00     0.035 A 
BRANCH  12  17
HETATM   17  O   UNL     1     -43.551  57.743 -55.594  1.00  0.00    -0.354 OA
HETATM   18  C   UNL     1     -44.665  57.812 -54.711  1.00  0.00     0.210 C 
ENDBRANCH  12  17
BRANCH  14  19
HETATM   19  O   UNL     1     -43.097  62.632 -55.907  1.00  0.00    -0.356 OA
HETATM   20  C   UNL     1     -43.093  63.618 -56.932  1.00  0.00     0.210 C 
ENDBRANCH  14  19
ENDBRANCH   9  11
ENDBRANCH   7   9
ENDBRANCH   5   7
ENDBRANCH   2   5
BRANCH   1  21
HETATM   21  C   UNL     1     -42.140  54.230 -54.358  1.00  0.00     0.098 A 
HETATM   22  C   UNL     1     -41.272  53.290 -53.830  1.00  0.00     0.138 A 
HETATM   23  N   UNL     1     -40.827  52.081 -54.253  1.00  0.00    -0.370 N 
HETATM   24  N   UNL     1     -40.869  53.790 -52.613  1.00  0.00    -0.240 N 
HETATM   25  C   UNL     1     -39.666  51.464 -53.620  1.00  0.00     0.081 C 
HETATM   26  H   UNL     1     -41.226  51.587 -55.051  1.00  0.00     0.161 HD
HETATM   27  C   UNL     1     -39.602  49.988 -53.995  1.00  0.00     0.032 C 
HETATM   28  C   UNL     1     -39.773  51.645 -52.104  1.00  0.00     0.061 C 
HETATM   29  C   UNL     1     -39.905  53.138 -51.740  1.00  0.00     0.221 C 
HETATM   30  N   UNL     1     -41.367  55.006 -52.340  1.00  0.00    -0.181 NA
HETATM   31  C   UNL     1     -42.175  55.248 -53.375  1.00  0.00     0.160 A 
BRANCH  29  32
HETATM   32  C   UNL     1     -40.268  53.272 -50.277  1.00  0.00     0.409 C 
HETATM   33  F   UNL     1     -41.535  53.707 -50.094  1.00  0.00    -0.169 F 
HETATM   34  F   UNL     1     -40.194  52.048 -49.681  1.00  0.00    -0.169 F 
HETATM   35  F   UNL     1     -39.435  54.072 -49.581  1.00  0.00    -0.169 F 
ENDBRANCH  29  32
ENDBRANCH   1  21
TORSDOF 8
ENDMDL
MODEL 9
REMARK VINA RESULT:      -7.5      4.599      5.951
REMARK  8 active torsions:
REMARK  status: ('A' for Active; 'I' for Inactive)
REMARK    1  A    between atoms: C_8  and  C_9 
REMARK       I    between atoms: C_9  and  N_10 
REMARK    2  A    between atoms: N_10  and  N_11 
REMARK    3  A    between atoms: N_11  and  C_12 
REMARK    4  A    between atoms: C_12  and  N_13 
REMARK    5  A    between atoms: N_13  and  C_14 
REMARK    6  A    between atoms: C_15  and  O_16 
REMARK    7  A    between atoms: C_19  and  O_20 
REMARK    8  A    between atoms: C_26  and  C_27 
ROOT
HETATM    1  C   UNL     1     -43.882  56.529 -52.659  1.00  0.00     0.275 C 
HETATM    2  N   UNL     1     -44.673  57.048 -53.667  1.00  0.00    -0.263 N 
HETATM    3  O   UNL     1     -43.783  57.061 -51.555  1.00  0.00    -0.266 OA
HETATM    4  H   UNL     1     -44.448  56.788 -54.627  1.00  0.00     0.190 HD
ENDROOT
BRANCH   2   5
HETATM    5  N   UNL     1     -45.225  58.333 -53.500  1.00  0.00    -0.273 N 
HETATM    6  H   UNL     1     -45.494  58.551 -52.539  1.00  0.00     0.189 HD
BRANCH   5   7
HETATM    7  C   UNL     1     -44.813  59.377 -54.330  1.00  0.00     0.191 C 
HETATM    8  S   UNL     1     -45.269  59.472 -55.944  1.00  0.00    -0.039 SA
BRANCH   7   9
HETATM    9  N   UNL     1     -44.089  60.307 -53.604  1.00  0.00    -0.330 N 
HETATM   10  H   UNL     1     -44.186  61.266 -53.926  1.00  0.00     0.168 HD
BRANCH   9  11
HETATM   11  C   UNL     1     -43.007  60.144 -52.706  1.00  0.00     0.068 A 
HETATM   12  C   UNL     1     -43.212  60.547 -51.369  1.00  0.00     0.097 A 
HETATM   13  C   UNL     1     -42.186  60.400 -50.426  1.00  0.00     0.075 A 
HETATM   14  C   UNL     1     -40.962  59.841 -50.803  1.00  0.00     0.070 A 
HETATM   15  C   UNL     1     -40.781  59.407 -52.116  1.00  0.00     0.039 A 
HETATM   16  C   UNL     1     -41.797  59.551 -53.063  1.00  0.00     0.035 A 
BRANCH  12  17
HETATM   17  O   UNL     1     -44.455  61.077 -51.103  1.00  0.00    -0.354 OA
HETATM   18  C   UNL     1     -45.121  60.613 -49.934  1.00  0.00     0.210 C 
ENDBRANCH  12  17
BRANCH  14  19
HETATM   19  O   UNL     1     -39.882  59.642 -49.988  1.00  0.00    -0.356 OA
HETATM   20  C   UNL     1     -38.622  59.457 -50.620  1.00  0.00     0.210 C 
ENDBRANCH  14  19
ENDBRANCH   9  11
ENDBRANCH   7   9
ENDBRANCH   5   7
ENDBRANCH   2   5
BRANCH   1  21
HETATM   21  C   UNL     1     -43.132  55.349 -53.038  1.00  0.00     0.098 A 
HETATM   22  C   UNL     1     -42.170  54.651 -52.330  1.00  0.00     0.138 A 
HETATM   23  N   UNL     1     -41.577  54.830 -51.124  1.00  0.00    -0.370 N 
HETATM   24  N   UNL     1     -41.801  53.595 -53.133  1.00  0.00    -0.240 N 
HETATM   25  C   UNL     1     -40.821  53.744 -50.509  1.00  0.00     0.081 C 
HETATM   26  H   UNL     1     -41.679  55.682 -50.573  1.00  0.00     0.161 HD
HETATM   27  C   UNL     1     -39.956  54.296 -49.381  1.00  0.00     0.032 C 
HETATM   28  C   UNL     1     -39.966  53.066 -51.581  1.00  0.00     0.061 C 
HETATM   29  C   UNL     1     -40.844  52.571 -52.748  1.00  0.00     0.221 C 
HETATM   30  N   UNL     1     -42.492  53.528 -54.282  1.00  0.00    -0.181 NA
HETATM   31  C   UNL     1     -43.261  54.619 -54.244  1.00  0.00     0.160 A 
BRANCH  29  32
HETATM   32  C   UNL     1     -39.960  52.144 -53.901  1.00  0.00     0.409 C 
HETATM   33  F   UNL     1     -38.816  51.554 -53.488  1.00  0.00    -0.169 F 
HETATM   34  F   UNL     1     -40.619  51.219 -54.654  1.00  0.00    -0.169 F 
HETATM   35  F   UNL     1     -39.645  53.149 -54.744  1.00  0.00    -0.169 F 
ENDBRANCH  29  32
ENDBRANCH   1  21
TORSDOF 8
ENDMDL
MODEL 10
REMARK VINA RESULT:      -7.5      4.708      9.046
REMARK  8 active torsions:
REMARK  status: ('A' for Active; 'I' for Inactive)
REMARK    1  A    between atoms: C_8  and  C_9 
REMARK       I    between atoms: C_9  and  N_10 
REMARK    2  A    between atoms: N_10  and  N_11 
REMARK    3  A    between atoms: N_11  and  C_12 
REMARK    4  A    between atoms: C_12  and  N_13 
REMARK    5  A    between atoms: N_13  and  C_14 
REMARK    6  A    between atoms: C_15  and  O_16 
REMARK    7  A    between atoms: C_19  and  O_20 
REMARK    8  A    between atoms: C_26  and  C_27 
ROOT
HETATM    1  C   UNL     1     -43.788  58.345 -54.175  1.00  0.00     0.275 C 
HETATM    2  N   UNL     1     -42.755  58.162 -53.276  1.00  0.00    -0.263 N 
HETATM    3  O   UNL     1     -44.860  58.858 -53.857  1.00  0.00    -0.266 OA
HETATM    4  H   UNL     1     -42.065  57.442 -53.487  1.00  0.00     0.190 HD
ENDROOT
BRANCH   2   5
HETATM    5  N   UNL     1     -43.003  58.382 -51.906  1.00  0.00    -0.273 N 
HETATM    6  H   UNL     1     -43.985  58.293 -51.639  1.00  0.00     0.189 HD
BRANCH   5   7
HETATM    7  C   UNL     1     -42.025  58.058 -50.965  1.00  0.00     0.191 C 
HETATM    8  S   UNL     1     -40.854  59.159 -50.474  1.00  0.00    -0.039 SA
BRANCH   7   9
HETATM    9  N   UNL     1     -42.241  56.783 -50.471  1.00  0.00    -0.330 N 
HETATM   10  H   UNL     1     -42.843  56.741 -49.653  1.00  0.00     0.168 HD
BRANCH   9  11
HETATM   11  C   UNL     1     -41.540  55.573 -50.691  1.00  0.00     0.068 A 
HETATM   12  C   UNL     1     -41.928  54.798 -51.805  1.00  0.00     0.097 A 
HETATM   13  C   UNL     1     -41.267  53.596 -52.089  1.00  0.00     0.075 A 
HETATM   14  C   UNL     1     -40.213  53.167 -51.279  1.00  0.00     0.070 A 
HETATM   15  C   UNL     1     -39.808  53.958 -50.204  1.00  0.00     0.039 A 
HETATM   16  C   UNL     1     -40.462  55.156 -49.912  1.00  0.00     0.035 A 
BRANCH  12  17
HETATM   17  O   UNL     1     -42.971  55.315 -52.542  1.00  0.00    -0.354 OA
HETATM   18  C   UNL     1     -43.402  54.566 -53.673  1.00  0.00     0.210 C 
ENDBRANCH  12  17
BRANCH  14  19
HETATM   19  O   UNL     1     -39.487  52.019 -51.441  1.00  0.00    -0.356 OA
HETATM   20  C   UNL     1     -39.577  51.370 -52.703  1.00  0.00     0.210 C 
ENDBRANCH  14  19
ENDBRANCH   9  11
ENDBRANCH   7   9
ENDBRANCH   5   7
ENDBRANCH   2   5
BRANCH   1  21
HETATM   21  C   UNL     1     -43.525  57.820 -55.500  1.00  0.00     0.098 A 
HETATM   22  C   UNL     1     -44.297  57.892 -56.645  1.00  0.00     0.138 A 
HETATM   23  N   UNL     1     -45.524  58.399 -56.921  1.00  0.00    -0.370 N 
HETATM   24  N   UNL     1     -43.571  57.260 -57.630  1.00  0.00    -0.240 N 
HETATM   25  C   UNL     1     -45.939  58.605 -58.305  1.00  0.00     0.081 C 
HETATM   26  H   UNL     1     -46.173  58.713 -56.200  1.00  0.00     0.161 HD
HETATM   27  C   UNL     1     -47.449  58.810 -58.362  1.00  0.00     0.032 C 
HETATM   28  C   UNL     1     -45.514  57.392 -59.136  1.00  0.00     0.061 C 
HETATM   29  C   UNL     1     -43.995  57.154 -59.017  1.00  0.00     0.221 C 
HETATM   30  N   UNL     1     -42.366  56.835 -57.220  1.00  0.00    -0.181 NA
HETATM   31  C   UNL     1     -42.362  57.131 -55.917  1.00  0.00     0.160 A 
BRANCH  29  32
HETATM   32  C   UNL     1     -43.643  55.814 -59.626  1.00  0.00     0.409 C 
HETATM   33  F   UNL     1     -42.324  55.697 -59.899  1.00  0.00    -0.169 F 
HETATM   34  F   UNL     1     -43.940  54.824 -58.738  1.00  0.00    -0.169 F 
HETATM   35  F   UNL     1     -44.340  55.526 -60.745  1.00  0.00    -0.169 F 
ENDBRANCH  29  32
ENDBRANCH   1  21
TORSDOF 8
ENDMDL
