MODEL 1
REMARK VINA RESULT:      -7.8      0.000      0.000
REMARK  7 active torsions:
REMARK  status: ('A' for Active; 'I' for Inactive)
REMARK    1  A    between atoms: C_2  and  N_3 
REMARK    2  A    between atoms: C_2  and  C_17 
REMARK       I    between atoms: N_3  and  C_4 
REMARK    3  A    between atoms: C_4  and  C_5 
REMARK    4  A    between atoms: C_6  and  N_7 
REMARK    5  A    between atoms: C_17  and  O_18 
REMARK    6  A    between atoms: C_17  and  C_19 
REMARK    7  A    between atoms: C_22  and  O_23 
ROOT
HETATM    1  N   UNL     1     -42.056  53.749 -54.023  1.00  0.00    -0.350 N 
HETATM    2  C   UNL     1     -40.748  53.343 -54.197  1.00  0.00     0.255 C 
HETATM    3  O   UNL     1     -39.889  53.942 -54.826  1.00  0.00    -0.268 OA
HETATM    4  H   UNL     1     -42.675  53.169 -53.469  1.00  0.00     0.163 HD
ENDROOT
BRANCH   1   5
HETATM    5  C   UNL     1     -42.649  54.937 -54.663  1.00  0.00     0.114 C 
HETATM    6  C   UNL     1     -43.070  54.646 -56.107  1.00  0.00     0.035 C 
BRANCH   5   7
HETATM    7  C   UNL     1     -43.755  55.606 -53.785  1.00  0.00     0.173 C 
BRANCH   7   8
HETATM    8  O   UNL     1     -44.838  56.111 -54.563  1.00  0.00    -0.389 OA
HETATM    9  H   UNL     1     -44.554  56.133 -55.491  1.00  0.00     0.210 HD
ENDBRANCH   7   8
BRANCH   7  10
HETATM   10  C   UNL     1     -43.223  56.698 -52.873  1.00  0.00    -0.028 A 
HETATM   11  C   UNL     1     -41.844  56.889 -52.721  1.00  0.00     0.012 A 
HETATM   12  C   UNL     1     -41.358  57.911 -51.900  1.00  0.00     0.037 A 
HETATM   13  C   UNL     1     -42.233  58.764 -51.223  1.00  0.00     0.068 A 
HETATM   14  C   UNL     1     -43.606  58.578 -51.363  1.00  0.00     0.037 A 
HETATM   15  C   UNL     1     -44.096  57.554 -52.180  1.00  0.00     0.012 A 
BRANCH  13  16
HETATM   16  O   UNL     1     -41.626  59.724 -50.462  1.00  0.00    -0.356 OA
HETATM   17  C   UNL     1     -40.210  59.652 -50.353  1.00  0.00     0.210 C 
ENDBRANCH  13  16
ENDBRANCH   7  10
ENDBRANCH   5   7
ENDBRANCH   1   5
BRANCH   2  18
HETATM   18  C   UNL     1     -40.389  52.080 -53.530  1.00  0.00     0.079 A 
HETATM   19  C   UNL     1     -40.111  51.959 -52.166  1.00  0.00     0.165 A 
HETATM   20  N   UNL     1     -39.614  50.786 -51.652  1.00  0.00    -0.241 NA
HETATM   21  C   UNL     1     -39.409  49.743 -52.481  1.00  0.00     0.119 A 
HETATM   22  C   UNL     1     -39.673  49.784 -53.834  1.00  0.00     0.020 A 
HETATM   23  C   UNL     1     -40.160  50.972 -54.366  1.00  0.00     0.022 A 
BRANCH  19  24
HETATM   24  N   UNL     1     -40.368  53.003 -51.208  1.00  0.00    -0.226 N 
HETATM   25  N   UNL     1     -41.655  53.408 -50.970  1.00  0.00    -0.179 NA
HETATM   26  C   UNL     1     -41.556  54.354 -50.038  1.00  0.00     0.141 A 
HETATM   27  C   UNL     1     -40.228  54.647 -49.711  1.00  0.00     0.040 A 
HETATM   28  C   UNL     1     -39.487  53.802 -50.502  1.00  0.00     0.122 A 
ENDBRANCH  19  24
ENDBRANCH   2  18
TORSDOF 7
ENDMDL
MODEL 2
REMARK VINA RESULT:      -7.2      3.030      7.305
REMARK  7 active torsions:
REMARK  status: ('A' for Active; 'I' for Inactive)
REMARK    1  A    between atoms: C_2  and  N_3 
REMARK    2  A    between atoms: C_2  and  C_17 
REMARK       I    between atoms: N_3  and  C_4 
REMARK    3  A    between atoms: C_4  and  C_5 
REMARK    4  A    between atoms: C_6  and  N_7 
REMARK    5  A    between atoms: C_17  and  O_18 
REMARK    6  A    between atoms: C_17  and  C_19 
REMARK    7  A    between atoms: C_22  and  O_23 
ROOT
HETATM    1  N   UNL     1     -42.828  56.871 -53.682  1.00  0.00    -0.350 N 
HETATM    2  C   UNL     1     -43.558  57.508 -52.699  1.00  0.00     0.255 C 
HETATM    3  O   UNL     1     -43.986  56.995 -51.676  1.00  0.00    -0.268 OA
HETATM    4  H   UNL     1     -42.518  57.408 -54.483  1.00  0.00     0.163 HD
ENDROOT
BRANCH   1   5
HETATM    5  C   UNL     1     -42.533  55.426 -53.692  1.00  0.00     0.114 C 
HETATM    6  C   UNL     1     -43.580  54.644 -54.492  1.00  0.00     0.035 C 
BRANCH   5   7
HETATM    7  C   UNL     1     -41.052  55.116 -54.081  1.00  0.00     0.173 C 
BRANCH   7   8
HETATM    8  O   UNL     1     -40.829  55.197 -55.487  1.00  0.00    -0.389 OA
HETATM    9  H   UNL     1     -40.338  56.015 -55.664  1.00  0.00     0.210 HD
ENDBRANCH   7   8
BRANCH   7  10
HETATM   10  C   UNL     1     -40.558  53.778 -53.558  1.00  0.00    -0.028 A 
HETATM   11  C   UNL     1     -40.397  53.567 -52.183  1.00  0.00     0.012 A 
HETATM   12  C   UNL     1     -39.966  52.327 -51.704  1.00  0.00     0.037 A 
HETATM   13  C   UNL     1     -39.695  51.274 -52.581  1.00  0.00     0.068 A 
HETATM   14  C   UNL     1     -39.847  51.476 -53.951  1.00  0.00     0.037 A 
HETATM   15  C   UNL     1     -40.274  52.716 -54.434  1.00  0.00     0.012 A 
BRANCH  13  16
HETATM   16  O   UNL     1     -39.291  50.114 -51.979  1.00  0.00    -0.356 OA
HETATM   17  C   UNL     1     -39.763  49.881 -50.658  1.00  0.00     0.210 C 
ENDBRANCH  13  16
ENDBRANCH   7  10
ENDBRANCH   5   7
ENDBRANCH   1   5
BRANCH   2  18
HETATM   18  C   UNL     1     -43.805  58.941 -52.931  1.00  0.00     0.079 A 
HETATM   19  C   UNL     1     -43.017  59.972 -52.412  1.00  0.00     0.165 A 
HETATM   20  N   UNL     1     -43.410  61.283 -52.526  1.00  0.00    -0.241 NA
HETATM   21  C   UNL     1     -44.565  61.567 -53.160  1.00  0.00     0.119 A 
HETATM   22  C   UNL     1     -45.388  60.605 -53.709  1.00  0.00     0.020 A 
HETATM   23  C   UNL     1     -45.006  59.274 -53.583  1.00  0.00     0.022 A 
BRANCH  19  24
HETATM   24  N   UNL     1     -41.739  59.755 -51.784  1.00  0.00    -0.226 N 
HETATM   25  N   UNL     1     -40.694  59.259 -52.519  1.00  0.00    -0.179 NA
HETATM   26  C   UNL     1     -39.671  59.194 -51.669  1.00  0.00     0.141 A 
HETATM   27  C   UNL     1     -40.031  59.554 -50.367  1.00  0.00     0.040 A 
HETATM   28  C   UNL     1     -41.367  59.867 -50.456  1.00  0.00     0.122 A 
ENDBRANCH  19  24
ENDBRANCH   2  18
TORSDOF 7
ENDMDL
MODEL 3
REMARK VINA RESULT:      -7.1      3.211      5.782
REMARK  7 active torsions:
REMARK  status: ('A' for Active; 'I' for Inactive)
REMARK    1  A    between atoms: C_2  and  N_3 
REMARK    2  A    between atoms: C_2  and  C_17 
REMARK       I    between atoms: N_3  and  C_4 
REMARK    3  A    between atoms: C_4  and  C_5 
REMARK    4  A    between atoms: C_6  and  N_7 
REMARK    5  A    between atoms: C_17  and  O_18 
REMARK    6  A    between atoms: C_17  and  C_19 
REMARK    7  A    between atoms: C_22  and  O_23 
ROOT
HETATM    1  N   UNL     1     -42.377  55.702 -54.832  1.00  0.00    -0.350 N 
HETATM    2  C   UNL     1     -42.605  54.341 -54.873  1.00  0.00     0.255 C 
HETATM    3  O   UNL     1     -43.426  53.771 -55.576  1.00  0.00    -0.268 OA
HETATM    4  H   UNL     1     -41.659  56.056 -54.213  1.00  0.00     0.163 HD
ENDROOT
BRANCH   1   5
HETATM    5  C   UNL     1     -43.172  56.699 -55.573  1.00  0.00     0.114 C 
HETATM    6  C   UNL     1     -43.411  57.961 -54.737  1.00  0.00     0.035 C 
BRANCH   5   7
HETATM    7  C   UNL     1     -42.618  56.966 -57.009  1.00  0.00     0.173 C 
BRANCH   7   8
HETATM    8  O   UNL     1     -42.207  58.318 -57.193  1.00  0.00    -0.389 OA
HETATM    9  H   UNL     1     -42.798  58.723 -57.848  1.00  0.00     0.210 HD
ENDBRANCH   7   8
BRANCH   7  10
HETATM   10  C   UNL     1     -43.583  56.566 -58.112  1.00  0.00    -0.028 A 
HETATM   11  C   UNL     1     -44.675  57.382 -58.431  1.00  0.00     0.012 A 
HETATM   12  C   UNL     1     -45.547  57.024 -59.464  1.00  0.00     0.037 A 
HETATM   13  C   UNL     1     -45.344  55.854 -60.200  1.00  0.00     0.068 A 
HETATM   14  C   UNL     1     -44.264  55.033 -59.886  1.00  0.00     0.037 A 
HETATM   15  C   UNL     1     -43.392  55.386 -58.851  1.00  0.00     0.012 A 
BRANCH  13  16
HETATM   16  O   UNL     1     -46.265  55.629 -61.186  1.00  0.00    -0.356 OA
HETATM   17  C   UNL     1     -47.415  56.465 -61.190  1.00  0.00     0.210 C 
ENDBRANCH  13  16
ENDBRANCH   7  10
ENDBRANCH   5   7
ENDBRANCH   1   5
BRANCH   2  18
HETATM   18  C   UNL     1     -41.746  53.535 -53.990  1.00  0.00     0.079 A 
HETATM   19  C   UNL     1     -41.611  53.743 -52.615  1.00  0.00     0.165 A 
HETATM   20  N   UNL     1     -40.659  53.065 -51.892  1.00  0.00    -0.241 NA
HETATM   21  C   UNL     1     -39.861  52.183 -52.525  1.00  0.00     0.119 A 
HETATM   22  C   UNL     1     -39.945  51.915 -53.876  1.00  0.00     0.020 A 
HETATM   23  C   UNL     1     -40.893  52.609 -54.619  1.00  0.00     0.022 A 
BRANCH  19  24
HETATM   24  N   UNL     1     -42.469  54.615 -51.856  1.00  0.00    -0.226 N 
HETATM   25  N   UNL     1     -42.139  55.937 -51.708  1.00  0.00    -0.179 NA
HETATM   26  C   UNL     1     -43.125  56.463 -50.985  1.00  0.00     0.141 A 
HETATM   27  C   UNL     1     -44.062  55.507 -50.578  1.00  0.00     0.040 A 
HETATM   28  C   UNL     1     -43.599  54.328 -51.110  1.00  0.00     0.122 A 
ENDBRANCH  19  24
ENDBRANCH   2  18
TORSDOF 7
ENDMDL
MODEL 4
REMARK VINA RESULT:      -7.0      2.523      4.757
REMARK  7 active torsions:
REMARK  status: ('A' for Active; 'I' for Inactive)
REMARK    1  A    between atoms: C_2  and  N_3 
REMARK    2  A    between atoms: C_2  and  C_17 
REMARK       I    between atoms: N_3  and  C_4 
REMARK    3  A    between atoms: C_4  and  C_5 
REMARK    4  A    between atoms: C_6  and  N_7 
REMARK    5  A    between atoms: C_17  and  O_18 
REMARK    6  A    between atoms: C_17  and  C_19 
REMARK    7  A    between atoms: C_22  and  O_23 
ROOT
HETATM    1  N   UNL     1     -42.545  54.545 -53.990  1.00  0.00    -0.350 N 
HETATM    2  C   UNL     1     -41.176  54.427 -53.862  1.00  0.00     0.255 C 
HETATM    3  O   UNL     1     -40.357  55.312 -54.061  1.00  0.00    -0.268 OA
HETATM    4  H   UNL     1     -43.124  53.739 -53.786  1.00  0.00     0.163 HD
ENDROOT
BRANCH   1   5
HETATM    5  C   UNL     1     -43.231  55.751 -54.489  1.00  0.00     0.114 C 
HETATM    6  C   UNL     1     -43.621  56.691 -53.344  1.00  0.00     0.035 C 
BRANCH   5   7
HETATM    7  C   UNL     1     -42.461  56.439 -55.662  1.00  0.00     0.173 C 
BRANCH   7   8
HETATM    8  O   UNL     1     -41.964  57.727 -55.307  1.00  0.00    -0.389 OA
HETATM    9  H   UNL     1     -42.720  58.333 -55.247  1.00  0.00     0.210 HD
ENDBRANCH   7   8
BRANCH   7  10
HETATM   10  C   UNL     1     -43.274  56.536 -56.942  1.00  0.00    -0.028 A 
HETATM   11  C   UNL     1     -43.069  55.625 -57.985  1.00  0.00     0.012 A 
HETATM   12  C   UNL     1     -43.836  55.702 -59.152  1.00  0.00     0.037 A 
HETATM   13  C   UNL     1     -44.822  56.680 -59.298  1.00  0.00     0.068 A 
HETATM   14  C   UNL     1     -45.029  57.594 -58.268  1.00  0.00     0.037 A 
HETATM   15  C   UNL     1     -44.262  57.523 -57.102  1.00  0.00     0.012 A 
BRANCH  13  16
HETATM   16  O   UNL     1     -45.504  56.636 -60.483  1.00  0.00    -0.356 OA
HETATM   17  C   UNL     1     -46.917  56.505 -60.404  1.00  0.00     0.210 C 
ENDBRANCH  13  16
ENDBRANCH   7  10
ENDBRANCH   5   7
ENDBRANCH   1   5
BRANCH   2  18
HETATM   18  C   UNL     1     -40.699  53.104 -53.424  1.00  0.00     0.079 A 
HETATM   19  C   UNL     1     -40.418  52.766 -52.097  1.00  0.00     0.165 A 
HETATM   20  N   UNL     1     -39.812  51.573 -51.789  1.00  0.00    -0.241 NA
HETATM   21  C   UNL     1     -39.502  50.720 -52.786  1.00  0.00     0.119 A 
HETATM   22  C   UNL     1     -39.762  50.978 -54.116  1.00  0.00     0.020 A 
HETATM   23  C   UNL     1     -40.359  52.191 -54.438  1.00  0.00     0.022 A 
BRANCH  19  24
HETATM   24  N   UNL     1     -40.781  53.592 -50.974  1.00  0.00    -0.226 N 
HETATM   25  N   UNL     1     -42.067  54.047 -50.850  1.00  0.00    -0.179 NA
HETATM   26  C   UNL     1     -42.079  54.752 -49.720  1.00  0.00     0.141 A 
HETATM   27  C   UNL     1     -40.813  54.847 -49.133  1.00  0.00     0.040 A 
HETATM   28  C   UNL     1     -39.992  54.135 -49.975  1.00  0.00     0.122 A 
ENDBRANCH  19  24
ENDBRANCH   2  18
TORSDOF 7
ENDMDL
MODEL 5
REMARK VINA RESULT:      -6.9     14.139     16.434
REMARK  7 active torsions:
REMARK  status: ('A' for Active; 'I' for Inactive)
REMARK    1  A    between atoms: C_2  and  N_3 
REMARK    2  A    between atoms: C_2  and  C_17 
REMARK       I    between atoms: N_3  and  C_4 
REMARK    3  A    between atoms: C_4  and  C_5 
REMARK    4  A    between atoms: C_6  and  N_7 
REMARK    5  A    between atoms: C_17  and  O_18 
REMARK    6  A    between atoms: C_17  and  C_19 
REMARK    7  A    between atoms: C_22  and  O_23 
ROOT
HETATM    1  N   UNL     1     -35.816  41.408 -54.427  1.00  0.00    -0.350 N 
HETATM    2  C   UNL     1     -35.515  41.859 -53.157  1.00  0.00     0.255 C 
HETATM    3  O   UNL     1     -35.382  43.027 -52.823  1.00  0.00    -0.268 OA
HETATM    4  H   UNL     1     -35.912  40.411 -54.578  1.00  0.00     0.163 HD
ENDROOT
BRANCH   1   5
HETATM    5  C   UNL     1     -35.927  42.278 -55.612  1.00  0.00     0.114 C 
HETATM    6  C   UNL     1     -34.807  42.001 -56.620  1.00  0.00     0.035 C 
BRANCH   5   7
HETATM    7  C   UNL     1     -37.365  42.283 -56.223  1.00  0.00     0.173 C 
BRANCH   7   8
HETATM    8  O   UNL     1     -38.346  41.790 -55.314  1.00  0.00    -0.389 OA
HETATM    9  H   UNL     1     -38.450  42.443 -54.603  1.00  0.00     0.210 HD
ENDBRANCH   7   8
BRANCH   7  10
HETATM   10  C   UNL     1     -37.463  41.535 -57.542  1.00  0.00    -0.028 A 
HETATM   11  C   UNL     1     -37.199  42.188 -58.752  1.00  0.00     0.012 A 
HETATM   12  C   UNL     1     -37.265  41.490 -59.961  1.00  0.00     0.037 A 
HETATM   13  C   UNL     1     -37.588  40.132 -59.988  1.00  0.00     0.068 A 
HETATM   14  C   UNL     1     -37.858  39.474 -58.790  1.00  0.00     0.037 A 
HETATM   15  C   UNL     1     -37.796  40.170 -57.579  1.00  0.00     0.012 A 
BRANCH  13  16
HETATM   16  O   UNL     1     -37.609  39.570 -61.235  1.00  0.00    -0.356 OA
HETATM   17  C   UNL     1     -38.556  38.532 -61.453  1.00  0.00     0.210 C 
ENDBRANCH  13  16
ENDBRANCH   7  10
ENDBRANCH   5   7
ENDBRANCH   1   5
BRANCH   2  18
HETATM   18  C   UNL     1     -35.371  40.808 -52.136  1.00  0.00     0.079 A 
HETATM   19  C   UNL     1     -34.510  39.712 -52.247  1.00  0.00     0.165 A 
HETATM   20  N   UNL     1     -34.560  38.685 -51.337  1.00  0.00    -0.241 NA
HETATM   21  C   UNL     1     -35.445  38.751 -50.323  1.00  0.00     0.119 A 
HETATM   22  C   UNL     1     -36.316  39.806 -50.141  1.00  0.00     0.020 A 
HETATM   23  C   UNL     1     -36.284  40.842 -51.067  1.00  0.00     0.022 A 
BRANCH  19  24
HETATM   24  N   UNL     1     -33.493  39.602 -53.261  1.00  0.00    -0.226 N 
HETATM   25  N   UNL     1     -33.769  38.952 -54.435  1.00  0.00    -0.179 NA
HETATM   26  C   UNL     1     -32.650  39.039 -55.152  1.00  0.00     0.141 A 
HETATM   27  C   UNL     1     -31.610  39.658 -54.450  1.00  0.00     0.040 A 
HETATM   28  C   UNL     1     -32.159  39.970 -53.230  1.00  0.00     0.122 A 
ENDBRANCH  19  24
ENDBRANCH   2  18
TORSDOF 7
ENDMDL
MODEL 6
REMARK VINA RESULT:      -6.9      4.152      7.808
REMARK  7 active torsions:
REMARK  status: ('A' for Active; 'I' for Inactive)
REMARK    1  A    between atoms: C_2  and  N_3 
REMARK    2  A    between atoms: C_2  and  C_17 
REMARK       I    between atoms: N_3  and  C_4 
REMARK    3  A    between atoms: C_4  and  C_5 
REMARK    4  A    between atoms: C_6  and  N_7 
REMARK    5  A    between atoms: C_17  and  O_18 
REMARK    6  A    between atoms: C_17  and  C_19 
REMARK    7  A    between atoms: C_22  and  O_23 
ROOT
HETATM    1  N   UNL     1     -43.487  55.734 -56.575  1.00  0.00    -0.350 N 
HETATM    2  C   UNL     1     -43.151  56.453 -57.704  1.00  0.00     0.255 C 
HETATM    3  O   UNL     1     -42.174  57.177 -57.830  1.00  0.00    -0.268 OA
HETATM    4  H   UNL     1     -44.320  55.158 -56.595  1.00  0.00     0.163 HD
ENDROOT
BRANCH   1   5
HETATM    5  C   UNL     1     -42.758  55.810 -55.295  1.00  0.00     0.114 C 
HETATM    6  C   UNL     1     -42.712  57.244 -54.759  1.00  0.00     0.035 C 
BRANCH   5   7
HETATM    7  C   UNL     1     -43.244  54.744 -54.261  1.00  0.00     0.173 C 
BRANCH   7   8
HETATM    8  O   UNL     1     -44.029  55.314 -53.217  1.00  0.00    -0.389 OA
HETATM    9  H   UNL     1     -44.612  55.983 -53.613  1.00  0.00     0.210 HD
ENDBRANCH   7   8
BRANCH   7  10
HETATM   10  C   UNL     1     -42.113  53.923 -53.665  1.00  0.00    -0.028 A 
HETATM   11  C   UNL     1     -41.840  53.978 -52.293  1.00  0.00     0.012 A 
HETATM   12  C   UNL     1     -40.816  53.202 -51.743  1.00  0.00     0.037 A 
HETATM   13  C   UNL     1     -40.049  52.354 -52.547  1.00  0.00     0.068 A 
HETATM   14  C   UNL     1     -40.308  52.297 -53.914  1.00  0.00     0.037 A 
HETATM   15  C   UNL     1     -41.331  53.075 -54.467  1.00  0.00     0.012 A 
BRANCH  13  16
HETATM   16  O   UNL     1     -39.087  51.646 -51.881  1.00  0.00    -0.356 OA
HETATM   17  C   UNL     1     -39.432  50.330 -51.469  1.00  0.00     0.210 C 
ENDBRANCH  13  16
ENDBRANCH   7  10
ENDBRANCH   5   7
ENDBRANCH   1   5
BRANCH   2  18
HETATM   18  C   UNL     1     -44.066  56.290 -58.846  1.00  0.00     0.079 A 
HETATM   19  C   UNL     1     -45.182  57.096 -59.086  1.00  0.00     0.165 A 
HETATM   20  N   UNL     1     -46.083  56.773 -60.070  1.00  0.00    -0.241 NA
HETATM   21  C   UNL     1     -45.871  55.670 -60.816  1.00  0.00     0.119 A 
HETATM   22  C   UNL     1     -44.787  54.834 -60.647  1.00  0.00     0.020 A 
HETATM   23  C   UNL     1     -43.878  55.144 -59.642  1.00  0.00     0.022 A 
BRANCH  19  24
HETATM   24  N   UNL     1     -45.439  58.324 -58.380  1.00  0.00    -0.226 N 
HETATM   25  N   UNL     1     -44.847  59.487 -58.797  1.00  0.00    -0.179 NA
HETATM   26  C   UNL     1     -45.295  60.424 -57.964  1.00  0.00     0.141 A 
HETATM   27  C   UNL     1     -46.105  59.899 -56.952  1.00  0.00     0.040 A 
HETATM   28  C   UNL     1     -46.147  58.551 -57.213  1.00  0.00     0.122 A 
ENDBRANCH  19  24
ENDBRANCH   2  18
TORSDOF 7
ENDMDL
MODEL 7
REMARK VINA RESULT:      -6.8      3.853      7.592
REMARK  7 active torsions:
REMARK  status: ('A' for Active; 'I' for Inactive)
REMARK    1  A    between atoms: C_2  and  N_3 
REMARK    2  A    between atoms: C_2  and  C_17 
REMARK       I    between atoms: N_3  and  C_4 
REMARK    3  A    between atoms: C_4  and  C_5 
REMARK    4  A    between atoms: C_6  and  N_7 
REMARK    5  A    between atoms: C_17  and  O_18 
REMARK    6  A    between atoms: C_17  and  C_19 
REMARK    7  A    between atoms: C_22  and  O_23 
ROOT
HETATM    1  N   UNL     1     -41.712  56.253 -56.040  1.00  0.00    -0.350 N 
HETATM    2  C   UNL     1     -42.998  56.607 -56.398  1.00  0.00     0.255 C 
HETATM    3  O   UNL     1     -43.920  56.834 -55.630  1.00  0.00    -0.268 OA
HETATM    4  H   UNL     1     -41.028  56.101 -56.771  1.00  0.00     0.163 HD
ENDROOT
BRANCH   1   5
HETATM    5  C   UNL     1     -41.278  55.994 -54.654  1.00  0.00     0.114 C 
HETATM    6  C   UNL     1     -41.120  57.296 -53.863  1.00  0.00     0.035 C 
BRANCH   5   7
HETATM    7  C   UNL     1     -42.144  54.903 -53.946  1.00  0.00     0.173 C 
BRANCH   7   8
HETATM    8  O   UNL     1     -43.009  55.452 -52.955  1.00  0.00    -0.389 OA
HETATM    9  H   UNL     1     -43.501  54.719 -52.550  1.00  0.00     0.210 HD
ENDBRANCH   7   8
BRANCH   7  10
HETATM   10  C   UNL     1     -41.321  53.777 -53.345  1.00  0.00    -0.028 A 
HETATM   11  C   UNL     1     -40.693  52.836 -54.169  1.00  0.00     0.012 A 
HETATM   12  C   UNL     1     -39.915  51.815 -53.613  1.00  0.00     0.037 A 
HETATM   13  C   UNL     1     -39.744  51.717 -52.230  1.00  0.00     0.068 A 
HETATM   14  C   UNL     1     -40.370  52.645 -51.402  1.00  0.00     0.037 A 
HETATM   15  C   UNL     1     -41.151  53.665 -51.954  1.00  0.00     0.012 A 
BRANCH  13  16
HETATM   16  O   UNL     1     -38.953  50.679 -51.822  1.00  0.00    -0.356 OA
HETATM   17  C   UNL     1     -39.490  49.820 -50.823  1.00  0.00     0.210 C 
ENDBRANCH  13  16
ENDBRANCH   7  10
ENDBRANCH   5   7
ENDBRANCH   1   5
BRANCH   2  18
HETATM   18  C   UNL     1     -43.232  56.735 -57.846  1.00  0.00     0.079 A 
HETATM   19  C   UNL     1     -43.399  57.950 -58.515  1.00  0.00     0.165 A 
HETATM   20  N   UNL     1     -43.788  57.980 -59.832  1.00  0.00    -0.241 NA
HETATM   21  C   UNL     1     -43.994  56.816 -60.480  1.00  0.00     0.119 A 
HETATM   22  C   UNL     1     -43.836  55.579 -59.890  1.00  0.00     0.020 A 
HETATM   23  C   UNL     1     -43.460  55.540 -58.553  1.00  0.00     0.022 A 
BRANCH  19  24
HETATM   24  N   UNL     1     -43.131  59.231 -57.913  1.00  0.00    -0.226 N 
HETATM   25  N   UNL     1     -41.844  59.696 -57.844  1.00  0.00    -0.179 NA
HETATM   26  C   UNL     1     -41.936  60.889 -57.261  1.00  0.00     0.141 A 
HETATM   27  C   UNL     1     -43.242  61.193 -56.864  1.00  0.00     0.040 A 
HETATM   28  C   UNL     1     -43.980  60.101 -57.252  1.00  0.00     0.122 A 
ENDBRANCH  19  24
ENDBRANCH   2  18
TORSDOF 7
ENDMDL
MODEL 8
REMARK VINA RESULT:      -6.7      2.558      7.296
REMARK  7 active torsions:
REMARK  status: ('A' for Active; 'I' for Inactive)
REMARK    1  A    between atoms: C_2  and  N_3 
REMARK    2  A    between atoms: C_2  and  C_17 
REMARK       I    between atoms: N_3  and  C_4 
REMARK    3  A    between atoms: C_4  and  C_5 
REMARK    4  A    between atoms: C_6  and  N_7 
REMARK    5  A    between atoms: C_17  and  O_18 
REMARK    6  A    between atoms: C_17  and  C_19 
REMARK    7  A    between atoms: C_22  and  O_23 
ROOT
HETATM    1  N   UNL     1     -42.449  56.671 -51.903  1.00  0.00    -0.350 N 
HETATM    2  C   UNL     1     -42.198  57.810 -52.641  1.00  0.00     0.255 C 
HETATM    3  O   UNL     1     -41.114  58.360 -52.767  1.00  0.00    -0.268 OA
HETATM    4  H   UNL     1     -43.392  56.303 -51.883  1.00  0.00     0.163 HD
ENDROOT
BRANCH   1   5
HETATM    5  C   UNL     1     -41.448  55.992 -51.059  1.00  0.00     0.114 C 
HETATM    6  C   UNL     1     -41.047  56.854 -49.858  1.00  0.00     0.035 C 
BRANCH   5   7
HETATM    7  C   UNL     1     -41.857  54.527 -50.700  1.00  0.00     0.173 C 
BRANCH   7   8
HETATM    8  O   UNL     1     -41.735  54.252 -49.307  1.00  0.00    -0.389 OA
HETATM    9  H   UNL     1     -42.061  53.351 -49.151  1.00  0.00     0.210 HD
ENDBRANCH   7   8
BRANCH   7  10
HETATM   10  C   UNL     1     -41.105  53.478 -51.501  1.00  0.00    -0.028 A 
HETATM   11  C   UNL     1     -41.117  53.506 -52.900  1.00  0.00     0.012 A 
HETATM   12  C   UNL     1     -40.403  52.554 -53.633  1.00  0.00     0.037 A 
HETATM   13  C   UNL     1     -39.661  51.562 -52.988  1.00  0.00     0.068 A 
HETATM   14  C   UNL     1     -39.648  51.521 -51.596  1.00  0.00     0.037 A 
HETATM   15  C   UNL     1     -40.364  52.470 -50.860  1.00  0.00     0.012 A 
BRANCH  13  16
HETATM   16  O   UNL     1     -39.004  50.701 -53.824  1.00  0.00    -0.356 OA
HETATM   17  C   UNL     1     -39.807  49.785 -54.558  1.00  0.00     0.210 C 
ENDBRANCH  13  16
ENDBRANCH   7  10
ENDBRANCH   5   7
ENDBRANCH   1   5
BRANCH   2  18
HETATM   18  C   UNL     1     -43.364  58.370 -53.345  1.00  0.00     0.079 A 
HETATM   19  C   UNL     1     -43.879  57.868 -54.543  1.00  0.00     0.165 A 
HETATM   20  N   UNL     1     -44.856  58.548 -55.228  1.00  0.00    -0.241 NA
HETATM   21  C   UNL     1     -45.324  59.706 -54.722  1.00  0.00     0.119 A 
HETATM   22  C   UNL     1     -44.874  60.256 -53.540  1.00  0.00     0.020 A 
HETATM   23  C   UNL     1     -43.874  59.584 -52.849  1.00  0.00     0.022 A 
BRANCH  19  24
HETATM   24  N   UNL     1     -43.481  56.605 -55.111  1.00  0.00    -0.226 N 
HETATM   25  N   UNL     1     -43.914  55.436 -54.544  1.00  0.00    -0.179 NA
HETATM   26  C   UNL     1     -43.396  54.470 -55.300  1.00  0.00     0.141 A 
HETATM   27  C   UNL     1     -42.561  54.966 -56.306  1.00  0.00     0.040 A 
HETATM   28  C   UNL     1     -42.596  56.329 -56.139  1.00  0.00     0.122 A 
ENDBRANCH  19  24
ENDBRANCH   2  18
TORSDOF 7
ENDMDL
MODEL 9
REMARK VINA RESULT:      -6.6      1.998      2.575
REMARK  7 active torsions:
REMARK  status: ('A' for Active; 'I' for Inactive)
REMARK    1  A    between atoms: C_2  and  N_3 
REMARK    2  A    between atoms: C_2  and  C_17 
REMARK       I    between atoms: N_3  and  C_4 
REMARK    3  A    between atoms: C_4  and  C_5 
REMARK    4  A    between atoms: C_6  and  N_7 
REMARK    5  A    between atoms: C_17  and  O_18 
REMARK    6  A    between atoms: C_17  and  C_19 
REMARK    7  A    between atoms: C_22  and  O_23 
ROOT
HETATM    1  N   UNL     1     -42.025  55.694 -53.191  1.00  0.00    -0.350 N 
HETATM    2  C   UNL     1     -42.482  54.431 -52.871  1.00  0.00     0.255 C 
HETATM    3  O   UNL     1     -43.628  54.139 -52.562  1.00  0.00    -0.268 OA
HETATM    4  H   UNL     1     -41.051  55.809 -53.442  1.00  0.00     0.163 HD
ENDROOT
BRANCH   1   5
HETATM    5  C   UNL     1     -42.844  56.918 -53.110  1.00  0.00     0.114 C 
HETATM    6  C   UNL     1     -43.879  56.977 -54.238  1.00  0.00     0.035 C 
BRANCH   5   7
HETATM    7  C   UNL     1     -43.427  57.159 -51.680  1.00  0.00     0.173 C 
BRANCH   7   8
HETATM    8  O   UNL     1     -44.750  56.648 -51.537  1.00  0.00    -0.389 OA
HETATM    9  H   UNL     1     -45.318  57.107 -52.177  1.00  0.00     0.210 HD
ENDBRANCH   7   8
BRANCH   7  10
HETATM   10  C   UNL     1     -43.389  58.616 -51.251  1.00  0.00    -0.028 A 
HETATM   11  C   UNL     1     -42.166  59.258 -51.024  1.00  0.00     0.012 A 
HETATM   12  C   UNL     1     -42.133  60.606 -50.653  1.00  0.00     0.037 A 
HETATM   13  C   UNL     1     -43.314  61.338 -50.509  1.00  0.00     0.068 A 
HETATM   14  C   UNL     1     -44.536  60.706 -50.727  1.00  0.00     0.037 A 
HETATM   15  C   UNL     1     -44.572  59.357 -51.094  1.00  0.00     0.012 A 
BRANCH  13  16
HETATM   16  O   UNL     1     -43.138  62.647 -50.152  1.00  0.00    -0.356 OA
HETATM   17  C   UNL     1     -43.109  63.599 -51.208  1.00  0.00     0.210 C 
ENDBRANCH  13  16
ENDBRANCH   7  10
ENDBRANCH   5   7
ENDBRANCH   1   5
BRANCH   2  18
HETATM   18  C   UNL     1     -41.471  53.363 -52.942  1.00  0.00     0.079 A 
HETATM   19  C   UNL     1     -40.554  53.075 -51.928  1.00  0.00     0.165 A 
HETATM   20  N   UNL     1     -39.531  52.183 -52.138  1.00  0.00    -0.241 NA
HETATM   21  C   UNL     1     -39.429  51.574 -53.336  1.00  0.00     0.119 A 
HETATM   22  C   UNL     1     -40.305  51.797 -54.379  1.00  0.00     0.020 A 
HETATM   23  C   UNL     1     -41.332  52.711 -54.181  1.00  0.00     0.022 A 
BRANCH  19  24
HETATM   24  N   UNL     1     -40.637  53.631 -50.602  1.00  0.00    -0.226 N 
HETATM   25  N   UNL     1     -40.793  54.982 -50.438  1.00  0.00    -0.179 NA
HETATM   26  C   UNL     1     -40.852  55.169 -49.121  1.00  0.00     0.141 A 
HETATM   27  C   UNL     1     -40.656  53.985 -48.402  1.00  0.00     0.040 A 
HETATM   28  C   UNL     1     -40.477  53.024 -49.369  1.00  0.00     0.122 A 
ENDBRANCH  19  24
ENDBRANCH   2  18
TORSDOF 7
ENDMDL
MODEL 10
REMARK VINA RESULT:      -6.6      4.207      8.055
REMARK  7 active torsions:
REMARK  status: ('A' for Active; 'I' for Inactive)
REMARK    1  A    between atoms: C_2  and  N_3 
REMARK    2  A    between atoms: C_2  and  C_17 
REMARK       I    between atoms: N_3  and  C_4 
REMARK    3  A    between atoms: C_4  and  C_5 
REMARK    4  A    between atoms: C_6  and  N_7 
REMARK    5  A    between atoms: C_17  and  O_18 
REMARK    6  A    between atoms: C_17  and  C_19 
REMARK    7  A    between atoms: C_22  and  O_23 
ROOT
HETATM    1  N   UNL     1     -42.469  57.777 -56.121  1.00  0.00    -0.350 N 
HETATM    2  C   UNL     1     -43.506  57.951 -57.015  1.00  0.00     0.255 C 
HETATM    3  O   UNL     1     -44.678  57.662 -56.822  1.00  0.00    -0.268 OA
HETATM    4  H   UNL     1     -41.538  58.067 -56.394  1.00  0.00     0.163 HD
ENDROOT
BRANCH   1   5
HETATM    5  C   UNL     1     -42.605  57.113 -54.811  1.00  0.00     0.114 C 
HETATM    6  C   UNL     1     -43.464  57.940 -53.849  1.00  0.00     0.035 C 
BRANCH   5   7
HETATM    7  C   UNL     1     -43.029  55.615 -54.937  1.00  0.00     0.173 C 
BRANCH   7   8
HETATM    8  O   UNL     1     -44.386  55.398 -54.561  1.00  0.00    -0.389 OA
HETATM    9  H   UNL     1     -44.836  54.962 -55.304  1.00  0.00     0.210 HD
ENDBRANCH   7   8
BRANCH   7  10
HETATM   10  C   UNL     1     -42.124  54.666 -54.169  1.00  0.00    -0.028 A 
HETATM   11  C   UNL     1     -42.239  54.543 -52.779  1.00  0.00     0.012 A 
HETATM   12  C   UNL     1     -41.422  53.650 -52.078  1.00  0.00     0.037 A 
HETATM   13  C   UNL     1     -40.483  52.862 -52.747  1.00  0.00     0.068 A 
HETATM   14  C   UNL     1     -40.357  52.981 -54.129  1.00  0.00     0.037 A 
HETATM   15  C   UNL     1     -41.170  53.876 -54.833  1.00  0.00     0.012 A 
BRANCH  13  16
HETATM   16  O   UNL     1     -39.757  52.026 -51.944  1.00  0.00    -0.356 OA
HETATM   17  C   UNL     1     -40.219  51.863 -50.609  1.00  0.00     0.210 C 
ENDBRANCH  13  16
ENDBRANCH   7  10
ENDBRANCH   5   7
ENDBRANCH   1   5
BRANCH   2  18
HETATM   18  C   UNL     1     -43.129  58.564 -58.300  1.00  0.00     0.079 A 
HETATM   19  C   UNL     1     -43.230  57.926 -59.540  1.00  0.00     0.165 A 
HETATM   20  N   UNL     1     -42.696  58.496 -60.669  1.00  0.00    -0.241 NA
HETATM   21  C   UNL     1     -42.082  59.692 -60.571  1.00  0.00     0.119 A 
HETATM   22  C   UNL     1     -41.956  60.387 -59.386  1.00  0.00     0.020 A 
HETATM   23  C   UNL     1     -42.478  59.810 -58.235  1.00  0.00     0.022 A 
BRANCH  19  24
HETATM   24  N   UNL     1     -43.930  56.683 -59.737  1.00  0.00    -0.226 N 
HETATM   25  N   UNL     1     -45.251  56.695 -60.101  1.00  0.00    -0.179 NA
HETATM   26  C   UNL     1     -45.591  55.413 -60.219  1.00  0.00     0.141 A 
HETATM   27  C   UNL     1     -44.552  54.547 -59.862  1.00  0.00     0.040 A 
HETATM   28  C   UNL     1     -43.516  55.381 -59.516  1.00  0.00     0.122 A 
ENDBRANCH  19  24
ENDBRANCH   2  18
TORSDOF 7
ENDMDL
