MODEL 1
REMARK VINA RESULT:      -8.1      0.000      0.000
REMARK  8 active torsions:
REMARK  status: ('A' for Active; 'I' for Inactive)
REMARK    1  A    between atoms: C_8  and  C_9 
REMARK       I    between atoms: C_9  and  N_10 
REMARK    2  A    between atoms: N_10  and  N_11 
REMARK    3  A    between atoms: N_11  and  C_12 
REMARK    4  A    between atoms: C_12  and  N_13 
REMARK    5  A    between atoms: N_13  and  C_14 
REMARK    6  A    between atoms: C_15  and  O_16 
REMARK    7  A    between atoms: C_19  and  O_20 
REMARK    8  A    between atoms: C_26  and  C_27 
ROOT
HETATM    1  C   UNL     1     -42.160  57.741 -51.140  1.00  0.00     0.275 C 
HETATM    2  N   UNL     1     -43.443  58.243 -51.202  1.00  0.00    -0.263 N 
HETATM    3  O   UNL     1     -41.226  58.350 -50.623  1.00  0.00    -0.266 OA
HETATM    4  H   UNL     1     -44.132  57.804 -51.807  1.00  0.00     0.190 HD
ENDROOT
BRANCH   2   5
HETATM    5  N   UNL     1     -43.710  59.544 -50.728  1.00  0.00    -0.273 N 
HETATM    6  H   UNL     1     -43.011  59.871 -50.056  1.00  0.00     0.189 HD
BRANCH   5   7
HETATM    7  C   UNL     1     -45.001  59.867 -50.430  1.00  0.00     0.191 C 
HETATM    8  S   UNL     1     -46.012  60.434 -51.630  1.00  0.00    -0.039 SA
BRANCH   7   9
HETATM    9  N   UNL     1     -45.447  59.812 -49.145  1.00  0.00    -0.330 N 
HETATM   10  H   UNL     1     -45.581  58.871 -48.784  1.00  0.00     0.168 HD
BRANCH   9  11
HETATM   11  C   UNL     1     -45.516  60.807 -48.139  1.00  0.00     0.068 A 
HETATM   12  C   UNL     1     -46.120  60.448 -46.915  1.00  0.00     0.097 A 
HETATM   13  C   UNL     1     -46.195  61.380 -45.871  1.00  0.00     0.075 A 
HETATM   14  C   UNL     1     -45.660  62.660 -46.031  1.00  0.00     0.070 A 
HETATM   15  C   UNL     1     -45.048  63.002 -47.237  1.00  0.00     0.039 A 
HETATM   16  C   UNL     1     -44.964  62.080 -48.283  1.00  0.00     0.035 A 
BRANCH  12  17
HETATM   17  O   UNL     1     -46.614  59.165 -46.860  1.00  0.00    -0.354 OA
HETATM   18  C   UNL     1     -47.084  58.698 -45.601  1.00  0.00     0.210 C 
ENDBRANCH  12  17
BRANCH  14  19
HETATM   19  O   UNL     1     -45.665  63.658 -45.098  1.00  0.00    -0.356 OA
HETATM   20  C   UNL     1     -44.643  64.643 -45.191  1.00  0.00     0.210 C 
ENDBRANCH  14  19
ENDBRANCH   9  11
ENDBRANCH   7   9
ENDBRANCH   5   7
ENDBRANCH   2   5
BRANCH   1  21
HETATM   21  C   UNL     1     -42.003  56.447 -51.769  1.00  0.00     0.098 A 
HETATM   22  C   UNL     1     -41.239  55.367 -51.369  1.00  0.00     0.138 A 
HETATM   23  N   UNL     1     -40.385  55.163 -50.333  1.00  0.00    -0.370 N 
HETATM   24  N   UNL     1     -41.453  54.386 -52.310  1.00  0.00    -0.240 N 
HETATM   25  C   UNL     1     -39.820  53.845 -50.065  1.00  0.00     0.081 C 
HETATM   26  H   UNL     1     -39.940  55.939 -49.840  1.00  0.00     0.161 HD
HETATM   27  C   UNL     1     -40.729  53.085 -49.102  1.00  0.00     0.032 C 
HETATM   28  C   UNL     1     -39.581  53.102 -51.382  1.00  0.00     0.061 C 
HETATM   29  C   UNL     1     -40.836  53.071 -52.275  1.00  0.00     0.221 C 
HETATM   30  N   UNL     1     -42.345  54.730 -53.251  1.00  0.00    -0.181 NA
HETATM   31  C   UNL     1     -42.640  55.998 -52.949  1.00  0.00     0.160 A 
BRANCH  29  32
HETATM   32  C   UNL     1     -40.458  52.573 -53.655  1.00  0.00     0.409 C 
HETATM   33  F   UNL     1     -39.895  53.535 -54.421  1.00  0.00    -0.169 F 
HETATM   34  F   UNL     1     -39.527  51.585 -53.536  1.00  0.00    -0.169 F 
HETATM   35  F   UNL     1     -41.487  52.029 -54.337  1.00  0.00    -0.169 F 
ENDBRANCH  29  32
ENDBRANCH   1  21
TORSDOF 8
ENDMDL
MODEL 2
REMARK VINA RESULT:      -8.1      5.596      9.529
REMARK  8 active torsions:
REMARK  status: ('A' for Active; 'I' for Inactive)
REMARK    1  A    between atoms: C_8  and  C_9 
REMARK       I    between atoms: C_9  and  N_10 
REMARK    2  A    between atoms: N_10  and  N_11 
REMARK    3  A    between atoms: N_11  and  C_12 
REMARK    4  A    between atoms: C_12  and  N_13 
REMARK    5  A    between atoms: N_13  and  C_14 
REMARK    6  A    between atoms: C_15  and  O_16 
REMARK    7  A    between atoms: C_19  and  O_20 
REMARK    8  A    between atoms: C_26  and  C_27 
ROOT
HETATM    1  C   UNL     1     -44.149  58.054 -54.210  1.00  0.00     0.275 C 
HETATM    2  N   UNL     1     -43.362  57.176 -53.495  1.00  0.00    -0.263 N 
HETATM    3  O   UNL     1     -44.888  58.879 -53.677  1.00  0.00    -0.266 OA
HETATM    4  H   UNL     1     -42.926  56.386 -53.965  1.00  0.00     0.190 HD
ENDROOT
BRANCH   2   5
HETATM    5  N   UNL     1     -43.447  57.146 -52.088  1.00  0.00    -0.273 N 
HETATM    6  H   UNL     1     -43.570  58.076 -51.679  1.00  0.00     0.189 HD
BRANCH   5   7
HETATM    7  C   UNL     1     -42.598  56.320 -51.411  1.00  0.00     0.191 C 
HETATM    8  S   UNL     1     -41.341  56.969 -50.526  1.00  0.00    -0.039 SA
BRANCH   7   9
HETATM    9  N   UNL     1     -42.716  54.969 -51.520  1.00  0.00    -0.330 N 
HETATM   10  H   UNL     1     -43.651  54.611 -51.343  1.00  0.00     0.168 HD
BRANCH   9  11
HETATM   11  C   UNL     1     -41.848  54.000 -52.079  1.00  0.00     0.068 A 
HETATM   12  C   UNL     1     -41.976  53.734 -53.459  1.00  0.00     0.097 A 
HETATM   13  C   UNL     1     -41.127  52.805 -54.076  1.00  0.00     0.075 A 
HETATM   14  C   UNL     1     -40.143  52.150 -53.333  1.00  0.00     0.070 A 
HETATM   15  C   UNL     1     -40.010  52.431 -51.973  1.00  0.00     0.039 A 
HETATM   16  C   UNL     1     -40.847  53.358 -51.349  1.00  0.00     0.035 A 
BRANCH  12  17
HETATM   17  O   UNL     1     -42.974  54.433 -54.099  1.00  0.00    -0.354 OA
HETATM   18  C   UNL     1     -43.192  54.149 -55.476  1.00  0.00     0.210 C 
ENDBRANCH  12  17
BRANCH  14  19
HETATM   19  O   UNL     1     -39.254  51.227 -53.809  1.00  0.00    -0.356 OA
HETATM   20  C   UNL     1     -39.770  49.954 -54.178  1.00  0.00     0.210 C 
ENDBRANCH  14  19
ENDBRANCH   9  11
ENDBRANCH   7   9
ENDBRANCH   5   7
ENDBRANCH   2   5
BRANCH   1  21
HETATM   21  C   UNL     1     -44.054  57.896 -55.645  1.00  0.00     0.098 A 
HETATM   22  C   UNL     1     -45.060  57.894 -56.594  1.00  0.00     0.138 A 
HETATM   23  N   UNL     1     -46.412  57.990 -56.517  1.00  0.00    -0.370 N 
HETATM   24  N   UNL     1     -44.432  57.720 -57.806  1.00  0.00    -0.240 N 
HETATM   25  C   UNL     1     -47.232  58.113 -57.718  1.00  0.00     0.081 C 
HETATM   26  H   UNL     1     -46.921  57.769 -55.660  1.00  0.00     0.161 HD
HETATM   27  C   UNL     1     -47.424  59.589 -58.057  1.00  0.00     0.032 C 
HETATM   28  C   UNL     1     -46.608  57.308 -58.861  1.00  0.00     0.061 C 
HETATM   29  C   UNL     1     -45.123  57.656 -59.082  1.00  0.00     0.221 C 
HETATM   30  N   UNL     1     -43.095  57.672 -57.717  1.00  0.00    -0.181 NA
HETATM   31  C   UNL     1     -42.870  57.730 -56.401  1.00  0.00     0.160 A 
BRANCH  29  32
HETATM   32  C   UNL     1     -44.506  56.644 -60.025  1.00  0.00     0.409 C 
HETATM   33  F   UNL     1     -44.129  55.508 -59.396  1.00  0.00    -0.169 F 
HETATM   34  F   UNL     1     -45.430  56.277 -60.957  1.00  0.00    -0.169 F 
HETATM   35  F   UNL     1     -43.452  57.120 -60.719  1.00  0.00    -0.169 F 
ENDBRANCH  29  32
ENDBRANCH   1  21
TORSDOF 8
ENDMDL
MODEL 3
REMARK VINA RESULT:      -8.1      6.093      9.408
REMARK  8 active torsions:
REMARK  status: ('A' for Active; 'I' for Inactive)
REMARK    1  A    between atoms: C_8  and  C_9 
REMARK       I    between atoms: C_9  and  N_10 
REMARK    2  A    between atoms: N_10  and  N_11 
REMARK    3  A    between atoms: N_11  and  C_12 
REMARK    4  A    between atoms: C_12  and  N_13 
REMARK    5  A    between atoms: N_13  and  C_14 
REMARK    6  A    between atoms: C_15  and  O_16 
REMARK    7  A    between atoms: C_19  and  O_20 
REMARK    8  A    between atoms: C_26  and  C_27 
ROOT
HETATM    1  C   UNL     1     -43.950  56.394 -54.743  1.00  0.00     0.275 C 
HETATM    2  N   UNL     1     -43.950  57.122 -53.571  1.00  0.00    -0.263 N 
HETATM    3  O   UNL     1     -44.058  55.171 -54.772  1.00  0.00    -0.266 OA
HETATM    4  H   UNL     1     -43.660  58.097 -53.578  1.00  0.00     0.190 HD
ENDROOT
BRANCH   2   5
HETATM    5  N   UNL     1     -43.997  56.453 -52.331  1.00  0.00    -0.273 N 
HETATM    6  H   UNL     1     -44.678  56.861 -51.686  1.00  0.00     0.189 HD
BRANCH   5   7
HETATM    7  C   UNL     1     -42.817  56.068 -51.765  1.00  0.00     0.191 C 
HETATM    8  S   UNL     1     -41.619  57.198 -51.497  1.00  0.00    -0.039 SA
BRANCH   7   9
HETATM    9  N   UNL     1     -42.577  54.756 -51.494  1.00  0.00    -0.330 N 
HETATM   10  H   UNL     1     -43.271  54.314 -50.897  1.00  0.00     0.168 HD
BRANCH   9  11
HETATM   11  C   UNL     1     -41.686  53.830 -52.089  1.00  0.00     0.068 A 
HETATM   12  C   UNL     1     -40.768  53.177 -51.239  1.00  0.00     0.097 A 
HETATM   13  C   UNL     1     -39.878  52.230 -51.763  1.00  0.00     0.075 A 
HETATM   14  C   UNL     1     -39.906  51.916 -53.123  1.00  0.00     0.070 A 
HETATM   15  C   UNL     1     -40.829  52.551 -53.955  1.00  0.00     0.039 A 
HETATM   16  C   UNL     1     -41.722  53.493 -53.443  1.00  0.00     0.035 A 
BRANCH  12  17
HETATM   17  O   UNL     1     -40.823  53.557 -49.917  1.00  0.00    -0.354 OA
HETATM   18  C   UNL     1     -39.709  54.270 -49.393  1.00  0.00     0.210 C 
ENDBRANCH  12  17
BRANCH  14  19
HETATM   19  O   UNL     1     -39.099  51.015 -53.759  1.00  0.00    -0.356 OA
HETATM   20  C   UNL     1     -39.734  49.945 -54.449  1.00  0.00     0.210 C 
ENDBRANCH  14  19
ENDBRANCH   9  11
ENDBRANCH   7   9
ENDBRANCH   5   7
ENDBRANCH   2   5
BRANCH   1  21
HETATM   21  C   UNL     1     -43.776  57.197 -55.934  1.00  0.00     0.098 A 
HETATM   22  C   UNL     1     -43.549  56.791 -57.237  1.00  0.00     0.138 A 
HETATM   23  N   UNL     1     -43.378  55.576 -57.817  1.00  0.00    -0.370 N 
HETATM   24  N   UNL     1     -43.472  57.946 -57.981  1.00  0.00    -0.240 N 
HETATM   25  C   UNL     1     -43.303  55.433 -59.267  1.00  0.00     0.081 C 
HETATM   26  H   UNL     1     -43.082  54.759 -57.280  1.00  0.00     0.161 HD
HETATM   27  C   UNL     1     -44.702  55.193 -59.829  1.00  0.00     0.032 C 
HETATM   28  C   UNL     1     -42.609  56.653 -59.877  1.00  0.00     0.061 C 
HETATM   29  C   UNL     1     -43.239  57.980 -59.415  1.00  0.00     0.221 C 
HETATM   30  N   UNL     1     -43.694  59.061 -57.269  1.00  0.00    -0.181 NA
HETATM   31  C   UNL     1     -43.830  58.608 -56.019  1.00  0.00     0.160 A 
BRANCH  29  32
HETATM   32  C   UNL     1     -42.345  59.131 -59.829  1.00  0.00     0.409 C 
HETATM   33  F   UNL     1     -43.025  60.290 -59.982  1.00  0.00    -0.169 F 
HETATM   34  F   UNL     1     -41.422  59.356 -58.852  1.00  0.00    -0.169 F 
HETATM   35  F   UNL     1     -41.640  58.894 -60.954  1.00  0.00    -0.169 F 
ENDBRANCH  29  32
ENDBRANCH   1  21
TORSDOF 8
ENDMDL
MODEL 4
REMARK VINA RESULT:      -8.0      4.698      6.359
REMARK  8 active torsions:
REMARK  status: ('A' for Active; 'I' for Inactive)
REMARK    1  A    between atoms: C_8  and  C_9 
REMARK       I    between atoms: C_9  and  N_10 
REMARK    2  A    between atoms: N_10  and  N_11 
REMARK    3  A    between atoms: N_11  and  C_12 
REMARK    4  A    between atoms: C_12  and  N_13 
REMARK    5  A    between atoms: N_13  and  C_14 
REMARK    6  A    between atoms: C_15  and  O_16 
REMARK    7  A    between atoms: C_19  and  O_20 
REMARK    8  A    between atoms: C_26  and  C_27 
ROOT
HETATM    1  C   UNL     1     -41.169  54.899 -50.168  1.00  0.00     0.275 C 
HETATM    2  N   UNL     1     -40.991  56.152 -50.716  1.00  0.00    -0.263 N 
HETATM    3  O   UNL     1     -41.704  54.714 -49.077  1.00  0.00    -0.266 OA
HETATM    4  H   UNL     1     -40.373  56.275 -51.514  1.00  0.00     0.190 HD
ENDROOT
BRANCH   2   5
HETATM    5  N   UNL     1     -41.359  57.297 -49.979  1.00  0.00    -0.273 N 
HETATM    6  H   UNL     1     -42.207  57.155 -49.424  1.00  0.00     0.189 HD
BRANCH   5   7
HETATM    7  C   UNL     1     -41.260  58.513 -50.590  1.00  0.00     0.191 C 
HETATM    8  S   UNL     1     -40.022  59.551 -50.175  1.00  0.00    -0.039 SA
BRANCH   7   9
HETATM    9  N   UNL     1     -42.212  58.920 -51.474  1.00  0.00    -0.330 N 
HETATM   10  H   UNL     1     -42.938  59.507 -51.072  1.00  0.00     0.168 HD
BRANCH   9  11
HETATM   11  C   UNL     1     -42.243  58.891 -52.889  1.00  0.00     0.068 A 
HETATM   12  C   UNL     1     -42.698  57.704 -53.503  1.00  0.00     0.097 A 
HETATM   13  C   UNL     1     -42.777  57.623 -54.900  1.00  0.00     0.075 A 
HETATM   14  C   UNL     1     -42.421  58.718 -55.689  1.00  0.00     0.070 A 
HETATM   15  C   UNL     1     -41.990  59.894 -55.075  1.00  0.00     0.039 A 
HETATM   16  C   UNL     1     -41.911  59.988 -53.685  1.00  0.00     0.035 A 
BRANCH  12  17
HETATM   17  O   UNL     1     -43.025  56.686 -52.636  1.00  0.00    -0.354 OA
HETATM   18  C   UNL     1     -44.356  56.654 -52.136  1.00  0.00     0.210 C 
ENDBRANCH  12  17
BRANCH  14  19
HETATM   19  O   UNL     1     -42.453  58.772 -57.054  1.00  0.00    -0.356 OA
HETATM   20  C   UNL     1     -43.567  58.172 -57.704  1.00  0.00     0.210 C 
ENDBRANCH  14  19
ENDBRANCH   9  11
ENDBRANCH   7   9
ENDBRANCH   5   7
ENDBRANCH   2   5
BRANCH   1  21
HETATM   21  C   UNL     1     -40.639  53.822 -50.976  1.00  0.00     0.098 A 
HETATM   22  C   UNL     1     -40.861  53.540 -52.311  1.00  0.00     0.138 A 
HETATM   23  N   UNL     1     -41.639  54.110 -53.267  1.00  0.00    -0.370 N 
HETATM   24  N   UNL     1     -40.112  52.419 -52.588  1.00  0.00    -0.240 N 
HETATM   25  C   UNL     1     -41.561  53.685 -54.660  1.00  0.00     0.081 C 
HETATM   26  H   UNL     1     -42.445  54.691 -53.030  1.00  0.00     0.161 HD
HETATM   27  C   UNL     1     -40.523  54.530 -55.395  1.00  0.00     0.032 C 
HETATM   28  C   UNL     1     -41.277  52.182 -54.732  1.00  0.00     0.061 C 
HETATM   29  C   UNL     1     -40.054  51.775 -53.888  1.00  0.00     0.221 C 
HETATM   30  N   UNL     1     -39.376  51.995 -51.549  1.00  0.00    -0.181 NA
HETATM   31  C   UNL     1     -39.735  52.818 -50.559  1.00  0.00     0.160 A 
BRANCH  29  32
HETATM   32  C   UNL     1     -39.997  50.264 -53.784  1.00  0.00     0.409 C 
HETATM   33  F   UNL     1     -40.169  49.822 -52.518  1.00  0.00    -0.169 F 
HETATM   34  F   UNL     1     -41.011  49.726 -54.518  1.00  0.00    -0.169 F 
HETATM   35  F   UNL     1     -38.861  49.728 -54.276  1.00  0.00    -0.169 F 
ENDBRANCH  29  32
ENDBRANCH   1  21
TORSDOF 8
ENDMDL
MODEL 5
REMARK VINA RESULT:      -8.0      4.529      6.866
REMARK  8 active torsions:
REMARK  status: ('A' for Active; 'I' for Inactive)
REMARK    1  A    between atoms: C_8  and  C_9 
REMARK       I    between atoms: C_9  and  N_10 
REMARK    2  A    between atoms: N_10  and  N_11 
REMARK    3  A    between atoms: N_11  and  C_12 
REMARK    4  A    between atoms: C_12  and  N_13 
REMARK    5  A    between atoms: N_13  and  C_14 
REMARK    6  A    between atoms: C_15  and  O_16 
REMARK    7  A    between atoms: C_19  and  O_20 
REMARK    8  A    between atoms: C_26  and  C_27 
ROOT
HETATM    1  C   UNL     1     -43.071  54.884 -50.688  1.00  0.00     0.275 C 
HETATM    2  N   UNL     1     -42.747  56.182 -51.021  1.00  0.00    -0.263 N 
HETATM    3  O   UNL     1     -44.141  54.571 -50.171  1.00  0.00    -0.266 OA
HETATM    4  H   UNL     1     -41.788  56.423 -51.257  1.00  0.00     0.190 HD
ENDROOT
BRANCH   2   5
HETATM    5  N   UNL     1     -43.633  57.230 -50.694  1.00  0.00    -0.273 N 
HETATM    6  H   UNL     1     -44.071  57.106 -49.778  1.00  0.00     0.189 HD
BRANCH   5   7
HETATM    7  C   UNL     1     -44.455  57.706 -51.674  1.00  0.00     0.191 C 
HETATM    8  S   UNL     1     -45.356  59.083 -51.403  1.00  0.00    -0.039 SA
BRANCH   7   9
HETATM    9  N   UNL     1     -44.610  57.018 -52.837  1.00  0.00    -0.330 N 
HETATM   10  H   UNL     1     -45.183  56.182 -52.761  1.00  0.00     0.168 HD
BRANCH   9  11
HETATM   11  C   UNL     1     -44.337  57.382 -54.178  1.00  0.00     0.068 A 
HETATM   12  C   UNL     1     -43.009  57.230 -54.633  1.00  0.00     0.097 A 
HETATM   13  C   UNL     1     -42.681  57.548 -55.958  1.00  0.00     0.075 A 
HETATM   14  C   UNL     1     -43.666  58.001 -56.837  1.00  0.00     0.070 A 
HETATM   15  C   UNL     1     -44.980  58.131 -56.387  1.00  0.00     0.039 A 
HETATM   16  C   UNL     1     -45.319  57.814 -55.070  1.00  0.00     0.035 A 
BRANCH  12  17
HETATM   17  O   UNL     1     -42.116  56.776 -53.689  1.00  0.00    -0.354 OA
HETATM   18  C   UNL     1     -40.905  57.505 -53.529  1.00  0.00     0.210 C 
ENDBRANCH  12  17
BRANCH  14  19
HETATM   19  O   UNL     1     -43.482  58.342 -58.148  1.00  0.00    -0.356 OA
HETATM   20  C   UNL     1     -43.550  57.295 -59.109  1.00  0.00     0.210 C 
ENDBRANCH  14  19
ENDBRANCH   9  11
ENDBRANCH   7   9
ENDBRANCH   5   7
ENDBRANCH   2   5
BRANCH   1  21
HETATM   21  C   UNL     1     -42.024  53.926 -50.970  1.00  0.00     0.098 A 
HETATM   22  C   UNL     1     -41.573  53.456 -52.190  1.00  0.00     0.138 A 
HETATM   23  N   UNL     1     -41.956  53.680 -53.473  1.00  0.00    -0.370 N 
HETATM   24  N   UNL     1     -40.558  52.573 -51.900  1.00  0.00    -0.240 N 
HETATM   25  C   UNL     1     -41.188  53.154 -54.596  1.00  0.00     0.081 C 
HETATM   26  H   UNL     1     -42.888  54.028 -53.704  1.00  0.00     0.161 HD
HETATM   27  C   UNL     1     -40.140  54.179 -55.023  1.00  0.00     0.032 C 
HETATM   28  C   UNL     1     -40.586  51.795 -54.226  1.00  0.00     0.061 C 
HETATM   29  C   UNL     1     -39.801  51.842 -52.901  1.00  0.00     0.221 C 
HETATM   30  N   UNL     1     -40.280  52.485 -50.591  1.00  0.00    -0.181 NA
HETATM   31  C   UNL     1     -41.201  53.269 -50.025  1.00  0.00     0.160 A 
BRANCH  29  32
HETATM   32  C   UNL     1     -39.474  50.429 -52.462  1.00  0.00     0.409 C 
HETATM   33  F   UNL     1     -40.561  49.755 -52.023  1.00  0.00    -0.169 F 
HETATM   34  F   UNL     1     -38.994  49.728 -53.528  1.00  0.00    -0.169 F 
HETATM   35  F   UNL     1     -38.516  50.363 -51.515  1.00  0.00    -0.169 F 
ENDBRANCH  29  32
ENDBRANCH   1  21
TORSDOF 8
ENDMDL
MODEL 6
REMARK VINA RESULT:      -7.8      5.995      9.476
REMARK  8 active torsions:
REMARK  status: ('A' for Active; 'I' for Inactive)
REMARK    1  A    between atoms: C_8  and  C_9 
REMARK       I    between atoms: C_9  and  N_10 
REMARK    2  A    between atoms: N_10  and  N_11 
REMARK    3  A    between atoms: N_11  and  C_12 
REMARK    4  A    between atoms: C_12  and  N_13 
REMARK    5  A    between atoms: N_13  and  C_14 
REMARK    6  A    between atoms: C_15  and  O_16 
REMARK    7  A    between atoms: C_19  and  O_20 
REMARK    8  A    between atoms: C_26  and  C_27 
ROOT
HETATM    1  C   UNL     1     -42.477  57.429 -55.476  1.00  0.00     0.275 C 
HETATM    2  N   UNL     1     -42.569  56.641 -54.348  1.00  0.00    -0.263 N 
HETATM    3  O   UNL     1     -42.121  58.604 -55.446  1.00  0.00    -0.266 OA
HETATM    4  H   UNL     1     -43.054  55.748 -54.389  1.00  0.00     0.190 HD
ENDROOT
BRANCH   2   5
HETATM    5  N   UNL     1     -42.324  57.205 -53.078  1.00  0.00    -0.273 N 
HETATM    6  H   UNL     1     -41.604  57.931 -53.101  1.00  0.00     0.189 HD
BRANCH   5   7
HETATM    7  C   UNL     1     -42.273  56.368 -52.003  1.00  0.00     0.191 C 
HETATM    8  S   UNL     1     -43.588  56.248 -50.983  1.00  0.00    -0.039 SA
BRANCH   7   9
HETATM    9  N   UNL     1     -41.129  55.694 -51.707  1.00  0.00    -0.330 N 
HETATM   10  H   UNL     1     -40.565  56.118 -50.974  1.00  0.00     0.168 HD
BRANCH   9  11
HETATM   11  C   UNL     1     -40.703  54.386 -52.046  1.00  0.00     0.068 A 
HETATM   12  C   UNL     1     -40.174  53.588 -51.010  1.00  0.00     0.097 A 
HETATM   13  C   UNL     1     -39.760  52.276 -51.277  1.00  0.00     0.075 A 
HETATM   14  C   UNL     1     -39.883  51.748 -52.564  1.00  0.00     0.070 A 
HETATM   15  C   UNL     1     -40.423  52.537 -53.580  1.00  0.00     0.039 A 
HETATM   16  C   UNL     1     -40.843  53.843 -53.324  1.00  0.00     0.035 A 
BRANCH  12  17
HETATM   17  O   UNL     1     -40.097  54.201 -49.780  1.00  0.00    -0.354 OA
HETATM   18  C   UNL     1     -40.500  53.444 -48.645  1.00  0.00     0.210 C 
ENDBRANCH  12  17
BRANCH  14  19
HETATM   19  O   UNL     1     -39.521  50.490 -52.957  1.00  0.00    -0.356 OA
HETATM   20  C   UNL     1     -39.962  50.055 -54.238  1.00  0.00     0.210 C 
ENDBRANCH  14  19
ENDBRANCH   9  11
ENDBRANCH   7   9
ENDBRANCH   5   7
ENDBRANCH   2   5
BRANCH   1  21
HETATM   21  C   UNL     1     -42.871  56.757 -56.696  1.00  0.00     0.098 A 
HETATM   22  C   UNL     1     -43.230  57.300 -57.916  1.00  0.00     0.138 A 
HETATM   23  N   UNL     1     -43.372  58.574 -58.363  1.00  0.00    -0.370 N 
HETATM   24  N   UNL     1     -43.500  56.230 -58.738  1.00  0.00    -0.240 N 
HETATM   25  C   UNL     1     -43.621  58.859 -59.772  1.00  0.00     0.081 C 
HETATM   26  H   UNL     1     -43.525  59.356 -57.724  1.00  0.00     0.161 HD
HETATM   27  C   UNL     1     -42.291  59.048 -60.498  1.00  0.00     0.032 C 
HETATM   28  C   UNL     1     -44.489  57.756 -60.382  1.00  0.00     0.061 C 
HETATM   29  C   UNL     1     -43.919  56.348 -60.124  1.00  0.00     0.221 C 
HETATM   30  N   UNL     1     -43.284  55.039 -58.159  1.00  0.00    -0.181 NA
HETATM   31  C   UNL     1     -42.949  55.361 -56.906  1.00  0.00     0.160 A 
BRANCH  29  32
HETATM   32  C   UNL     1     -44.954  55.310 -60.507  1.00  0.00     0.409 C 
HETATM   33  F   UNL     1     -44.676  54.087 -60.003  1.00  0.00    -0.169 F 
HETATM   34  F   UNL     1     -46.163  55.670 -59.992  1.00  0.00    -0.169 F 
HETATM   35  F   UNL     1     -45.140  55.194 -61.838  1.00  0.00    -0.169 F 
ENDBRANCH  29  32
ENDBRANCH   1  21
TORSDOF 8
ENDMDL
MODEL 7
REMARK VINA RESULT:      -7.8      6.071      9.298
REMARK  8 active torsions:
REMARK  status: ('A' for Active; 'I' for Inactive)
REMARK    1  A    between atoms: C_8  and  C_9 
REMARK       I    between atoms: C_9  and  N_10 
REMARK    2  A    between atoms: N_10  and  N_11 
REMARK    3  A    between atoms: N_11  and  C_12 
REMARK    4  A    between atoms: C_12  and  N_13 
REMARK    5  A    between atoms: N_13  and  C_14 
REMARK    6  A    between atoms: C_15  and  O_16 
REMARK    7  A    between atoms: C_19  and  O_20 
REMARK    8  A    between atoms: C_26  and  C_27 
ROOT
HETATM    1  C   UNL     1     -42.323  57.584 -55.342  1.00  0.00     0.275 C 
HETATM    2  N   UNL     1     -41.364  56.968 -54.566  1.00  0.00    -0.263 N 
HETATM    3  O   UNL     1     -42.792  58.689 -55.079  1.00  0.00    -0.266 OA
HETATM    4  H   UNL     1     -41.154  55.983 -54.705  1.00  0.00     0.190 HD
ENDROOT
BRANCH   2   5
HETATM    5  N   UNL     1     -40.939  57.575 -53.367  1.00  0.00    -0.273 N 
HETATM    6  H   UNL     1     -39.953  57.846 -53.389  1.00  0.00     0.189 HD
BRANCH   5   7
HETATM    7  C   UNL     1     -41.369  57.039 -52.188  1.00  0.00     0.191 C 
HETATM    8  S   UNL     1     -41.145  57.880 -50.765  1.00  0.00    -0.039 SA
BRANCH   7   9
HETATM    9  N   UNL     1     -41.902  55.788 -52.153  1.00  0.00    -0.330 N 
HETATM   10  H   UNL     1     -42.790  55.692 -52.639  1.00  0.00     0.168 HD
BRANCH   9  11
HETATM   11  C   UNL     1     -41.334  54.543 -51.787  1.00  0.00     0.068 A 
HETATM   12  C   UNL     1     -40.792  53.749 -52.820  1.00  0.00     0.097 A 
HETATM   13  C   UNL     1     -40.192  52.519 -52.518  1.00  0.00     0.075 A 
HETATM   14  C   UNL     1     -40.114  52.081 -51.195  1.00  0.00     0.070 A 
HETATM   15  C   UNL     1     -40.636  52.879 -50.176  1.00  0.00     0.039 A 
HETATM   16  C   UNL     1     -41.232  54.108 -50.465  1.00  0.00     0.035 A 
BRANCH  12  17
HETATM   17  O   UNL     1     -40.918  54.273 -54.087  1.00  0.00    -0.354 OA
HETATM   18  C   UNL     1     -40.054  53.761 -55.095  1.00  0.00     0.210 C 
ENDBRANCH  12  17
BRANCH  14  19
HETATM   19  O   UNL     1     -39.557  50.909 -50.765  1.00  0.00    -0.356 OA
HETATM   20  C   UNL     1     -39.505  49.833 -51.694  1.00  0.00     0.210 C 
ENDBRANCH  14  19
ENDBRANCH   9  11
ENDBRANCH   7   9
ENDBRANCH   5   7
ENDBRANCH   2   5
BRANCH   1  21
HETATM   21  C   UNL     1     -42.756  56.798 -56.478  1.00  0.00     0.098 A 
HETATM   22  C   UNL     1     -43.062  57.211 -57.762  1.00  0.00     0.138 A 
HETATM   23  N   UNL     1     -43.105  58.427 -58.363  1.00  0.00    -0.370 N 
HETATM   24  N   UNL     1     -43.405  56.070 -58.451  1.00  0.00    -0.240 N 
HETATM   25  C   UNL     1     -43.320  58.554 -59.801  1.00  0.00     0.081 C 
HETATM   26  H   UNL     1     -43.205  59.290 -57.828  1.00  0.00     0.161 HD
HETATM   27  C   UNL     1     -41.973  58.554 -60.520  1.00  0.00     0.032 C 
HETATM   28  C   UNL     1     -44.263  57.450 -60.287  1.00  0.00     0.061 C 
HETATM   29  C   UNL     1     -43.802  56.047 -59.848  1.00  0.00     0.221 C 
HETATM   30  N   UNL     1     -43.282  54.948 -57.727  1.00  0.00    -0.181 NA
HETATM   31  C   UNL     1     -42.936  55.396 -56.517  1.00  0.00     0.160 A 
BRANCH  29  32
HETATM   32  C   UNL     1     -44.907  55.048 -60.120  1.00  0.00     0.409 C 
HETATM   33  F   UNL     1     -46.139  55.560 -59.901  1.00  0.00    -0.169 F 
HETATM   34  F   UNL     1     -44.871  54.685 -61.433  1.00  0.00    -0.169 F 
HETATM   35  F   UNL     1     -44.787  53.902 -59.418  1.00  0.00    -0.169 F 
ENDBRANCH  29  32
ENDBRANCH   1  21
TORSDOF 8
ENDMDL
MODEL 8
REMARK VINA RESULT:      -7.7      6.121      9.308
REMARK  8 active torsions:
REMARK  status: ('A' for Active; 'I' for Inactive)
REMARK    1  A    between atoms: C_8  and  C_9 
REMARK       I    between atoms: C_9  and  N_10 
REMARK    2  A    between atoms: N_10  and  N_11 
REMARK    3  A    between atoms: N_11  and  C_12 
REMARK    4  A    between atoms: C_12  and  N_13 
REMARK    5  A    between atoms: N_13  and  C_14 
REMARK    6  A    between atoms: C_15  and  O_16 
REMARK    7  A    between atoms: C_19  and  O_20 
REMARK    8  A    between atoms: C_26  and  C_27 
ROOT
HETATM    1  C   UNL     1     -43.999  56.922 -55.008  1.00  0.00     0.275 C 
HETATM    2  N   UNL     1     -44.395  57.089 -56.319  1.00  0.00    -0.263 N 
HETATM    3  O   UNL     1     -44.192  57.766 -54.136  1.00  0.00    -0.266 OA
HETATM    4  H   UNL     1     -44.041  56.465 -57.040  1.00  0.00     0.190 HD
ENDROOT
BRANCH   2   5
HETATM    5  N   UNL     1     -44.981  58.306 -56.723  1.00  0.00    -0.273 N 
HETATM    6  H   UNL     1     -45.995  58.238 -56.838  1.00  0.00     0.189 HD
BRANCH   5   7
HETATM    7  C   UNL     1     -44.336  59.046 -57.670  1.00  0.00     0.191 C 
HETATM    8  S   UNL     1     -43.560  60.457 -57.233  1.00  0.00    -0.039 SA
BRANCH   7   9
HETATM    9  N   UNL     1     -44.393  58.689 -58.982  1.00  0.00    -0.330 N 
HETATM   10  H   UNL     1     -43.487  58.601 -59.436  1.00  0.00     0.168 HD
BRANCH   9  11
HETATM   11  C   UNL     1     -45.456  58.172 -59.762  1.00  0.00     0.068 A 
HETATM   12  C   UNL     1     -45.559  56.768 -59.867  1.00  0.00     0.097 A 
HETATM   13  C   UNL     1     -46.606  56.195 -60.602  1.00  0.00     0.075 A 
HETATM   14  C   UNL     1     -47.558  57.008 -61.221  1.00  0.00     0.070 A 
HETATM   15  C   UNL     1     -47.460  58.394 -61.097  1.00  0.00     0.039 A 
HETATM   16  C   UNL     1     -46.425  58.976 -60.364  1.00  0.00     0.035 A 
BRANCH  12  17
HETATM   17  O   UNL     1     -44.573  56.059 -59.220  1.00  0.00    -0.354 OA
HETATM   18  C   UNL     1     -44.362  54.712 -59.626  1.00  0.00     0.210 C 
ENDBRANCH  12  17
BRANCH  14  19
HETATM   19  O   UNL     1     -48.623  56.581 -61.962  1.00  0.00    -0.356 OA
HETATM   20  C   UNL     1     -49.265  57.539 -62.794  1.00  0.00     0.210 C 
ENDBRANCH  14  19
ENDBRANCH   9  11
ENDBRANCH   7   9
ENDBRANCH   5   7
ENDBRANCH   2   5
BRANCH   1  21
HETATM   21  C   UNL     1     -43.303  55.678 -54.758  1.00  0.00     0.098 A 
HETATM   22  C   UNL     1     -42.617  55.271 -53.628  1.00  0.00     0.138 A 
HETATM   23  N   UNL     1     -42.335  55.872 -52.444  1.00  0.00    -0.370 N 
HETATM   24  N   UNL     1     -42.156  54.004 -53.904  1.00  0.00    -0.240 N 
HETATM   25  C   UNL     1     -41.708  55.135 -51.351  1.00  0.00     0.081 C 
HETATM   26  H   UNL     1     -42.344  56.888 -52.339  1.00  0.00     0.161 HD
HETATM   27  C   UNL     1     -42.789  54.522 -50.464  1.00  0.00     0.032 C 
HETATM   28  C   UNL     1     -40.730  54.101 -51.913  1.00  0.00     0.061 C 
HETATM   29  C   UNL     1     -41.376  53.199 -52.981  1.00  0.00     0.221 C 
HETATM   30  N   UNL     1     -42.545  53.540 -55.101  1.00  0.00    -0.181 NA
HETATM   31  C   UNL     1     -43.199  54.575 -55.637  1.00  0.00     0.160 A 
BRANCH  29  32
HETATM   32  C   UNL     1     -40.298  52.397 -53.680  1.00  0.00     0.409 C 
HETATM   33  F   UNL     1     -39.646  53.113 -54.624  1.00  0.00    -0.169 F 
HETATM   34  F   UNL     1     -39.358  52.019 -52.769  1.00  0.00    -0.169 F 
HETATM   35  F   UNL     1     -40.748  51.255 -54.241  1.00  0.00    -0.169 F 
ENDBRANCH  29  32
ENDBRANCH   1  21
TORSDOF 8
ENDMDL
MODEL 9
REMARK VINA RESULT:      -7.6      3.729      5.929
REMARK  8 active torsions:
REMARK  status: ('A' for Active; 'I' for Inactive)
REMARK    1  A    between atoms: C_8  and  C_9 
REMARK       I    between atoms: C_9  and  N_10 
REMARK    2  A    between atoms: N_10  and  N_11 
REMARK    3  A    between atoms: N_11  and  C_12 
REMARK    4  A    between atoms: C_12  and  N_13 
REMARK    5  A    between atoms: N_13  and  C_14 
REMARK    6  A    between atoms: C_15  and  O_16 
REMARK    7  A    between atoms: C_19  and  O_20 
REMARK    8  A    between atoms: C_26  and  C_27 
ROOT
HETATM    1  C   UNL     1     -42.351  54.708 -55.496  1.00  0.00     0.275 C 
HETATM    2  N   UNL     1     -41.620  55.810 -55.889  1.00  0.00    -0.263 N 
HETATM    3  O   UNL     1     -43.318  54.285 -56.126  1.00  0.00    -0.266 OA
HETATM    4  H   UNL     1     -40.964  56.241 -55.243  1.00  0.00     0.190 HD
ENDROOT
BRANCH   2   5
HETATM    5  N   UNL     1     -42.023  56.551 -57.019  1.00  0.00    -0.273 N 
HETATM    6  H   UNL     1     -41.378  56.456 -57.806  1.00  0.00     0.189 HD
BRANCH   5   7
HETATM    7  C   UNL     1     -42.517  57.807 -56.820  1.00  0.00     0.191 C 
HETATM    8  S   UNL     1     -43.417  58.543 -58.016  1.00  0.00    -0.039 SA
BRANCH   7   9
HETATM    9  N   UNL     1     -42.209  58.498 -55.688  1.00  0.00    -0.330 N 
HETATM   10  H   UNL     1     -41.458  59.174 -55.797  1.00  0.00     0.168 HD
BRANCH   9  11
HETATM   11  C   UNL     1     -42.903  58.632 -54.461  1.00  0.00     0.068 A 
HETATM   12  C   UNL     1     -42.196  59.191 -53.375  1.00  0.00     0.097 A 
HETATM   13  C   UNL     1     -42.835  59.375 -52.141  1.00  0.00     0.075 A 
HETATM   14  C   UNL     1     -44.177  59.020 -51.985  1.00  0.00     0.070 A 
HETATM   15  C   UNL     1     -44.875  58.484 -53.068  1.00  0.00     0.039 A 
HETATM   16  C   UNL     1     -44.249  58.301 -54.302  1.00  0.00     0.035 A 
BRANCH  12  17
HETATM   17  O   UNL     1     -40.881  59.508 -53.634  1.00  0.00    -0.354 OA
HETATM   18  C   UNL     1     -39.886  58.860 -52.851  1.00  0.00     0.210 C 
ENDBRANCH  12  17
BRANCH  14  19
HETATM   19  O   UNL     1     -44.916  59.147 -50.843  1.00  0.00    -0.356 OA
HETATM   20  C   UNL     1     -45.232  60.466 -50.414  1.00  0.00     0.210 C 
ENDBRANCH  14  19
ENDBRANCH   9  11
ENDBRANCH   7   9
ENDBRANCH   5   7
ENDBRANCH   2   5
BRANCH   1  21
HETATM   21  C   UNL     1     -41.900  54.114 -54.256  1.00  0.00     0.098 A 
HETATM   22  C   UNL     1     -42.078  54.557 -52.958  1.00  0.00     0.138 A 
HETATM   23  N   UNL     1     -42.666  55.658 -52.423  1.00  0.00    -0.370 N 
HETATM   24  N   UNL     1     -41.465  53.623 -52.155  1.00  0.00    -0.240 N 
HETATM   25  C   UNL     1     -42.843  55.796 -50.981  1.00  0.00     0.081 C 
HETATM   26  H   UNL     1     -42.808  56.511 -52.965  1.00  0.00     0.161 HD
HETATM   27  C   UNL     1     -44.197  55.219 -50.576  1.00  0.00     0.032 C 
HETATM   28  C   UNL     1     -41.667  55.148 -50.246  1.00  0.00     0.061 C 
HETATM   29  C   UNL     1     -41.412  53.700 -50.706  1.00  0.00     0.221 C 
HETATM   30  N   UNL     1     -40.960  52.582 -52.832  1.00  0.00    -0.181 NA
HETATM   31  C   UNL     1     -41.182  52.905 -54.109  1.00  0.00     0.160 A 
BRANCH  29  32
HETATM   32  C   UNL     1     -40.087  53.223 -50.149  1.00  0.00     0.409 C 
HETATM   33  F   UNL     1     -39.811  53.750 -48.934  1.00  0.00    -0.169 F 
HETATM   34  F   UNL     1     -40.132  51.872 -49.978  1.00  0.00    -0.169 F 
HETATM   35  F   UNL     1     -39.039  53.456 -50.966  1.00  0.00    -0.169 F 
ENDBRANCH  29  32
ENDBRANCH   1  21
TORSDOF 8
ENDMDL
MODEL 10
REMARK VINA RESULT:      -7.6      4.934      9.771
REMARK  8 active torsions:
REMARK  status: ('A' for Active; 'I' for Inactive)
REMARK    1  A    between atoms: C_8  and  C_9 
REMARK       I    between atoms: C_9  and  N_10 
REMARK    2  A    between atoms: N_10  and  N_11 
REMARK    3  A    between atoms: N_11  and  C_12 
REMARK    4  A    between atoms: C_12  and  N_13 
REMARK    5  A    between atoms: N_13  and  C_14 
REMARK    6  A    between atoms: C_15  and  O_16 
REMARK    7  A    between atoms: C_19  and  O_20 
REMARK    8  A    between atoms: C_26  and  C_27 
ROOT
HETATM    1  C   UNL     1     -44.927  57.912 -53.950  1.00  0.00     0.275 C 
HETATM    2  N   UNL     1     -44.538  56.590 -53.894  1.00  0.00    -0.263 N 
HETATM    3  O   UNL     1     -45.047  58.532 -55.004  1.00  0.00    -0.266 OA
HETATM    4  H   UNL     1     -44.258  56.180 -53.007  1.00  0.00     0.190 HD
ENDROOT
BRANCH   2   5
HETATM    5  N   UNL     1     -44.180  55.915 -55.079  1.00  0.00    -0.273 N 
HETATM    6  H   UNL     1     -44.436  54.925 -55.063  1.00  0.00     0.189 HD
BRANCH   5   7
HETATM    7  C   UNL     1     -42.966  56.193 -55.636  1.00  0.00     0.191 C 
HETATM    8  S   UNL     1     -42.875  56.666 -57.233  1.00  0.00    -0.039 SA
BRANCH   7   9
HETATM    9  N   UNL     1     -41.822  56.006 -54.923  1.00  0.00    -0.330 N 
HETATM   10  H   UNL     1     -41.391  56.862 -54.583  1.00  0.00     0.168 HD
BRANCH   9  11
HETATM   11  C   UNL     1     -41.259  54.838 -54.354  1.00  0.00     0.068 A 
HETATM   12  C   UNL     1     -41.511  54.599 -52.986  1.00  0.00     0.097 A 
HETATM   13  C   UNL     1     -41.004  53.446 -52.371  1.00  0.00     0.075 A 
HETATM   14  C   UNL     1     -40.261  52.523 -53.110  1.00  0.00     0.070 A 
HETATM   15  C   UNL     1     -40.031  52.757 -54.466  1.00  0.00     0.039 A 
HETATM   16  C   UNL     1     -40.535  53.900 -55.090  1.00  0.00     0.035 A 
BRANCH  12  17
HETATM   17  O   UNL     1     -42.254  55.567 -52.349  1.00  0.00    -0.354 OA
HETATM   18  C   UNL     1     -41.601  56.341 -51.350  1.00  0.00     0.210 C 
ENDBRANCH  12  17
BRANCH  14  19
HETATM   19  O   UNL     1     -39.713  51.364 -52.636  1.00  0.00    -0.356 OA
HETATM   20  C   UNL     1     -39.701  50.243 -53.512  1.00  0.00     0.210 C 
ENDBRANCH  14  19
ENDBRANCH   9  11
ENDBRANCH   7   9
ENDBRANCH   5   7
ENDBRANCH   2   5
BRANCH   1  21
HETATM   21  C   UNL     1     -45.147  58.516 -52.653  1.00  0.00     0.098 A 
HETATM   22  C   UNL     1     -45.517  59.812 -52.343  1.00  0.00     0.138 A 
HETATM   23  N   UNL     1     -45.748  60.919 -53.095  1.00  0.00    -0.370 N 
HETATM   24  N   UNL     1     -45.600  59.861 -50.971  1.00  0.00    -0.240 N 
HETATM   25  C   UNL     1     -46.283  62.139 -52.500  1.00  0.00     0.081 C 
HETATM   26  H   UNL     1     -45.368  61.021 -54.037  1.00  0.00     0.161 HD
HETATM   27  C   UNL     1     -47.808  62.115 -52.567  1.00  0.00     0.032 C 
HETATM   28  C   UNL     1     -45.744  62.306 -51.077  1.00  0.00     0.061 C 
HETATM   29  C   UNL     1     -45.961  61.048 -50.215  1.00  0.00     0.221 C 
HETATM   30  N   UNL     1     -45.372  58.680 -50.377  1.00  0.00    -0.181 NA
HETATM   31  C   UNL     1     -45.050  57.877 -51.395  1.00  0.00     0.160 A 
BRANCH  29  32
HETATM   32  C   UNL     1     -45.171  61.178 -48.929  1.00  0.00     0.409 C 
HETATM   33  F   UNL     1     -43.847  60.971 -49.107  1.00  0.00    -0.169 F 
HETATM   34  F   UNL     1     -45.299  62.447 -48.451  1.00  0.00    -0.169 F 
HETATM   35  F   UNL     1     -45.603  60.367 -47.942  1.00  0.00    -0.169 F 
ENDBRANCH  29  32
ENDBRANCH   1  21
TORSDOF 8
ENDMDL
