MODEL 1
REMARK VINA RESULT:      -8.4      0.000      0.000
REMARK  5 active torsions:
REMARK  status: ('A' for Active; 'I' for Inactive)
REMARK    1  A    between atoms: C_4  and  N_5 
REMARK    2  A    between atoms: C_8  and  N_9 
REMARK    3  A    between atoms: C_14  and  N_15 
REMARK    4  A    between atoms: N_15  and  C_16 
REMARK    5  A    between atoms: C_19  and  C_20 
REMARK       I    between atoms: C_20  and  N_21 
ROOT
HETATM    1  C   UNL     1     -44.843  57.719 -51.872  1.00  0.00     0.071 C 
HETATM    2  C   UNL     1     -43.885  57.139 -52.869  1.00  0.00     0.053 A 
HETATM    3  N   UNL     1     -44.192  57.268 -54.170  1.00  0.00    -0.066 NA
HETATM    4  C   UNL     1     -43.338  56.723 -55.060  1.00  0.00     0.751 A 
HETATM    5  N   UNL     1     -42.214  56.053 -54.725  1.00  0.00    -0.043 NA
HETATM    6  C   UNL     1     -41.922  55.949 -53.419  1.00  0.00     0.149 A 
HETATM    7  C   UNL     1     -42.741  56.495 -52.447  1.00  0.00     0.078 A 
ENDROOT
BRANCH   6   8
HETATM    8  N   UNL     1     -40.762  55.267 -52.987  1.00  0.00    -0.340 N 
HETATM    9  H   UNL     1     -39.931  55.785 -53.250  1.00  0.00     0.167 HD
BRANCH   8  10
HETATM   10  C   UNL     1     -40.540  53.879 -52.887  1.00  0.00     0.033 A 
HETATM   11  C   UNL     1     -40.471  53.110 -54.059  1.00  0.00     0.030 A 
HETATM   12  C   UNL     1     -40.152  51.746 -54.018  1.00  0.00     0.019 A 
HETATM   13  C   UNL     1     -39.878  51.130 -52.793  1.00  0.00     0.032 A 
HETATM   14  C   UNL     1     -39.916  51.891 -51.621  1.00  0.00     0.019 A 
HETATM   15  C   UNL     1     -40.241  53.251 -51.672  1.00  0.00     0.030 A 
BRANCH  13  16
HETATM   16  C   UNL     1     -39.494  49.696 -52.692  1.00  0.00     0.249 C 
HETATM   17  N   UNL     1     -39.473  49.133 -51.447  1.00  0.00    -0.366 N 
HETATM   18  H   UNL     1     -39.473  49.683 -50.600  1.00  0.00     0.159 HD
HETATM   19  H   UNL     1     -39.108  48.191 -51.395  1.00  0.00     0.159 HD
HETATM   20  O   UNL     1     -39.182  49.043 -53.680  1.00  0.00    -0.268 OA
ENDBRANCH  13  16
ENDBRANCH   8  10
ENDBRANCH   6   8
BRANCH   4  21
HETATM   21  N   UNL     1     -43.620  56.879 -56.461  1.00  0.00    -0.069 N 
HETATM   22  N   UNL     1     -44.566  57.749 -56.933  1.00  0.00    -0.163 NA
HETATM   23  C   UNL     1     -44.508  57.622 -58.260  1.00  0.00     0.177 A 
HETATM   24  C   UNL     1     -43.544  56.689 -58.666  1.00  0.00     0.140 A 
HETATM   25  C   UNL     1     -42.990  56.215 -57.498  1.00  0.00     0.175 A 
BRANCH  24  26
HETATM   26  N   UNL     1     -43.201  56.315 -60.001  1.00  0.00    -0.113 N 
HETATM   27  O   UNL     1     -44.104  55.828 -60.691  1.00  0.00    -0.532 OA
HETATM   28  O   UNL     1     -42.033  56.511 -60.360  1.00  0.00    -0.532 OA
ENDBRANCH  24  26
ENDBRANCH   4  21
TORSDOF 5
ENDMDL
MODEL 2
REMARK VINA RESULT:      -8.2      1.795      7.802
REMARK  5 active torsions:
REMARK  status: ('A' for Active; 'I' for Inactive)
REMARK    1  A    between atoms: C_4  and  N_5 
REMARK    2  A    between atoms: C_8  and  N_9 
REMARK    3  A    between atoms: C_14  and  N_15 
REMARK    4  A    between atoms: N_15  and  C_16 
REMARK    5  A    between atoms: C_19  and  C_20 
REMARK       I    between atoms: C_20  and  N_21 
ROOT
HETATM    1  C   UNL     1     -43.799  56.919 -52.198  1.00  0.00     0.071 C 
HETATM    2  C   UNL     1     -42.995  56.204 -53.243  1.00  0.00     0.053 A 
HETATM    3  N   UNL     1     -42.314  55.112 -52.860  1.00  0.00    -0.066 NA
HETATM    4  C   UNL     1     -41.574  54.489 -53.800  1.00  0.00     0.751 A 
HETATM    5  N   UNL     1     -41.469  54.899 -55.083  1.00  0.00    -0.043 NA
HETATM    6  C   UNL     1     -42.169  55.986 -55.443  1.00  0.00     0.149 A 
HETATM    7  C   UNL     1     -42.963  56.670 -54.539  1.00  0.00     0.078 A 
ENDROOT
BRANCH   6   8
HETATM    8  N   UNL     1     -42.117  56.477 -56.767  1.00  0.00    -0.340 N 
HETATM    9  H   UNL     1     -41.730  57.414 -56.780  1.00  0.00     0.167 HD
BRANCH   8  10
HETATM   10  C   UNL     1     -43.003  56.230 -57.835  1.00  0.00     0.033 A 
HETATM   11  C   UNL     1     -43.414  57.299 -58.646  1.00  0.00     0.030 A 
HETATM   12  C   UNL     1     -44.211  57.088 -59.779  1.00  0.00     0.019 A 
HETATM   13  C   UNL     1     -44.598  55.792 -60.130  1.00  0.00     0.032 A 
HETATM   14  C   UNL     1     -44.172  54.715 -59.346  1.00  0.00     0.019 A 
HETATM   15  C   UNL     1     -43.380  54.936 -58.213  1.00  0.00     0.030 A 
BRANCH  13  16
HETATM   16  C   UNL     1     -45.409  55.504 -61.343  1.00  0.00     0.249 C 
HETATM   17  N   UNL     1     -46.580  56.193 -61.500  1.00  0.00    -0.366 N 
HETATM   18  H   UNL     1     -47.021  56.696 -60.744  1.00  0.00     0.159 HD
HETATM   19  H   UNL     1     -47.162  55.905 -62.275  1.00  0.00     0.159 HD
HETATM   20  O   UNL     1     -45.064  54.664 -62.164  1.00  0.00    -0.268 OA
ENDBRANCH  13  16
ENDBRANCH   8  10
ENDBRANCH   6   8
BRANCH   4  21
HETATM   21  N   UNL     1     -40.866  53.294 -53.429  1.00  0.00    -0.069 N 
HETATM   22  N   UNL     1     -40.203  53.165 -52.238  1.00  0.00    -0.163 NA
HETATM   23  C   UNL     1     -39.708  51.925 -52.260  1.00  0.00     0.177 A 
HETATM   24  C   UNL     1     -40.033  51.242 -53.439  1.00  0.00     0.140 A 
HETATM   25  C   UNL     1     -40.769  52.138 -54.182  1.00  0.00     0.175 A 
BRANCH  24  26
HETATM   26  N   UNL     1     -39.687  49.902 -53.794  1.00  0.00    -0.113 N 
HETATM   27  O   UNL     1     -39.448  49.125 -52.862  1.00  0.00    -0.532 OA
HETATM   28  O   UNL     1     -39.659  49.626 -54.999  1.00  0.00    -0.532 OA
ENDBRANCH  24  26
ENDBRANCH   4  21
TORSDOF 5
ENDMDL
MODEL 3
REMARK VINA RESULT:      -7.7      1.565      7.438
REMARK  5 active torsions:
REMARK  status: ('A' for Active; 'I' for Inactive)
REMARK    1  A    between atoms: C_4  and  N_5 
REMARK    2  A    between atoms: C_8  and  N_9 
REMARK    3  A    between atoms: C_14  and  N_15 
REMARK    4  A    between atoms: N_15  and  C_16 
REMARK    5  A    between atoms: C_19  and  C_20 
REMARK       I    between atoms: C_20  and  N_21 
ROOT
HETATM    1  C   UNL     1     -40.990  57.482 -50.273  1.00  0.00     0.071 C 
HETATM    2  C   UNL     1     -41.396  56.508 -51.338  1.00  0.00     0.053 A 
HETATM    3  N   UNL     1     -40.795  55.307 -51.340  1.00  0.00    -0.066 NA
HETATM    4  C   UNL     1     -41.148  54.445 -52.316  1.00  0.00     0.751 A 
HETATM    5  N   UNL     1     -42.047  54.719 -53.287  1.00  0.00    -0.043 NA
HETATM    6  C   UNL     1     -42.643  55.922 -53.255  1.00  0.00     0.149 A 
HETATM    7  C   UNL     1     -42.345  56.853 -52.276  1.00  0.00     0.078 A 
ENDROOT
BRANCH   6   8
HETATM    8  N   UNL     1     -43.599  56.284 -54.231  1.00  0.00    -0.340 N 
HETATM    9  H   UNL     1     -44.524  55.981 -53.948  1.00  0.00     0.167 HD
BRANCH   8  10
HETATM   10  C   UNL     1     -43.445  56.360 -55.630  1.00  0.00     0.033 A 
HETATM   11  C   UNL     1     -43.505  57.612 -56.260  1.00  0.00     0.030 A 
HETATM   12  C   UNL     1     -43.258  57.750 -57.632  1.00  0.00     0.019 A 
HETATM   13  C   UNL     1     -42.926  56.628 -58.398  1.00  0.00     0.032 A 
HETATM   14  C   UNL     1     -42.835  55.379 -57.777  1.00  0.00     0.019 A 
HETATM   15  C   UNL     1     -43.090  55.251 -56.407  1.00  0.00     0.030 A 
BRANCH  13  16
HETATM   16  C   UNL     1     -42.613  56.720 -59.850  1.00  0.00     0.249 C 
HETATM   17  N   UNL     1     -41.329  57.031 -60.202  1.00  0.00    -0.366 N 
HETATM   18  H   UNL     1     -40.664  57.419 -59.550  1.00  0.00     0.159 HD
HETATM   19  H   UNL     1     -41.168  57.190 -61.188  1.00  0.00     0.159 HD
HETATM   20  O   UNL     1     -43.473  56.552 -60.705  1.00  0.00    -0.268 OA
ENDBRANCH  13  16
ENDBRANCH   8  10
ENDBRANCH   6   8
BRANCH   4  21
HETATM   21  N   UNL     1     -40.551  53.137 -52.320  1.00  0.00    -0.069 N 
HETATM   22  N   UNL     1     -39.961  52.589 -51.213  1.00  0.00    -0.163 NA
HETATM   23  C   UNL     1     -39.560  51.379 -51.610  1.00  0.00     0.177 A 
HETATM   24  C   UNL     1     -39.876  51.125 -52.951  1.00  0.00     0.140 A 
HETATM   25  C   UNL     1     -40.504  52.268 -53.395  1.00  0.00     0.175 A 
BRANCH  24  26
HETATM   26  N   UNL     1     -39.614  49.936 -53.698  1.00  0.00    -0.113 N 
HETATM   27  O   UNL     1     -39.228  48.951 -53.058  1.00  0.00    -0.532 OA
HETATM   28  O   UNL     1     -39.798  49.985 -54.921  1.00  0.00    -0.532 OA
ENDBRANCH  24  26
ENDBRANCH   4  21
TORSDOF 5
ENDMDL
MODEL 4
REMARK VINA RESULT:      -7.4      2.179      8.435
REMARK  5 active torsions:
REMARK  status: ('A' for Active; 'I' for Inactive)
REMARK    1  A    between atoms: C_4  and  N_5 
REMARK    2  A    between atoms: C_8  and  N_9 
REMARK    3  A    between atoms: C_14  and  N_15 
REMARK    4  A    between atoms: N_15  and  C_16 
REMARK    5  A    between atoms: C_19  and  C_20 
REMARK       I    between atoms: C_20  and  N_21 
ROOT
HETATM    1  C   UNL     1     -40.979  58.062 -53.315  1.00  0.00     0.071 C 
HETATM    2  C   UNL     1     -41.339  56.782 -54.009  1.00  0.00     0.053 A 
HETATM    3  N   UNL     1     -40.800  55.647 -53.532  1.00  0.00    -0.066 NA
HETATM    4  C   UNL     1     -41.109  54.504 -54.177  1.00  0.00     0.751 A 
HETATM    5  N   UNL     1     -41.907  54.433 -55.265  1.00  0.00    -0.043 NA
HETATM    6  C   UNL     1     -42.443  55.579 -55.714  1.00  0.00     0.149 A 
HETATM    7  C   UNL     1     -42.185  56.790 -55.097  1.00  0.00     0.078 A 
ENDROOT
BRANCH   6   8
HETATM    8  N   UNL     1     -43.291  55.590 -56.844  1.00  0.00    -0.340 N 
HETATM    9  H   UNL     1     -43.393  54.653 -57.216  1.00  0.00     0.167 HD
BRANCH   8  10
HETATM   10  C   UNL     1     -43.444  56.594 -57.822  1.00  0.00     0.033 A 
HETATM   11  C   UNL     1     -42.762  56.472 -59.042  1.00  0.00     0.030 A 
HETATM   12  C   UNL     1     -42.960  57.389 -60.082  1.00  0.00     0.019 A 
HETATM   13  C   UNL     1     -43.866  58.442 -59.921  1.00  0.00     0.032 A 
HETATM   14  C   UNL     1     -44.574  58.558 -58.721  1.00  0.00     0.019 A 
HETATM   15  C   UNL     1     -44.363  57.640 -57.686  1.00  0.00     0.030 A 
BRANCH  13  16
HETATM   16  C   UNL     1     -44.148  59.421 -61.005  1.00  0.00     0.249 C 
HETATM   17  N   UNL     1     -45.445  59.556 -61.414  1.00  0.00    -0.366 N 
HETATM   18  H   UNL     1     -46.160  58.880 -61.191  1.00  0.00     0.159 HD
HETATM   19  H   UNL     1     -45.595  60.149 -62.221  1.00  0.00     0.159 HD
HETATM   20  O   UNL     1     -43.254  60.068 -61.536  1.00  0.00    -0.268 OA
ENDBRANCH  13  16
ENDBRANCH   8  10
ENDBRANCH   6   8
BRANCH   4  21
HETATM   21  N   UNL     1     -40.579  53.268 -53.666  1.00  0.00    -0.069 N 
HETATM   22  N   UNL     1     -40.109  53.137 -52.387  1.00  0.00    -0.163 NA
HETATM   23  C   UNL     1     -39.738  51.858 -52.295  1.00  0.00     0.177 A 
HETATM   24  C   UNL     1     -39.956  51.151 -53.485  1.00  0.00     0.140 A 
HETATM   25  C   UNL     1     -40.488  52.074 -54.358  1.00  0.00     0.175 A 
BRANCH  24  26
HETATM   26  N   UNL     1     -39.693  49.771 -53.739  1.00  0.00    -0.113 N 
HETATM   27  O   UNL     1     -39.755  49.401 -54.918  1.00  0.00    -0.532 OA
HETATM   28  O   UNL     1     -39.420  49.059 -52.765  1.00  0.00    -0.532 OA
ENDBRANCH  24  26
ENDBRANCH   4  21
TORSDOF 5
ENDMDL
MODEL 5
REMARK VINA RESULT:      -7.4     14.485     17.633
REMARK  5 active torsions:
REMARK  status: ('A' for Active; 'I' for Inactive)
REMARK    1  A    between atoms: C_4  and  N_5 
REMARK    2  A    between atoms: C_8  and  N_9 
REMARK    3  A    between atoms: C_14  and  N_15 
REMARK    4  A    between atoms: N_15  and  C_16 
REMARK    5  A    between atoms: C_19  and  C_20 
REMARK       I    between atoms: C_20  and  N_21 
ROOT
HETATM    1  C   UNL     1     -38.501  38.994 -50.946  1.00  0.00     0.071 C 
HETATM    2  C   UNL     1     -37.354  39.774 -51.515  1.00  0.00     0.053 A 
HETATM    3  N   UNL     1     -36.147  39.598 -50.953  1.00  0.00    -0.066 NA
HETATM    4  C   UNL     1     -35.125  40.321 -51.454  1.00  0.00     0.751 A 
HETATM    5  N   UNL     1     -35.243  41.210 -52.465  1.00  0.00    -0.043 NA
HETATM    6  C   UNL     1     -36.457  41.358 -53.018  1.00  0.00     0.149 A 
HETATM    7  C   UNL     1     -37.551  40.640 -52.569  1.00  0.00     0.078 A 
ENDROOT
BRANCH   6   8
HETATM    8  N   UNL     1     -36.664  42.264 -54.083  1.00  0.00    -0.340 N 
HETATM    9  H   UNL     1     -37.264  43.025 -53.786  1.00  0.00     0.167 HD
BRANCH   8  10
HETATM   10  C   UNL     1     -36.752  41.995 -55.464  1.00  0.00     0.033 A 
HETATM   11  C   UNL     1     -37.966  41.532 -55.996  1.00  0.00     0.030 A 
HETATM   12  C   UNL     1     -38.133  41.348 -57.374  1.00  0.00     0.019 A 
HETATM   13  C   UNL     1     -37.086  41.644 -58.251  1.00  0.00     0.032 A 
HETATM   14  C   UNL     1     -35.881  42.134 -57.737  1.00  0.00     0.019 A 
HETATM   15  C   UNL     1     -35.722  42.308 -56.357  1.00  0.00     0.030 A 
BRANCH  13  16
HETATM   16  C   UNL     1     -37.220  41.508 -59.726  1.00  0.00     0.249 C 
HETATM   17  N   UNL     1     -37.187  42.652 -60.473  1.00  0.00    -0.366 N 
HETATM   18  H   UNL     1     -37.310  43.569 -60.071  1.00  0.00     0.159 HD
HETATM   19  H   UNL     1     -37.386  42.542 -61.460  1.00  0.00     0.159 HD
HETATM   20  O   UNL     1     -37.381  40.417 -60.260  1.00  0.00    -0.268 OA
ENDBRANCH  13  16
ENDBRANCH   8  10
ENDBRANCH   6   8
BRANCH   4  21
HETATM   21  N   UNL     1     -33.813  40.125 -50.899  1.00  0.00    -0.069 N 
HETATM   22  N   UNL     1     -32.669  40.253 -51.639  1.00  0.00    -0.163 NA
HETATM   23  C   UNL     1     -31.680  40.023 -50.772  1.00  0.00     0.177 A 
HETATM   24  C   UNL     1     -32.153  39.749 -49.482  1.00  0.00     0.140 A 
HETATM   25  C   UNL     1     -33.525  39.809 -49.583  1.00  0.00     0.175 A 
BRANCH  24  26
HETATM   26  N   UNL     1     -31.383  39.474 -48.311  1.00  0.00    -0.113 N 
HETATM   27  O   UNL     1     -31.000  40.451 -47.656  1.00  0.00    -0.532 OA
HETATM   28  O   UNL     1     -31.164  38.286 -48.044  1.00  0.00    -0.532 OA
ENDBRANCH  24  26
ENDBRANCH   4  21
TORSDOF 5
ENDMDL
MODEL 6
REMARK VINA RESULT:      -7.3      3.396      8.038
REMARK  5 active torsions:
REMARK  status: ('A' for Active; 'I' for Inactive)
REMARK    1  A    between atoms: C_4  and  N_5 
REMARK    2  A    between atoms: C_8  and  N_9 
REMARK    3  A    between atoms: C_14  and  N_15 
REMARK    4  A    between atoms: N_15  and  C_16 
REMARK    5  A    between atoms: C_19  and  C_20 
REMARK       I    between atoms: C_20  and  N_21 
ROOT
HETATM    1  C   UNL     1     -42.939  55.551 -57.229  1.00  0.00     0.071 C 
HETATM    2  C   UNL     1     -42.275  55.596 -55.886  1.00  0.00     0.053 A 
HETATM    3  N   UNL     1     -41.789  54.444 -55.396  1.00  0.00    -0.066 NA
HETATM    4  C   UNL     1     -41.215  54.488 -54.177  1.00  0.00     0.751 A 
HETATM    5  N   UNL     1     -41.113  55.604 -53.422  1.00  0.00    -0.043 NA
HETATM    6  C   UNL     1     -41.594  56.745 -53.939  1.00  0.00     0.149 A 
HETATM    7  C   UNL     1     -42.183  56.783 -55.191  1.00  0.00     0.078 A 
ENDROOT
BRANCH   6   8
HETATM    8  N   UNL     1     -41.522  57.957 -53.216  1.00  0.00    -0.340 N 
HETATM    9  H   UNL     1     -40.565  58.143 -52.935  1.00  0.00     0.167 HD
BRANCH   8  10
HETATM   10  C   UNL     1     -42.474  58.521 -52.343  1.00  0.00     0.033 A 
HETATM   11  C   UNL     1     -42.260  59.813 -51.837  1.00  0.00     0.030 A 
HETATM   12  C   UNL     1     -43.223  60.455 -51.049  1.00  0.00     0.019 A 
HETATM   13  C   UNL     1     -44.434  59.816 -50.766  1.00  0.00     0.032 A 
HETATM   14  C   UNL     1     -44.671  58.541 -51.288  1.00  0.00     0.019 A 
HETATM   15  C   UNL     1     -43.700  57.905 -52.069  1.00  0.00     0.030 A 
BRANCH  13  16
HETATM   16  C   UNL     1     -45.509  60.465 -49.970  1.00  0.00     0.249 C 
HETATM   17  N   UNL     1     -46.039  61.630 -50.452  1.00  0.00    -0.366 N 
HETATM   18  H   UNL     1     -45.589  62.176 -51.172  1.00  0.00     0.159 HD
HETATM   19  H   UNL     1     -46.691  62.104 -49.841  1.00  0.00     0.159 HD
HETATM   20  O   UNL     1     -45.896  59.996 -48.907  1.00  0.00    -0.268 OA
ENDBRANCH  13  16
ENDBRANCH   8  10
ENDBRANCH   6   8
BRANCH   4  21
HETATM   21  N   UNL     1     -40.651  53.277 -53.644  1.00  0.00    -0.069 N 
HETATM   22  N   UNL     1     -40.146  53.192 -52.374  1.00  0.00    -0.163 NA
HETATM   23  C   UNL     1     -39.750  51.923 -52.255  1.00  0.00     0.177 A 
HETATM   24  C   UNL     1     -39.986  51.177 -53.417  1.00  0.00     0.140 A 
HETATM   25  C   UNL     1     -40.557  52.065 -54.302  1.00  0.00     0.175 A 
BRANCH  24  26
HETATM   26  N   UNL     1     -39.706  49.794 -53.638  1.00  0.00    -0.113 N 
HETATM   27  O   UNL     1     -39.710  49.407 -54.812  1.00  0.00    -0.532 OA
HETATM   28  O   UNL     1     -39.478  49.098 -52.641  1.00  0.00    -0.532 OA
ENDBRANCH  24  26
ENDBRANCH   4  21
TORSDOF 5
ENDMDL
MODEL 7
REMARK VINA RESULT:      -7.1     14.550     17.381
REMARK  5 active torsions:
REMARK  status: ('A' for Active; 'I' for Inactive)
REMARK    1  A    between atoms: C_4  and  N_5 
REMARK    2  A    between atoms: C_8  and  N_9 
REMARK    3  A    between atoms: C_14  and  N_15 
REMARK    4  A    between atoms: N_15  and  C_16 
REMARK    5  A    between atoms: C_19  and  C_20 
REMARK       I    between atoms: C_20  and  N_21 
ROOT
HETATM    1  C   UNL     1     -33.098  40.743 -51.096  1.00  0.00     0.071 C 
HETATM    2  C   UNL     1     -34.546  40.764 -51.482  1.00  0.00     0.053 A 
HETATM    3  N   UNL     1     -35.386  39.985 -50.779  1.00  0.00    -0.066 NA
HETATM    4  C   UNL     1     -36.683  39.991 -51.148  1.00  0.00     0.751 A 
HETATM    5  N   UNL     1     -37.180  40.713 -52.176  1.00  0.00    -0.043 NA
HETATM    6  C   UNL     1     -36.323  41.492 -52.855  1.00  0.00     0.149 A 
HETATM    7  C   UNL     1     -34.980  41.552 -52.526  1.00  0.00     0.078 A 
ENDROOT
BRANCH   6   8
HETATM    8  N   UNL     1     -36.764  42.282 -53.940  1.00  0.00    -0.340 N 
HETATM    9  H   UNL     1     -37.545  42.865 -53.658  1.00  0.00     0.167 HD
BRANCH   8  10
HETATM   10  C   UNL     1     -36.781  41.963 -55.313  1.00  0.00     0.033 A 
HETATM   11  C   UNL     1     -37.951  41.437 -55.881  1.00  0.00     0.030 A 
HETATM   12  C   UNL     1     -38.050  41.200 -57.258  1.00  0.00     0.019 A 
HETATM   13  C   UNL     1     -36.975  41.505 -58.098  1.00  0.00     0.032 A 
HETATM   14  C   UNL     1     -35.813  42.056 -57.549  1.00  0.00     0.019 A 
HETATM   15  C   UNL     1     -35.722  42.284 -56.171  1.00  0.00     0.030 A 
BRANCH  13  16
HETATM   16  C   UNL     1     -37.037  41.312 -59.572  1.00  0.00     0.249 C 
HETATM   17  N   UNL     1     -37.235  42.421 -60.347  1.00  0.00    -0.366 N 
HETATM   18  H   UNL     1     -37.565  43.297 -59.970  1.00  0.00     0.159 HD
HETATM   19  H   UNL     1     -37.379  42.250 -61.334  1.00  0.00     0.159 HD
HETATM   20  O   UNL     1     -36.943  40.203 -60.081  1.00  0.00    -0.268 OA
ENDBRANCH  13  16
ENDBRANCH   8  10
ENDBRANCH   6   8
BRANCH   4  21
HETATM   21  N   UNL     1     -37.612  39.198 -50.389  1.00  0.00    -0.069 N 
HETATM   22  N   UNL     1     -38.666  38.540 -50.964  1.00  0.00    -0.163 NA
HETATM   23  C   UNL     1     -39.261  37.909 -49.950  1.00  0.00     0.177 A 
HETATM   24  C   UNL     1     -38.619  38.139 -48.726  1.00  0.00     0.140 A 
HETATM   25  C   UNL     1     -37.567  38.976 -49.025  1.00  0.00     0.175 A 
BRANCH  24  26
HETATM   26  N   UNL     1     -38.970  37.613 -47.445  1.00  0.00    -0.113 N 
HETATM   27  O   UNL     1     -38.457  38.159 -46.461  1.00  0.00    -0.532 OA
HETATM   28  O   UNL     1     -39.760  36.661 -47.422  1.00  0.00    -0.532 OA
ENDBRANCH  24  26
ENDBRANCH   4  21
TORSDOF 5
ENDMDL
MODEL 8
REMARK VINA RESULT:      -6.9      3.003      7.717
REMARK  5 active torsions:
REMARK  status: ('A' for Active; 'I' for Inactive)
REMARK    1  A    between atoms: C_4  and  N_5 
REMARK    2  A    between atoms: C_8  and  N_9 
REMARK    3  A    between atoms: C_14  and  N_15 
REMARK    4  A    between atoms: N_15  and  C_16 
REMARK    5  A    between atoms: C_19  and  C_20 
REMARK       I    between atoms: C_20  and  N_21 
ROOT
HETATM    1  C   UNL     1     -45.814  59.729 -51.753  1.00  0.00     0.071 C 
HETATM    2  C   UNL     1     -44.800  58.878 -52.456  1.00  0.00     0.053 A 
HETATM    3  N   UNL     1     -44.192  57.919 -51.738  1.00  0.00    -0.066 NA
HETATM    4  C   UNL     1     -43.263  57.174 -52.371  1.00  0.00     0.751 A 
HETATM    5  N   UNL     1     -42.902  57.341 -53.663  1.00  0.00    -0.043 NA
HETATM    6  C   UNL     1     -43.533  58.298 -54.362  1.00  0.00     0.149 A 
HETATM    7  C   UNL     1     -44.508  59.093 -53.786  1.00  0.00     0.078 A 
ENDROOT
BRANCH   6   8
HETATM    8  N   UNL     1     -43.217  58.532 -55.719  1.00  0.00    -0.340 N 
HETATM    9  H   UNL     1     -43.253  59.525 -55.922  1.00  0.00     0.167 HD
BRANCH   8  10
HETATM   10  C   UNL     1     -43.498  57.727 -56.842  1.00  0.00     0.033 A 
HETATM   11  C   UNL     1     -42.834  56.499 -56.988  1.00  0.00     0.030 A 
HETATM   12  C   UNL     1     -43.152  55.620 -58.030  1.00  0.00     0.019 A 
HETATM   13  C   UNL     1     -44.160  55.950 -58.940  1.00  0.00     0.032 A 
HETATM   14  C   UNL     1     -44.849  57.157 -58.789  1.00  0.00     0.019 A 
HETATM   15  C   UNL     1     -44.519  58.033 -57.748  1.00  0.00     0.030 A 
BRANCH  13  16
HETATM   16  C   UNL     1     -44.568  55.037 -60.042  1.00  0.00     0.249 C 
HETATM   17  N   UNL     1     -45.043  53.803 -59.697  1.00  0.00    -0.366 N 
HETATM   18  H   UNL     1     -44.914  53.406 -58.778  1.00  0.00     0.159 HD
HETATM   19  H   UNL     1     -45.214  53.165 -60.464  1.00  0.00     0.159 HD
HETATM   20  O   UNL     1     -44.462  55.360 -61.218  1.00  0.00    -0.268 OA
ENDBRANCH  13  16
ENDBRANCH   8  10
ENDBRANCH   6   8
BRANCH   4  21
HETATM   21  N   UNL     1     -42.624  56.114 -51.639  1.00  0.00    -0.069 N 
HETATM   22  N   UNL     1     -42.768  54.794 -51.972  1.00  0.00    -0.163 NA
HETATM   23  C   UNL     1     -42.012  54.140 -51.087  1.00  0.00     0.177 A 
HETATM   24  C   UNL     1     -41.378  55.004 -50.184  1.00  0.00     0.140 A 
HETATM   25  C   UNL     1     -41.789  56.267 -50.548  1.00  0.00     0.175 A 
BRANCH  24  26
HETATM   26  N   UNL     1     -40.489  54.656 -49.122  1.00  0.00    -0.113 N 
HETATM   27  O   UNL     1     -39.356  54.280 -49.445  1.00  0.00    -0.532 OA
HETATM   28  O   UNL     1     -40.920  54.761 -47.967  1.00  0.00    -0.532 OA
ENDBRANCH  24  26
ENDBRANCH   4  21
TORSDOF 5
ENDMDL
MODEL 9
REMARK VINA RESULT:      -6.9      3.865      5.400
REMARK  5 active torsions:
REMARK  status: ('A' for Active; 'I' for Inactive)
REMARK    1  A    between atoms: C_4  and  N_5 
REMARK    2  A    between atoms: C_8  and  N_9 
REMARK    3  A    between atoms: C_14  and  N_15 
REMARK    4  A    between atoms: N_15  and  C_16 
REMARK    5  A    between atoms: C_19  and  C_20 
REMARK       I    between atoms: C_20  and  N_21 
ROOT
HETATM    1  C   UNL     1     -42.490  59.291 -58.538  1.00  0.00     0.071 C 
HETATM    2  C   UNL     1     -43.006  58.557 -57.337  1.00  0.00     0.053 A 
HETATM    3  N   UNL     1     -43.618  59.281 -56.385  1.00  0.00    -0.066 NA
HETATM    4  C   UNL     1     -44.058  58.617 -55.296  1.00  0.00     0.751 A 
HETATM    5  N   UNL     1     -43.910  57.288 -55.102  1.00  0.00    -0.043 NA
HETATM    6  C   UNL     1     -43.306  56.586 -56.074  1.00  0.00     0.149 A 
HETATM    7  C   UNL     1     -42.842  57.193 -57.227  1.00  0.00     0.078 A 
ENDROOT
BRANCH   6   8
HETATM    8  N   UNL     1     -43.117  55.190 -55.950  1.00  0.00    -0.340 N 
HETATM    9  H   UNL     1     -43.940  54.694 -56.274  1.00  0.00     0.167 HD
BRANCH   8  10
HETATM   10  C   UNL     1     -42.394  54.482 -54.969  1.00  0.00     0.033 A 
HETATM   11  C   UNL     1     -41.104  54.019 -55.270  1.00  0.00     0.030 A 
HETATM   12  C   UNL     1     -40.307  53.400 -54.298  1.00  0.00     0.019 A 
HETATM   13  C   UNL     1     -40.787  53.250 -52.993  1.00  0.00     0.032 A 
HETATM   14  C   UNL     1     -42.059  53.733 -52.673  1.00  0.00     0.019 A 
HETATM   15  C   UNL     1     -42.850  54.344 -53.653  1.00  0.00     0.030 A 
BRANCH  13  16
HETATM   16  C   UNL     1     -39.971  52.639 -51.911  1.00  0.00     0.249 C 
HETATM   17  N   UNL     1     -39.718  53.399 -50.802  1.00  0.00    -0.366 N 
HETATM   18  H   UNL     1     -39.853  54.398 -50.785  1.00  0.00     0.159 HD
HETATM   19  H   UNL     1     -39.075  52.999 -50.130  1.00  0.00     0.159 HD
HETATM   20  O   UNL     1     -39.514  51.507 -52.010  1.00  0.00    -0.268 OA
ENDBRANCH  13  16
ENDBRANCH   8  10
ENDBRANCH   6   8
BRANCH   4  21
HETATM   21  N   UNL     1     -44.752  59.359 -54.279  1.00  0.00    -0.069 N 
HETATM   22  N   UNL     1     -45.329  60.578 -54.515  1.00  0.00    -0.163 NA
HETATM   23  C   UNL     1     -45.885  60.918 -53.350  1.00  0.00     0.177 A 
HETATM   24  C   UNL     1     -45.686  59.948 -52.359  1.00  0.00     0.140 A 
HETATM   25  C   UNL     1     -44.948  58.958 -52.970  1.00  0.00     0.175 A 
BRANCH  24  26
HETATM   26  N   UNL     1     -46.152  59.972 -51.009  1.00  0.00    -0.113 N 
HETATM   27  O   UNL     1     -46.417  61.082 -50.533  1.00  0.00    -0.532 OA
HETATM   28  O   UNL     1     -46.256  58.885 -50.428  1.00  0.00    -0.532 OA
ENDBRANCH  24  26
ENDBRANCH   4  21
TORSDOF 5
ENDMDL
MODEL 10
REMARK VINA RESULT:      -6.8      3.792      7.331
REMARK  5 active torsions:
REMARK  status: ('A' for Active; 'I' for Inactive)
REMARK    1  A    between atoms: C_4  and  N_5 
REMARK    2  A    between atoms: C_8  and  N_9 
REMARK    3  A    between atoms: C_14  and  N_15 
REMARK    4  A    between atoms: N_15  and  C_16 
REMARK    5  A    between atoms: C_19  and  C_20 
REMARK       I    between atoms: C_20  and  N_21 
ROOT
HETATM    1  C   UNL     1     -43.370  55.257 -57.282  1.00  0.00     0.071 C 
HETATM    2  C   UNL     1     -42.694  55.365 -55.948  1.00  0.00     0.053 A 
HETATM    3  N   UNL     1     -42.116  54.256 -55.456  1.00  0.00    -0.066 NA
HETATM    4  C   UNL     1     -41.531  54.355 -54.245  1.00  0.00     0.751 A 
HETATM    5  N   UNL     1     -41.504  55.482 -53.500  1.00  0.00    -0.043 NA
HETATM    6  C   UNL     1     -42.078  56.579 -54.019  1.00  0.00     0.149 A 
HETATM    7  C   UNL     1     -42.684  56.561 -55.263  1.00  0.00     0.078 A 
ENDROOT
BRANCH   6   8
HETATM    8  N   UNL     1     -42.088  57.799 -53.306  1.00  0.00    -0.340 N 
HETATM    9  H   UNL     1     -42.624  58.497 -53.810  1.00  0.00     0.167 HD
BRANCH   8  10
HETATM   10  C   UNL     1     -41.077  58.356 -52.497  1.00  0.00     0.033 A 
HETATM   11  C   UNL     1     -41.275  58.432 -51.109  1.00  0.00     0.030 A 
HETATM   12  C   UNL     1     -40.262  58.883 -50.253  1.00  0.00     0.019 A 
HETATM   13  C   UNL     1     -39.018  59.250 -50.776  1.00  0.00     0.032 A 
HETATM   14  C   UNL     1     -38.799  59.151 -52.153  1.00  0.00     0.019 A 
HETATM   15  C   UNL     1     -39.820  58.706 -53.001  1.00  0.00     0.030 A 
BRANCH  13  16
HETATM   16  C   UNL     1     -37.892  59.696 -49.912  1.00  0.00     0.249 C 
HETATM   17  N   UNL     1     -36.637  59.261 -50.233  1.00  0.00    -0.366 N 
HETATM   18  H   UNL     1     -36.472  58.489 -50.862  1.00  0.00     0.159 HD
HETATM   19  H   UNL     1     -35.907  59.491 -49.571  1.00  0.00     0.159 HD
HETATM   20  O   UNL     1     -38.076  60.406 -48.931  1.00  0.00    -0.268 OA
ENDBRANCH  13  16
ENDBRANCH   8  10
ENDBRANCH   6   8
BRANCH   4  21
HETATM   21  N   UNL     1     -40.869  53.195 -53.711  1.00  0.00    -0.069 N 
HETATM   22  N   UNL     1     -40.306  53.173 -52.463  1.00  0.00    -0.163 NA
HETATM   23  C   UNL     1     -39.826  51.934 -52.333  1.00  0.00     0.177 A 
HETATM   24  C   UNL     1     -40.064  51.147 -53.467  1.00  0.00     0.140 A 
HETATM   25  C   UNL     1     -40.727  51.975 -54.345  1.00  0.00     0.175 A 
BRANCH  24  26
HETATM   26  N   UNL     1     -39.707  49.779 -53.669  1.00  0.00    -0.113 N 
HETATM   27  O   UNL     1     -39.563  49.086 -52.654  1.00  0.00    -0.532 OA
HETATM   28  O   UNL     1     -39.576  49.396 -54.838  1.00  0.00    -0.532 OA
ENDBRANCH  24  26
ENDBRANCH   4  21
TORSDOF 5
ENDMDL
