MODEL 1
REMARK VINA RESULT:      -9.7      0.000      0.000
REMARK  6 active torsions:
REMARK  status: ('A' for Active; 'I' for Inactive)
REMARK       I    between atoms: N_1  and  C_2 
REMARK    1  A    between atoms: C_2  and  C_4 
REMARK    2  A    between atoms: C_7  and  N_8 
REMARK       I    between atoms: N_8  and  C_9 
REMARK       I    between atoms: C_9  and  N_11 
REMARK    3  A    between atoms: N_11  and  C_12 
REMARK    4  A    between atoms: C_12  and  C_13 
REMARK    5  A    between atoms: C_17  and  C_19 
REMARK       I    between atoms: C_19  and  N_21 
REMARK    6  A    between atoms: N_21  and  C_22 
ROOT
HETATM    1  C   UNL     1     -43.770  59.502 -51.099  1.00  0.00    -0.040 A 
HETATM    2  C   UNL     1     -42.574  60.233 -51.098  1.00  0.00     0.009 A 
HETATM    3  C   UNL     1     -41.388  59.641 -51.530  1.00  0.00     0.002 A 
HETATM    4  C   UNL     1     -41.393  58.322 -51.981  1.00  0.00     0.017 A 
HETATM    5  C   UNL     1     -42.582  57.578 -52.012  1.00  0.00     0.032 A 
HETATM    6  C   UNL     1     -43.767  58.173 -51.558  1.00  0.00     0.026 A 
ENDROOT
BRANCH   1   7
HETATM    7  C   UNL     1     -45.056  60.147 -50.646  1.00  0.00     0.162 C 
BRANCH   7   8
HETATM    8  N   UNL     1     -45.196  60.077 -49.209  1.00  0.00    -0.339 N 
HETATM    9  C   UNL     1     -44.826  61.134 -48.403  1.00  0.00     0.320 C 
HETATM   10  N   UNL     1     -45.087  60.852 -47.080  1.00  0.00    -0.309 N 
HETATM   11  O   UNL     1     -44.366  62.174 -48.855  1.00  0.00    -0.247 OA
HETATM   12  H   UNL     1     -45.568  59.983 -46.906  1.00  0.00     0.170 HD
HETATM   13  H   UNL     1     -45.153  59.156 -48.801  1.00  0.00     0.164 HD
BRANCH  10  14
HETATM   14  C   UNL     1     -44.896  61.691 -45.963  1.00  0.00     0.036 A 
HETATM   15  C   UNL     1     -45.320  63.020 -45.904  1.00  0.00     0.030 A 
HETATM   16  C   UNL     1     -45.119  63.783 -44.746  1.00  0.00     0.019 A 
HETATM   17  C   UNL     1     -44.491  63.219 -43.630  1.00  0.00     0.032 A 
HETATM   18  C   UNL     1     -44.039  61.898 -43.697  1.00  0.00     0.019 A 
HETATM   19  C   UNL     1     -44.243  61.140 -44.854  1.00  0.00     0.030 A 
BRANCH  17  20
HETATM   20  C   UNL     1     -44.270  63.980 -42.372  1.00  0.00     0.249 C 
HETATM   21  N   UNL     1     -42.984  64.101 -41.922  1.00  0.00    -0.366 N 
HETATM   22  H   UNL     1     -42.845  64.711 -41.127  1.00  0.00     0.159 HD
HETATM   23  H   UNL     1     -42.181  63.887 -42.495  1.00  0.00     0.159 HD
HETATM   24  O   UNL     1     -45.195  64.517 -41.776  1.00  0.00    -0.268 OA
ENDBRANCH  17  20
ENDBRANCH  10  14
ENDBRANCH   7   8
ENDBRANCH   1   7
BRANCH   5  25
HETATM   25  C   UNL     1     -42.506  56.170 -52.514  1.00  0.00     0.256 C 
HETATM   26  O   UNL     1     -43.561  55.559 -52.647  1.00  0.00    -0.267 OA
HETATM   27  N   UNL     1     -41.237  55.674 -52.765  1.00  0.00    -0.323 N 
HETATM   28  H   UNL     1     -40.449  56.282 -52.596  1.00  0.00     0.169 HD
BRANCH  27  29
HETATM   29  C   UNL     1     -40.904  54.366 -53.187  1.00  0.00     0.035 A 
HETATM   30  C   UNL     1     -40.974  53.931 -54.510  1.00  0.00     0.030 A 
HETATM   31  C   UNL     1     -40.649  52.614 -54.847  1.00  0.00     0.010 A 
HETATM   32  C   UNL     1     -40.230  51.712 -53.864  1.00  0.00    -0.048 A 
HETATM   33  C   UNL     1     -39.927  50.280 -54.227  1.00  0.00     0.069 C 
HETATM   34  C   UNL     1     -40.158  52.130 -52.526  1.00  0.00    -0.022 A 
HETATM   35  C   UNL     1     -39.119  49.566 -53.139  1.00  0.00     0.274 C 
HETATM   36  N   UNL     1     -39.715  49.775 -51.817  1.00  0.00     0.087 N 
HETATM   37  C   UNL     1     -39.653  51.195 -51.451  1.00  0.00     0.308 C 
HETATM   38  H   UNL     1     -39.199  49.236 -51.123  1.00  0.00     0.316 HD
HETATM   39  C   UNL     1     -40.491  53.458 -52.201  1.00  0.00     0.039 A 
ENDBRANCH  27  29
ENDBRANCH   5  25
TORSDOF 6
ENDMDL
MODEL 2
REMARK VINA RESULT:      -9.5      1.060      1.613
REMARK  6 active torsions:
REMARK  status: ('A' for Active; 'I' for Inactive)
REMARK       I    between atoms: N_1  and  C_2 
REMARK    1  A    between atoms: C_2  and  C_4 
REMARK    2  A    between atoms: C_7  and  N_8 
REMARK       I    between atoms: N_8  and  C_9 
REMARK       I    between atoms: C_9  and  N_11 
REMARK    3  A    between atoms: N_11  and  C_12 
REMARK    4  A    between atoms: C_12  and  C_13 
REMARK    5  A    between atoms: C_17  and  C_19 
REMARK       I    between atoms: C_19  and  N_21 
REMARK    6  A    between atoms: N_21  and  C_22 
ROOT
HETATM    1  C   UNL     1     -44.177  59.648 -51.288  1.00  0.00    -0.040 A 
HETATM    2  C   UNL     1     -43.226  60.353 -52.038  1.00  0.00     0.009 A 
HETATM    3  C   UNL     1     -42.117  59.695 -52.566  1.00  0.00     0.002 A 
HETATM    4  C   UNL     1     -41.960  58.324 -52.362  1.00  0.00     0.017 A 
HETATM    5  C   UNL     1     -42.911  57.593 -51.635  1.00  0.00     0.032 A 
HETATM    6  C   UNL     1     -44.014  58.265 -51.090  1.00  0.00     0.026 A 
ENDROOT
BRANCH   1   7
HETATM    7  C   UNL     1     -45.385  60.357 -50.730  1.00  0.00     0.162 C 
BRANCH   7   8
HETATM    8  N   UNL     1     -45.479  60.179 -49.298  1.00  0.00    -0.339 N 
HETATM    9  C   UNL     1     -44.958  61.112 -48.427  1.00  0.00     0.320 C 
HETATM   10  N   UNL     1     -45.201  60.748 -47.120  1.00  0.00    -0.309 N 
HETATM   11  O   UNL     1     -44.397  62.130 -48.813  1.00  0.00    -0.247 OA
HETATM   12  H   UNL     1     -45.774  59.927 -46.996  1.00  0.00     0.170 HD
HETATM   13  H   UNL     1     -45.529  59.227 -48.970  1.00  0.00     0.164 HD
BRANCH  10  14
HETATM   14  C   UNL     1     -44.872  61.459 -45.948  1.00  0.00     0.036 A 
HETATM   15  C   UNL     1     -45.340  62.742 -45.656  1.00  0.00     0.030 A 
HETATM   16  C   UNL     1     -44.991  63.374 -44.455  1.00  0.00     0.019 A 
HETATM   17  C   UNL     1     -44.168  62.723 -43.529  1.00  0.00     0.032 A 
HETATM   18  C   UNL     1     -43.673  61.451 -43.832  1.00  0.00     0.019 A 
HETATM   19  C   UNL     1     -44.025  60.824 -45.032  1.00  0.00     0.030 A 
BRANCH  17  20
HETATM   20  C   UNL     1     -43.783  63.342 -42.234  1.00  0.00     0.249 C 
HETATM   21  N   UNL     1     -44.649  63.209 -41.185  1.00  0.00    -0.366 N 
HETATM   22  H   UNL     1     -44.321  63.543 -40.288  1.00  0.00     0.159 HD
HETATM   23  H   UNL     1     -45.416  62.553 -41.188  1.00  0.00     0.159 HD
HETATM   24  O   UNL     1     -42.710  63.916 -42.091  1.00  0.00    -0.268 OA
ENDBRANCH  17  20
ENDBRANCH  10  14
ENDBRANCH   7   8
ENDBRANCH   1   7
BRANCH   5  25
HETATM   25  C   UNL     1     -42.674  56.125 -51.465  1.00  0.00     0.256 C 
HETATM   26  O   UNL     1     -43.581  55.458 -50.977  1.00  0.00    -0.267 OA
HETATM   27  N   UNL     1     -41.433  55.652 -51.857  1.00  0.00    -0.323 N 
HETATM   28  H   UNL     1     -40.769  56.316 -52.229  1.00  0.00     0.169 HD
BRANCH  27  29
HETATM   29  C   UNL     1     -40.953  54.326 -51.744  1.00  0.00     0.035 A 
HETATM   30  C   UNL     1     -40.631  53.714 -50.533  1.00  0.00     0.030 A 
HETATM   31  C   UNL     1     -40.139  52.406 -50.503  1.00  0.00     0.010 A 
HETATM   32  C   UNL     1     -39.978  51.680 -51.687  1.00  0.00    -0.048 A 
HETATM   33  C   UNL     1     -39.402  50.287 -51.651  1.00  0.00     0.069 C 
HETATM   34  C   UNL     1     -40.291  52.282 -52.916  1.00  0.00    -0.022 A 
HETATM   35  C   UNL     1     -39.667  49.518 -52.949  1.00  0.00     0.274 C 
HETATM   36  N   UNL     1     -39.313  50.323 -54.122  1.00  0.00     0.087 N 
HETATM   37  C   UNL     1     -40.181  51.504 -54.207  1.00  0.00     0.308 C 
HETATM   38  H   UNL     1     -39.435  49.765 -54.965  1.00  0.00     0.316 HD
HETATM   39  C   UNL     1     -40.782  53.600 -52.931  1.00  0.00     0.039 A 
ENDBRANCH  27  29
ENDBRANCH   5  25
TORSDOF 6
ENDMDL
MODEL 3
REMARK VINA RESULT:      -9.4      5.435      9.460
REMARK  6 active torsions:
REMARK  status: ('A' for Active; 'I' for Inactive)
REMARK       I    between atoms: N_1  and  C_2 
REMARK    1  A    between atoms: C_2  and  C_4 
REMARK    2  A    between atoms: C_7  and  N_8 
REMARK       I    between atoms: N_8  and  C_9 
REMARK       I    between atoms: C_9  and  N_11 
REMARK    3  A    between atoms: N_11  and  C_12 
REMARK    4  A    between atoms: C_12  and  C_13 
REMARK    5  A    between atoms: C_17  and  C_19 
REMARK       I    between atoms: C_19  and  N_21 
REMARK    6  A    between atoms: N_21  and  C_22 
ROOT
HETATM    1  C   UNL     1     -41.972  59.704 -52.416  1.00  0.00    -0.040 A 
HETATM    2  C   UNL     1     -41.616  60.282 -51.190  1.00  0.00     0.009 A 
HETATM    3  C   UNL     1     -41.190  59.481 -50.132  1.00  0.00     0.002 A 
HETATM    4  C   UNL     1     -41.100  58.099 -50.298  1.00  0.00     0.017 A 
HETATM    5  C   UNL     1     -41.430  57.500 -51.523  1.00  0.00     0.032 A 
HETATM    6  C   UNL     1     -41.876  58.310 -52.576  1.00  0.00     0.026 A 
ENDROOT
BRANCH   1   7
HETATM    7  C   UNL     1     -42.419  60.572 -53.566  1.00  0.00     0.162 C 
BRANCH   7   8
HETATM    8  N   UNL     1     -42.097  59.961 -54.836  1.00  0.00    -0.339 N 
HETATM    9  C   UNL     1     -42.955  59.063 -55.434  1.00  0.00     0.320 C 
HETATM   10  N   UNL     1     -42.456  58.647 -56.649  1.00  0.00    -0.309 N 
HETATM   11  O   UNL     1     -44.023  58.739 -54.930  1.00  0.00    -0.247 OA
HETATM   12  H   UNL     1     -41.609  59.104 -56.952  1.00  0.00     0.170 HD
HETATM   13  H   UNL     1     -41.116  59.865 -55.048  1.00  0.00     0.164 HD
BRANCH  10  14
HETATM   14  C   UNL     1     -43.057  57.775 -57.580  1.00  0.00     0.036 A 
HETATM   15  C   UNL     1     -43.804  58.202 -58.680  1.00  0.00     0.030 A 
HETATM   16  C   UNL     1     -44.348  57.273 -59.577  1.00  0.00     0.019 A 
HETATM   17  C   UNL     1     -44.146  55.903 -59.383  1.00  0.00     0.032 A 
HETATM   18  C   UNL     1     -43.425  55.471 -58.266  1.00  0.00     0.019 A 
HETATM   19  C   UNL     1     -42.882  56.401 -57.373  1.00  0.00     0.030 A 
BRANCH  17  20
HETATM   20  C   UNL     1     -44.687  54.878 -60.315  1.00  0.00     0.249 C 
HETATM   21  N   UNL     1     -45.187  53.728 -59.771  1.00  0.00    -0.366 N 
HETATM   22  H   UNL     1     -45.646  53.094 -60.412  1.00  0.00     0.159 HD
HETATM   23  H   UNL     1     -45.394  53.632 -58.788  1.00  0.00     0.159 HD
HETATM   24  O   UNL     1     -44.724  55.068 -61.524  1.00  0.00    -0.268 OA
ENDBRANCH  17  20
ENDBRANCH  10  14
ENDBRANCH   7   8
ENDBRANCH   1   7
BRANCH   5  25
HETATM   25  C   UNL     1     -41.302  56.012 -51.623  1.00  0.00     0.256 C 
HETATM   26  O   UNL     1     -41.558  55.354 -50.621  1.00  0.00    -0.267 OA
HETATM   27  N   UNL     1     -40.883  55.512 -52.844  1.00  0.00    -0.323 N 
HETATM   28  H   UNL     1     -40.689  56.170 -53.585  1.00  0.00     0.169 HD
BRANCH  27  29
HETATM   29  C   UNL     1     -40.633  54.158 -53.168  1.00  0.00     0.035 A 
HETATM   30  C   UNL     1     -40.729  53.633 -54.457  1.00  0.00     0.030 A 
HETATM   31  C   UNL     1     -40.489  52.277 -54.695  1.00  0.00     0.010 A 
HETATM   32  C   UNL     1     -40.129  51.424 -53.647  1.00  0.00    -0.048 A 
HETATM   33  C   UNL     1     -39.919  49.953 -53.903  1.00  0.00     0.069 C 
HETATM   34  C   UNL     1     -40.033  51.933 -52.343  1.00  0.00    -0.022 A 
HETATM   35  C   UNL     1     -39.159  49.270 -52.762  1.00  0.00     0.274 C 
HETATM   36  N   UNL     1     -39.742  49.612 -51.461  1.00  0.00     0.087 N 
HETATM   37  C   UNL     1     -39.590  51.048 -51.199  1.00  0.00     0.308 C 
HETATM   38  H   UNL     1     -39.263  49.093 -50.728  1.00  0.00     0.316 HD
HETATM   39  C   UNL     1     -40.281  53.299 -52.117  1.00  0.00     0.039 A 
ENDBRANCH  27  29
ENDBRANCH   5  25
TORSDOF 6
ENDMDL
MODEL 4
REMARK VINA RESULT:      -9.3      4.916      9.718
REMARK  6 active torsions:
REMARK  status: ('A' for Active; 'I' for Inactive)
REMARK       I    between atoms: N_1  and  C_2 
REMARK    1  A    between atoms: C_2  and  C_4 
REMARK    2  A    between atoms: C_7  and  N_8 
REMARK       I    between atoms: N_8  and  C_9 
REMARK       I    between atoms: C_9  and  N_11 
REMARK    3  A    between atoms: N_11  and  C_12 
REMARK    4  A    between atoms: C_12  and  C_13 
REMARK    5  A    between atoms: C_17  and  C_19 
REMARK       I    between atoms: C_19  and  N_21 
REMARK    6  A    between atoms: N_21  and  C_22 
ROOT
HETATM    1  C   UNL     1     -42.779  61.218 -53.037  1.00  0.00    -0.040 A 
HETATM    2  C   UNL     1     -43.175  61.979 -51.929  1.00  0.00     0.009 A 
HETATM    3  C   UNL     1     -42.908  61.533 -50.636  1.00  0.00     0.002 A 
HETATM    4  C   UNL     1     -42.227  60.331 -50.442  1.00  0.00     0.017 A 
HETATM    5  C   UNL     1     -41.800  59.563 -51.536  1.00  0.00     0.032 A 
HETATM    6  C   UNL     1     -42.090  60.008 -52.833  1.00  0.00     0.026 A 
ENDROOT
BRANCH   1   7
HETATM    7  C   UNL     1     -43.055  61.708 -54.436  1.00  0.00     0.162 C 
BRANCH   7   8
HETATM    8  N   UNL     1     -42.517  60.799 -55.422  1.00  0.00    -0.339 N 
HETATM    9  C   UNL     1     -43.279  59.773 -55.939  1.00  0.00     0.320 C 
HETATM   10  N   UNL     1     -42.569  59.067 -56.886  1.00  0.00    -0.309 N 
HETATM   11  O   UNL     1     -44.438  59.578 -55.596  1.00  0.00    -0.247 OA
HETATM   12  H   UNL     1     -41.661  59.440 -57.116  1.00  0.00     0.170 HD
HETATM   13  H   UNL     1     -41.518  60.660 -55.402  1.00  0.00     0.164 HD
BRANCH  10  14
HETATM   14  C   UNL     1     -43.014  57.984 -57.672  1.00  0.00     0.036 A 
HETATM   15  C   UNL     1     -42.788  56.644 -57.353  1.00  0.00     0.030 A 
HETATM   16  C   UNL     1     -43.288  55.621 -58.170  1.00  0.00     0.019 A 
HETATM   17  C   UNL     1     -44.024  55.931 -59.318  1.00  0.00     0.032 A 
HETATM   18  C   UNL     1     -44.227  57.273 -59.656  1.00  0.00     0.019 A 
HETATM   19  C   UNL     1     -43.728  58.291 -58.837  1.00  0.00     0.030 A 
BRANCH  17  20
HETATM   20  C   UNL     1     -44.591  54.884 -60.208  1.00  0.00     0.249 C 
HETATM   21  N   UNL     1     -45.061  53.741 -59.623  1.00  0.00    -0.366 N 
HETATM   22  H   UNL     1     -45.538  53.091 -60.234  1.00  0.00     0.159 HD
HETATM   23  H   UNL     1     -45.230  53.663 -58.631  1.00  0.00     0.159 HD
HETATM   24  O   UNL     1     -44.676  55.049 -61.419  1.00  0.00    -0.268 OA
ENDBRANCH  17  20
ENDBRANCH  10  14
ENDBRANCH   7   8
ENDBRANCH   1   7
BRANCH   5  25
HETATM   25  C   UNL     1     -41.071  58.288 -51.245  1.00  0.00     0.256 C 
HETATM   26  O   UNL     1     -39.975  58.375 -50.703  1.00  0.00    -0.267 OA
HETATM   27  N   UNL     1     -41.698  57.118 -51.639  1.00  0.00    -0.323 N 
HETATM   28  H   UNL     1     -42.597  57.191 -52.093  1.00  0.00     0.169 HD
BRANCH  27  29
HETATM   29  C   UNL     1     -41.190  55.802 -51.528  1.00  0.00     0.035 A 
HETATM   30  C   UNL     1     -40.810  55.212 -50.323  1.00  0.00     0.030 A 
HETATM   31  C   UNL     1     -40.294  53.913 -50.296  1.00  0.00     0.010 A 
HETATM   32  C   UNL     1     -40.167  53.175 -51.476  1.00  0.00    -0.048 A 
HETATM   33  C   UNL     1     -39.565  51.792 -51.446  1.00  0.00     0.069 C 
HETATM   34  C   UNL     1     -40.539  53.754 -52.699  1.00  0.00    -0.022 A 
HETATM   35  C   UNL     1     -39.868  51.001 -52.722  1.00  0.00     0.274 C 
HETATM   36  N   UNL     1     -39.575  51.796 -53.918  1.00  0.00     0.087 N 
HETATM   37  C   UNL     1     -40.466  52.961 -53.984  1.00  0.00     0.308 C 
HETATM   38  H   UNL     1     -39.720  51.225 -54.749  1.00  0.00     0.316 HD
HETATM   39  C   UNL     1     -41.053  55.063 -52.712  1.00  0.00     0.039 A 
ENDBRANCH  27  29
ENDBRANCH   5  25
TORSDOF 6
ENDMDL
MODEL 5
REMARK VINA RESULT:      -8.9      4.373     10.838
REMARK  6 active torsions:
REMARK  status: ('A' for Active; 'I' for Inactive)
REMARK       I    between atoms: N_1  and  C_2 
REMARK    1  A    between atoms: C_2  and  C_4 
REMARK    2  A    between atoms: C_7  and  N_8 
REMARK       I    between atoms: N_8  and  C_9 
REMARK       I    between atoms: C_9  and  N_11 
REMARK    3  A    between atoms: N_11  and  C_12 
REMARK    4  A    between atoms: C_12  and  C_13 
REMARK    5  A    between atoms: C_17  and  C_19 
REMARK       I    between atoms: C_19  and  N_21 
REMARK    6  A    between atoms: N_21  and  C_22 
ROOT
HETATM    1  C   UNL     1     -40.522  53.404 -53.344  1.00  0.00    -0.040 A 
HETATM    2  C   UNL     1     -40.086  52.376 -52.497  1.00  0.00     0.009 A 
HETATM    3  C   UNL     1     -40.063  52.565 -51.116  1.00  0.00     0.002 A 
HETATM    4  C   UNL     1     -40.490  53.776 -50.573  1.00  0.00     0.017 A 
HETATM    5  C   UNL     1     -40.951  54.811 -51.399  1.00  0.00     0.032 A 
HETATM    6  C   UNL     1     -40.954  54.621 -52.788  1.00  0.00     0.026 A 
ENDROOT
BRANCH   1   7
HETATM    7  C   UNL     1     -40.561  53.194 -54.837  1.00  0.00     0.162 C 
BRANCH   7   8
HETATM    8  N   UNL     1     -40.838  54.433 -55.530  1.00  0.00    -0.339 N 
HETATM    9  C   UNL     1     -42.116  54.749 -55.942  1.00  0.00     0.320 C 
HETATM   10  N   UNL     1     -42.140  55.990 -56.541  1.00  0.00    -0.309 N 
HETATM   11  O   UNL     1     -43.072  54.010 -55.745  1.00  0.00    -0.247 OA
HETATM   12  H   UNL     1     -41.272  56.502 -56.518  1.00  0.00     0.170 HD
HETATM   13  H   UNL     1     -40.077  54.826 -56.061  1.00  0.00     0.164 HD
BRANCH  10  14
HETATM   14  C   UNL     1     -43.259  56.684 -57.047  1.00  0.00     0.036 A 
HETATM   15  C   UNL     1     -43.660  56.649 -58.384  1.00  0.00     0.030 A 
HETATM   16  C   UNL     1     -44.801  57.344 -58.806  1.00  0.00     0.019 A 
HETATM   17  C   UNL     1     -45.557  58.081 -57.889  1.00  0.00     0.032 A 
HETATM   18  C   UNL     1     -45.141  58.143 -56.555  1.00  0.00     0.019 A 
HETATM   19  C   UNL     1     -44.002  57.447 -56.138  1.00  0.00     0.030 A 
BRANCH  17  20
HETATM   20  C   UNL     1     -46.785  58.822 -58.282  1.00  0.00     0.249 C 
HETATM   21  N   UNL     1     -47.718  59.062 -57.311  1.00  0.00    -0.366 N 
HETATM   22  H   UNL     1     -48.492  59.658 -57.574  1.00  0.00     0.159 HD
HETATM   23  H   UNL     1     -47.525  58.949 -56.327  1.00  0.00     0.159 HD
HETATM   24  O   UNL     1     -46.944  59.242 -59.421  1.00  0.00    -0.268 OA
ENDBRANCH  17  20
ENDBRANCH  10  14
ENDBRANCH   7   8
ENDBRANCH   1   7
BRANCH   5  25
HETATM   25  C   UNL     1     -41.398  56.078 -50.740  1.00  0.00     0.256 C 
HETATM   26  O   UNL     1     -41.491  56.077 -49.517  1.00  0.00    -0.267 OA
HETATM   27  N   UNL     1     -41.688  57.140 -51.580  1.00  0.00    -0.323 N 
HETATM   28  H   UNL     1     -41.584  56.999 -52.574  1.00  0.00     0.169 HD
BRANCH  27  29
HETATM   29  C   UNL     1     -42.179  58.412 -51.204  1.00  0.00     0.035 A 
HETATM   30  C   UNL     1     -41.381  59.438 -50.698  1.00  0.00     0.030 A 
HETATM   31  C   UNL     1     -41.944  60.662 -50.326  1.00  0.00     0.010 A 
HETATM   32  C   UNL     1     -43.316  60.888 -50.473  1.00  0.00    -0.048 A 
HETATM   33  C   UNL     1     -43.923  62.193 -50.026  1.00  0.00     0.069 C 
HETATM   34  C   UNL     1     -44.135  59.865 -50.976  1.00  0.00    -0.022 A 
HETATM   35  C   UNL     1     -45.320  62.415 -50.617  1.00  0.00     0.274 C 
HETATM   36  N   UNL     1     -46.161  61.228 -50.440  1.00  0.00     0.087 N 
HETATM   37  C   UNL     1     -45.612  60.099 -51.200  1.00  0.00     0.308 C 
HETATM   38  H   UNL     1     -47.101  61.425 -50.779  1.00  0.00     0.316 HD
HETATM   39  C   UNL     1     -43.557  58.637 -51.343  1.00  0.00     0.039 A 
ENDBRANCH  27  29
ENDBRANCH   5  25
TORSDOF 6
ENDMDL
MODEL 6
REMARK VINA RESULT:      -8.8      3.344      5.871
REMARK  6 active torsions:
REMARK  status: ('A' for Active; 'I' for Inactive)
REMARK       I    between atoms: N_1  and  C_2 
REMARK    1  A    between atoms: C_2  and  C_4 
REMARK    2  A    between atoms: C_7  and  N_8 
REMARK       I    between atoms: N_8  and  C_9 
REMARK       I    between atoms: C_9  and  N_11 
REMARK    3  A    between atoms: N_11  and  C_12 
REMARK    4  A    between atoms: C_12  and  C_13 
REMARK    5  A    between atoms: C_17  and  C_19 
REMARK       I    between atoms: C_19  and  N_21 
REMARK    6  A    between atoms: N_21  and  C_22 
ROOT
HETATM    1  C   UNL     1     -42.549  58.253 -57.915  1.00  0.00    -0.040 A 
HETATM    2  C   UNL     1     -42.968  57.806 -59.176  1.00  0.00     0.009 A 
HETATM    3  C   UNL     1     -43.200  56.451 -59.401  1.00  0.00     0.002 A 
HETATM    4  C   UNL     1     -43.032  55.535 -58.363  1.00  0.00     0.017 A 
HETATM    5  C   UNL     1     -42.636  55.961 -57.087  1.00  0.00     0.032 A 
HETATM    6  C   UNL     1     -42.385  57.323 -56.873  1.00  0.00     0.026 A 
ENDROOT
BRANCH   1   7
HETATM    7  C   UNL     1     -42.313  59.721 -57.668  1.00  0.00     0.162 C 
BRANCH   7   8
HETATM    8  N   UNL     1     -41.941  59.965 -56.292  1.00  0.00    -0.339 N 
HETATM    9  C   UNL     1     -42.890  60.281 -55.342  1.00  0.00     0.320 C 
HETATM   10  N   UNL     1     -42.307  60.429 -54.102  1.00  0.00    -0.309 N 
HETATM   11  O   UNL     1     -44.081  60.372 -55.609  1.00  0.00    -0.247 OA
HETATM   12  H   UNL     1     -41.323  60.211 -54.054  1.00  0.00     0.170 HD
HETATM   13  H   UNL     1     -41.007  60.310 -56.137  1.00  0.00     0.164 HD
BRANCH  10  14
HETATM   14  C   UNL     1     -42.944  60.703 -52.874  1.00  0.00     0.036 A 
HETATM   15  C   UNL     1     -43.181  61.990 -52.389  1.00  0.00     0.030 A 
HETATM   16  C   UNL     1     -43.847  62.183 -51.171  1.00  0.00     0.019 A 
HETATM   17  C   UNL     1     -44.285  61.083 -50.425  1.00  0.00     0.032 A 
HETATM   18  C   UNL     1     -44.022  59.792 -50.894  1.00  0.00     0.019 A 
HETATM   19  C   UNL     1     -43.358  59.605 -52.111  1.00  0.00     0.030 A 
BRANCH  17  20
HETATM   20  C   UNL     1     -45.010  61.233 -49.136  1.00  0.00     0.249 C 
HETATM   21  N   UNL     1     -44.662  62.281 -48.331  1.00  0.00    -0.366 N 
HETATM   22  H   UNL     1     -45.239  62.427 -47.512  1.00  0.00     0.159 HD
HETATM   23  H   UNL     1     -44.100  63.056 -48.652  1.00  0.00     0.159 HD
HETATM   24  O   UNL     1     -45.917  60.474 -48.819  1.00  0.00    -0.268 OA
ENDBRANCH  17  20
ENDBRANCH  10  14
ENDBRANCH   7   8
ENDBRANCH   1   7
BRANCH   5  25
HETATM   25  C   UNL     1     -42.483  54.917 -56.025  1.00  0.00     0.256 C 
HETATM   26  O   UNL     1     -43.488  54.303 -55.686  1.00  0.00    -0.267 OA
HETATM   27  N   UNL     1     -41.211  54.754 -55.501  1.00  0.00    -0.323 N 
HETATM   28  H   UNL     1     -40.472  55.341 -55.861  1.00  0.00     0.169 HD
BRANCH  27  29
HETATM   29  C   UNL     1     -40.826  53.881 -54.457  1.00  0.00     0.035 A 
HETATM   30  C   UNL     1     -40.676  54.275 -53.127  1.00  0.00     0.030 A 
HETATM   31  C   UNL     1     -40.270  53.357 -52.153  1.00  0.00     0.010 A 
HETATM   32  C   UNL     1     -40.024  52.023 -52.492  1.00  0.00    -0.048 A 
HETATM   33  C   UNL     1     -39.540  51.051 -51.447  1.00  0.00     0.069 C 
HETATM   34  C   UNL     1     -40.165  51.611 -53.826  1.00  0.00    -0.022 A 
HETATM   35  C   UNL     1     -39.709  49.594 -51.889  1.00  0.00     0.274 C 
HETATM   36  N   UNL     1     -39.182  49.388 -53.241  1.00  0.00     0.087 N 
HETATM   37  C   UNL     1     -39.962  50.163 -54.213  1.00  0.00     0.308 C 
HETATM   38  H   UNL     1     -39.244  48.401 -53.483  1.00  0.00     0.316 HD
HETATM   39  C   UNL     1     -40.571  52.545 -54.797  1.00  0.00     0.039 A 
ENDBRANCH  27  29
ENDBRANCH   5  25
TORSDOF 6
ENDMDL
MODEL 7
REMARK VINA RESULT:      -8.7      6.550     11.913
REMARK  6 active torsions:
REMARK  status: ('A' for Active; 'I' for Inactive)
REMARK       I    between atoms: N_1  and  C_2 
REMARK    1  A    between atoms: C_2  and  C_4 
REMARK    2  A    between atoms: C_7  and  N_8 
REMARK       I    between atoms: N_8  and  C_9 
REMARK       I    between atoms: C_9  and  N_11 
REMARK    3  A    between atoms: N_11  and  C_12 
REMARK    4  A    between atoms: C_12  and  C_13 
REMARK    5  A    between atoms: C_17  and  C_19 
REMARK       I    between atoms: C_19  and  N_21 
REMARK    6  A    between atoms: N_21  and  C_22 
ROOT
HETATM    1  C   UNL     1     -42.590  59.033 -54.116  1.00  0.00    -0.040 A 
HETATM    2  C   UNL     1     -43.990  59.074 -54.060  1.00  0.00     0.009 A 
HETATM    3  C   UNL     1     -44.730  59.385 -55.199  1.00  0.00     0.002 A 
HETATM    4  C   UNL     1     -44.078  59.641 -56.405  1.00  0.00     0.017 A 
HETATM    5  C   UNL     1     -42.679  59.584 -56.490  1.00  0.00     0.032 A 
HETATM    6  C   UNL     1     -41.939  59.290 -55.336  1.00  0.00     0.026 A 
ENDROOT
BRANCH   1   7
HETATM    7  C   UNL     1     -41.789  58.682 -52.887  1.00  0.00     0.162 C 
BRANCH   7   8
HETATM    8  N   UNL     1     -42.034  57.317 -52.478  1.00  0.00    -0.339 N 
HETATM    9  C   UNL     1     -41.362  56.265 -53.064  1.00  0.00     0.320 C 
HETATM   10  N   UNL     1     -41.731  55.069 -52.486  1.00  0.00    -0.309 N 
HETATM   11  O   UNL     1     -40.532  56.427 -53.949  1.00  0.00    -0.247 OA
HETATM   12  H   UNL     1     -42.351  55.141 -51.694  1.00  0.00     0.170 HD
HETATM   13  H   UNL     1     -42.949  57.122 -52.103  1.00  0.00     0.164 HD
BRANCH  10  14
HETATM   14  C   UNL     1     -41.234  53.781 -52.772  1.00  0.00     0.036 A 
HETATM   15  C   UNL     1     -41.461  53.106 -53.974  1.00  0.00     0.030 A 
HETATM   16  C   UNL     1     -40.910  51.838 -54.196  1.00  0.00     0.019 A 
HETATM   17  C   UNL     1     -40.120  51.230 -53.214  1.00  0.00     0.032 A 
HETATM   18  C   UNL     1     -39.916  51.890 -51.998  1.00  0.00     0.019 A 
HETATM   19  C   UNL     1     -40.467  53.157 -51.781  1.00  0.00     0.030 A 
BRANCH  17  20
HETATM   20  C   UNL     1     -39.498  49.894 -53.406  1.00  0.00     0.249 C 
HETATM   21  N   UNL     1     -39.340  49.103 -52.302  1.00  0.00    -0.366 N 
HETATM   22  H   UNL     1     -39.015  48.160 -52.470  1.00  0.00     0.159 HD
HETATM   23  H   UNL     1     -39.801  49.291 -51.424  1.00  0.00     0.159 HD
HETATM   24  O   UNL     1     -39.174  49.491 -54.516  1.00  0.00    -0.268 OA
ENDBRANCH  17  20
ENDBRANCH  10  14
ENDBRANCH   7   8
ENDBRANCH   1   7
BRANCH   5  25
HETATM   25  C   UNL     1     -42.053  59.866 -57.820  1.00  0.00     0.256 C 
HETATM   26  O   UNL     1     -41.642  58.909 -58.466  1.00  0.00    -0.267 OA
HETATM   27  N   UNL     1     -41.976  61.198 -58.194  1.00  0.00    -0.323 N 
HETATM   28  H   UNL     1     -42.340  61.890 -57.556  1.00  0.00     0.169 HD
BRANCH  27  29
HETATM   29  C   UNL     1     -41.382  61.719 -59.367  1.00  0.00     0.035 A 
HETATM   30  C   UNL     1     -41.785  61.384 -60.660  1.00  0.00     0.030 A 
HETATM   31  C   UNL     1     -41.132  61.924 -61.772  1.00  0.00     0.010 A 
HETATM   32  C   UNL     1     -40.076  62.824 -61.609  1.00  0.00    -0.048 A 
HETATM   33  C   UNL     1     -39.346  63.365 -62.812  1.00  0.00     0.069 C 
HETATM   34  C   UNL     1     -39.653  63.168 -60.316  1.00  0.00    -0.022 A 
HETATM   35  C   UNL     1     -38.513  64.606 -62.475  1.00  0.00     0.274 C 
HETATM   36  N   UNL     1     -37.693  64.383 -61.282  1.00  0.00     0.087 N 
HETATM   37  C   UNL     1     -38.551  64.182 -60.107  1.00  0.00     0.308 C 
HETATM   38  H   UNL     1     -37.102  65.196 -61.120  1.00  0.00     0.316 HD
HETATM   39  C   UNL     1     -40.316  62.615 -59.205  1.00  0.00     0.039 A 
ENDBRANCH  27  29
ENDBRANCH   5  25
TORSDOF 6
ENDMDL
MODEL 8
REMARK VINA RESULT:      -8.7      5.967     10.559
REMARK  6 active torsions:
REMARK  status: ('A' for Active; 'I' for Inactive)
REMARK       I    between atoms: N_1  and  C_2 
REMARK    1  A    between atoms: C_2  and  C_4 
REMARK    2  A    between atoms: C_7  and  N_8 
REMARK       I    between atoms: N_8  and  C_9 
REMARK       I    between atoms: C_9  and  N_11 
REMARK    3  A    between atoms: N_11  and  C_12 
REMARK    4  A    between atoms: C_12  and  C_13 
REMARK    5  A    between atoms: C_17  and  C_19 
REMARK       I    between atoms: C_19  and  N_21 
REMARK    6  A    between atoms: N_21  and  C_22 
ROOT
HETATM    1  C   UNL     1     -43.829  59.565 -54.004  1.00  0.00    -0.040 A 
HETATM    2  C   UNL     1     -43.061  60.528 -53.337  1.00  0.00     0.009 A 
HETATM    3  C   UNL     1     -42.166  60.147 -52.339  1.00  0.00     0.002 A 
HETATM    4  C   UNL     1     -42.020  58.799 -52.014  1.00  0.00     0.017 A 
HETATM    5  C   UNL     1     -42.761  57.815 -52.684  1.00  0.00     0.032 A 
HETATM    6  C   UNL     1     -43.674  58.207 -53.673  1.00  0.00     0.026 A 
ENDROOT
BRANCH   1   7
HETATM    7  C   UNL     1     -44.787  59.976 -55.094  1.00  0.00     0.162 C 
BRANCH   7   8
HETATM    8  N   UNL     1     -44.700  59.083 -56.228  1.00  0.00    -0.339 N 
HETATM    9  C   UNL     1     -45.746  58.955 -57.117  1.00  0.00     0.320 C 
HETATM   10  N   UNL     1     -45.418  58.083 -58.133  1.00  0.00    -0.309 N 
HETATM   11  O   UNL     1     -46.791  59.582 -56.997  1.00  0.00    -0.247 OA
HETATM   12  H   UNL     1     -44.469  57.742 -58.124  1.00  0.00     0.170 HD
HETATM   13  H   UNL     1     -44.090  58.288 -56.123  1.00  0.00     0.164 HD
BRANCH  10  14
HETATM   14  C   UNL     1     -46.197  57.727 -59.253  1.00  0.00     0.036 A 
HETATM   15  C   UNL     1     -46.425  56.411 -59.659  1.00  0.00     0.030 A 
HETATM   16  C   UNL     1     -47.236  56.136 -60.768  1.00  0.00     0.019 A 
HETATM   17  C   UNL     1     -47.831  57.181 -61.483  1.00  0.00     0.032 A 
HETATM   18  C   UNL     1     -47.580  58.501 -61.098  1.00  0.00     0.019 A 
HETATM   19  C   UNL     1     -46.772  58.771 -59.988  1.00  0.00     0.030 A 
BRANCH  17  20
HETATM   20  C   UNL     1     -48.713  56.942 -62.656  1.00  0.00     0.249 C 
HETATM   21  N   UNL     1     -49.925  57.574 -62.677  1.00  0.00    -0.366 N 
HETATM   22  H   UNL     1     -50.461  57.484 -63.530  1.00  0.00     0.159 HD
HETATM   23  H   UNL     1     -50.156  58.336 -62.056  1.00  0.00     0.159 HD
HETATM   24  O   UNL     1     -48.356  56.240 -63.594  1.00  0.00    -0.268 OA
ENDBRANCH  17  20
ENDBRANCH  10  14
ENDBRANCH   7   8
ENDBRANCH   1   7
BRANCH   5  25
HETATM   25  C   UNL     1     -42.543  56.389 -52.282  1.00  0.00     0.256 C 
HETATM   26  O   UNL     1     -43.438  55.836 -51.652  1.00  0.00    -0.267 OA
HETATM   27  N   UNL     1     -41.330  55.826 -52.642  1.00  0.00    -0.323 N 
HETATM   28  H   UNL     1     -40.672  56.403 -53.148  1.00  0.00     0.169 HD
BRANCH  27  29
HETATM   29  C   UNL     1     -40.869  54.526 -52.330  1.00  0.00     0.035 A 
HETATM   30  C   UNL     1     -40.498  54.118 -51.049  1.00  0.00     0.030 A 
HETATM   31  C   UNL     1     -40.029  52.820 -50.822  1.00  0.00     0.010 A 
HETATM   32  C   UNL     1     -39.942  51.902 -51.873  1.00  0.00    -0.048 A 
HETATM   33  C   UNL     1     -39.391  50.520 -51.630  1.00  0.00     0.069 C 
HETATM   34  C   UNL     1     -40.306  52.298 -53.169  1.00  0.00    -0.022 A 
HETATM   35  C   UNL     1     -39.736  49.551 -52.765  1.00  0.00     0.274 C 
HETATM   36  N   UNL     1     -39.428  50.138 -54.072  1.00  0.00     0.087 N 
HETATM   37  C   UNL     1     -40.277  51.311 -54.315  1.00  0.00     0.308 C 
HETATM   38  H   UNL     1     -39.602  49.451 -54.803  1.00  0.00     0.316 HD
HETATM   39  C   UNL     1     -40.772  53.607 -53.384  1.00  0.00     0.039 A 
ENDBRANCH  27  29
ENDBRANCH   5  25
TORSDOF 6
ENDMDL
MODEL 9
REMARK VINA RESULT:      -8.4      4.913      8.631
REMARK  6 active torsions:
REMARK  status: ('A' for Active; 'I' for Inactive)
REMARK       I    between atoms: N_1  and  C_2 
REMARK    1  A    between atoms: C_2  and  C_4 
REMARK    2  A    between atoms: C_7  and  N_8 
REMARK       I    between atoms: N_8  and  C_9 
REMARK       I    between atoms: C_9  and  N_11 
REMARK    3  A    between atoms: N_11  and  C_12 
REMARK    4  A    between atoms: C_12  and  C_13 
REMARK    5  A    between atoms: C_17  and  C_19 
REMARK       I    between atoms: C_19  and  N_21 
REMARK    6  A    between atoms: N_21  and  C_22 
ROOT
HETATM    1  C   UNL     1     -43.065  59.284 -51.058  1.00  0.00    -0.040 A 
HETATM    2  C   UNL     1     -42.059  60.107 -50.535  1.00  0.00     0.009 A 
HETATM    3  C   UNL     1     -40.805  59.580 -50.232  1.00  0.00     0.002 A 
HETATM    4  C   UNL     1     -40.543  58.230 -50.466  1.00  0.00     0.017 A 
HETATM    5  C   UNL     1     -41.528  57.392 -51.010  1.00  0.00     0.032 A 
HETATM    6  C   UNL     1     -42.793  57.925 -51.294  1.00  0.00     0.026 A 
ENDROOT
BRANCH   1   7
HETATM    7  C   UNL     1     -44.417  59.858 -51.400  1.00  0.00     0.162 C 
BRANCH   7   8
HETATM    8  N   UNL     1     -45.064  59.087 -52.437  1.00  0.00    -0.339 N 
HETATM    9  C   UNL     1     -44.687  59.210 -53.758  1.00  0.00     0.320 C 
HETATM   10  N   UNL     1     -45.414  58.351 -54.554  1.00  0.00    -0.309 N 
HETATM   11  O   UNL     1     -43.797  59.969 -54.119  1.00  0.00    -0.247 OA
HETATM   12  H   UNL     1     -46.032  57.722 -54.065  1.00  0.00     0.170 HD
HETATM   13  H   UNL     1     -46.016  58.809 -52.258  1.00  0.00     0.164 HD
BRANCH  10  14
HETATM   14  C   UNL     1     -45.290  58.146 -55.944  1.00  0.00     0.036 A 
HETATM   15  C   UNL     1     -44.147  57.633 -56.558  1.00  0.00     0.030 A 
HETATM   16  C   UNL     1     -44.110  57.431 -57.944  1.00  0.00     0.019 A 
HETATM   17  C   UNL     1     -45.224  57.740 -58.732  1.00  0.00     0.032 A 
HETATM   18  C   UNL     1     -46.360  58.283 -58.123  1.00  0.00     0.019 A 
HETATM   19  C   UNL     1     -46.393  58.481 -56.739  1.00  0.00     0.030 A 
BRANCH  17  20
HETATM   20  C   UNL     1     -45.244  57.528 -60.203  1.00  0.00     0.249 C 
HETATM   21  N   UNL     1     -44.898  58.584 -61.000  1.00  0.00    -0.366 N 
HETATM   22  H   UNL     1     -44.814  58.389 -61.989  1.00  0.00     0.159 HD
HETATM   23  H   UNL     1     -44.442  59.412 -60.645  1.00  0.00     0.159 HD
HETATM   24  O   UNL     1     -45.517  56.439 -60.691  1.00  0.00    -0.268 OA
ENDBRANCH  17  20
ENDBRANCH  10  14
ENDBRANCH   7   8
ENDBRANCH   1   7
BRANCH   5  25
HETATM   25  C   UNL     1     -41.168  55.957 -51.237  1.00  0.00     0.256 C 
HETATM   26  O   UNL     1     -40.836  55.295 -50.259  1.00  0.00    -0.267 OA
HETATM   27  N   UNL     1     -41.222  55.508 -52.546  1.00  0.00    -0.323 N 
HETATM   28  H   UNL     1     -41.496  56.166 -53.261  1.00  0.00     0.169 HD
BRANCH  27  29
HETATM   29  C   UNL     1     -40.875  54.221 -53.019  1.00  0.00     0.035 A 
HETATM   30  C   UNL     1     -40.944  53.838 -54.358  1.00  0.00     0.030 A 
HETATM   31  C   UNL     1     -40.606  52.538 -54.747  1.00  0.00     0.010 A 
HETATM   32  C   UNL     1     -40.176  51.603 -53.801  1.00  0.00    -0.048 A 
HETATM   33  C   UNL     1     -39.859  50.190 -54.220  1.00  0.00     0.069 C 
HETATM   34  C   UNL     1     -40.106  51.969 -52.448  1.00  0.00    -0.022 A 
HETATM   35  C   UNL     1     -39.041  49.441 -53.162  1.00  0.00     0.274 C 
HETATM   36  N   UNL     1     -39.637  49.592 -51.832  1.00  0.00     0.087 N 
HETATM   37  C   UNL     1     -39.589  50.998 -51.410  1.00  0.00     0.308 C 
HETATM   38  H   UNL     1     -39.115  49.032 -51.161  1.00  0.00     0.316 HD
HETATM   39  C   UNL     1     -40.452  53.279 -52.070  1.00  0.00     0.039 A 
ENDBRANCH  27  29
ENDBRANCH   5  25
TORSDOF 6
ENDMDL
MODEL 10
REMARK VINA RESULT:      -8.4      5.008      8.873
REMARK  6 active torsions:
REMARK  status: ('A' for Active; 'I' for Inactive)
REMARK       I    between atoms: N_1  and  C_2 
REMARK    1  A    between atoms: C_2  and  C_4 
REMARK    2  A    between atoms: C_7  and  N_8 
REMARK       I    between atoms: N_8  and  C_9 
REMARK       I    between atoms: C_9  and  N_11 
REMARK    3  A    between atoms: N_11  and  C_12 
REMARK    4  A    between atoms: C_12  and  C_13 
REMARK    5  A    between atoms: C_17  and  C_19 
REMARK       I    between atoms: C_19  and  N_21 
REMARK    6  A    between atoms: N_21  and  C_22 
ROOT
HETATM    1  C   UNL     1     -42.733  60.825 -51.848  1.00  0.00    -0.040 A 
HETATM    2  C   UNL     1     -43.181  62.151 -51.932  1.00  0.00     0.009 A 
HETATM    3  C   UNL     1     -43.969  62.560 -53.006  1.00  0.00     0.002 A 
HETATM    4  C   UNL     1     -44.330  61.644 -53.993  1.00  0.00     0.017 A 
HETATM    5  C   UNL     1     -43.913  60.306 -53.918  1.00  0.00     0.032 A 
HETATM    6  C   UNL     1     -43.104  59.906 -52.846  1.00  0.00     0.026 A 
ENDROOT
BRANCH   1   7
HETATM    7  C   UNL     1     -41.892  60.378 -50.679  1.00  0.00     0.162 C 
BRANCH   7   8
HETATM    8  N   UNL     1     -42.214  59.023 -50.293  1.00  0.00    -0.339 N 
HETATM    9  C   UNL     1     -41.431  57.961 -50.696  1.00  0.00     0.320 C 
HETATM   10  N   UNL     1     -41.910  56.778 -50.176  1.00  0.00    -0.309 N 
HETATM   11  O   UNL     1     -40.434  58.107 -51.391  1.00  0.00    -0.247 OA
HETATM   12  H   UNL     1     -42.683  56.866 -49.534  1.00  0.00     0.170 HD
HETATM   13  H   UNL     1     -43.187  58.830 -50.114  1.00  0.00     0.164 HD
BRANCH  10  14
HETATM   14  C   UNL     1     -41.361  55.487 -50.316  1.00  0.00     0.036 A 
HETATM   15  C   UNL     1     -40.720  54.795 -49.287  1.00  0.00     0.030 A 
HETATM   16  C   UNL     1     -40.225  53.501 -49.496  1.00  0.00     0.019 A 
HETATM   17  C   UNL     1     -40.370  52.883 -50.742  1.00  0.00     0.032 A 
HETATM   18  C   UNL     1     -40.985  53.585 -51.784  1.00  0.00     0.019 A 
HETATM   19  C   UNL     1     -41.479  54.876 -51.571  1.00  0.00     0.030 A 
BRANCH  17  20
HETATM   20  C   UNL     1     -39.879  51.506 -51.011  1.00  0.00     0.249 C 
HETATM   21  N   UNL     1     -40.226  50.525 -50.125  1.00  0.00    -0.366 N 
HETATM   22  H   UNL     1     -39.973  49.580 -50.383  1.00  0.00     0.159 HD
HETATM   23  H   UNL     1     -40.952  50.643 -49.433  1.00  0.00     0.159 HD
HETATM   24  O   UNL     1     -39.221  51.243 -52.010  1.00  0.00    -0.268 OA
ENDBRANCH  17  20
ENDBRANCH  10  14
ENDBRANCH   7   8
ENDBRANCH   1   7
BRANCH   5  25
HETATM   25  C   UNL     1     -44.347  59.383 -55.014  1.00  0.00     0.256 C 
HETATM   26  O   UNL     1     -45.548  59.310 -55.250  1.00  0.00    -0.267 OA
HETATM   27  N   UNL     1     -43.344  58.673 -55.652  1.00  0.00    -0.323 N 
HETATM   28  H   UNL     1     -42.393  58.817 -55.346  1.00  0.00     0.169 HD
BRANCH  27  29
HETATM   29  C   UNL     1     -43.504  57.704 -56.670  1.00  0.00     0.035 A 
HETATM   30  C   UNL     1     -42.815  56.492 -56.709  1.00  0.00     0.030 A 
HETATM   31  C   UNL     1     -43.010  55.594 -57.763  1.00  0.00     0.010 A 
HETATM   32  C   UNL     1     -43.913  55.886 -58.788  1.00  0.00    -0.048 A 
HETATM   33  C   UNL     1     -44.083  54.935 -59.945  1.00  0.00     0.069 C 
HETATM   34  C   UNL     1     -44.611  57.104 -58.769  1.00  0.00    -0.022 A 
HETATM   35  C   UNL     1     -45.365  55.210 -60.738  1.00  0.00     0.274 C 
HETATM   36  N   UNL     1     -45.489  56.634 -61.062  1.00  0.00     0.087 N 
HETATM   37  C   UNL     1     -45.637  57.423 -59.833  1.00  0.00     0.308 C 
HETATM   38  H   UNL     1     -46.311  56.779 -61.645  1.00  0.00     0.316 HD
HETATM   39  C   UNL     1     -44.403  58.000 -57.705  1.00  0.00     0.039 A 
ENDBRANCH  27  29
ENDBRANCH   5  25
TORSDOF 6
ENDMDL
