MODEL 1
REMARK VINA RESULT:      -8.2      0.000      0.000
REMARK  5 active torsions:
REMARK  status: ('A' for Active; 'I' for Inactive)
REMARK    1  A    between atoms: C_5  and  S_6 
REMARK    2  A    between atoms: S_6  and  C_7 
REMARK    3  A    between atoms: C_7  and  C_8 
REMARK       I    between atoms: C_8  and  N_9 
REMARK    4  A    between atoms: N_9  and  N_10 
REMARK       I    between atoms: N_10  and  C_11 
REMARK    5  A    between atoms: C_11  and  C_12 
ROOT
HETATM    1  N   UNL     1     -41.498  55.351 -55.846  1.00  0.00    -0.262 N 
HETATM    2  C   UNL     1     -40.917  55.297 -54.597  1.00  0.00     0.286 C 
HETATM    3  O   UNL     1     -40.705  56.311 -53.932  1.00  0.00    -0.264 OA
HETATM    4  H   UNL     1     -41.751  54.523 -56.379  1.00  0.00     0.190 HD
ENDROOT
BRANCH   1   5
HETATM    5  N   UNL     1     -41.974  56.573 -56.333  1.00  0.00    -0.267 N 
HETATM    6  C   UNL     1     -42.810  56.546 -57.431  1.00  0.00     0.245 C 
HETATM    7  O   UNL     1     -43.244  55.490 -57.896  1.00  0.00    -0.271 OA
HETATM    8  H   UNL     1     -41.454  57.411 -56.068  1.00  0.00     0.190 HD
BRANCH   6   9
HETATM    9  C   UNL     1     -43.243  57.902 -57.951  1.00  0.00     0.184 C 
BRANCH   9  10
HETATM   10  S   UNL     1     -42.398  59.249 -57.058  1.00  0.00    -0.121 SA
BRANCH  10  11
HETATM   11  C   UNL     1     -41.892  60.255 -58.442  1.00  0.00     0.001 A 
HETATM   12  C   UNL     1     -41.096  61.380 -58.214  1.00  0.00     0.019 A 
HETATM   13  C   UNL     1     -40.676  62.178 -59.283  1.00  0.00     0.008 A 
HETATM   14  C   UNL     1     -41.045  61.861 -60.594  1.00  0.00    -0.062 A 
HETATM   15  C   UNL     1     -40.589  62.698 -61.751  1.00  0.00     0.048 C 
HETATM   16  C   UNL     1     -41.827  60.722 -60.821  1.00  0.00     0.008 A 
HETATM   17  C   UNL     1     -42.243  59.923 -59.753  1.00  0.00     0.019 A 
ENDBRANCH  10  11
ENDBRANCH   9  10
ENDBRANCH   6   9
ENDBRANCH   1   5
BRANCH   2  18
HETATM   18  C   UNL     1     -40.585  53.973 -54.124  1.00  0.00     0.103 A 
HETATM   19  N   UNL     1     -40.365  53.720 -52.787  1.00  0.00    -0.351 N 
HETATM   20  H   UNL     1     -40.413  54.431 -52.068  1.00  0.00     0.166 HD
HETATM   21  C   UNL     1     -40.088  52.392 -52.571  1.00  0.00     0.043 A 
HETATM   22  C   UNL     1     -40.117  51.765 -53.814  1.00  0.00    -0.007 A 
HETATM   23  C   UNL     1     -39.818  51.704 -51.382  1.00  0.00     0.030 A 
HETATM   24  C   UNL     1     -40.425  52.762 -54.780  1.00  0.00     0.049 A 
HETATM   25  C   UNL     1     -39.862  50.381 -53.882  1.00  0.00     0.014 A 
HETATM   26  C   UNL     1     -39.591  49.677 -52.703  1.00  0.00     0.001 A 
HETATM   27  C   UNL     1     -39.569  50.331 -51.473  1.00  0.00     0.002 A 
ENDBRANCH   2  18
TORSDOF 5
ENDMDL
MODEL 2
REMARK VINA RESULT:      -8.1      2.759      4.006
REMARK  5 active torsions:
REMARK  status: ('A' for Active; 'I' for Inactive)
REMARK    1  A    between atoms: C_5  and  S_6 
REMARK    2  A    between atoms: S_6  and  C_7 
REMARK    3  A    between atoms: C_7  and  C_8 
REMARK       I    between atoms: C_8  and  N_9 
REMARK    4  A    between atoms: N_9  and  N_10 
REMARK       I    between atoms: N_10  and  C_11 
REMARK    5  A    between atoms: C_11  and  C_12 
ROOT
HETATM    1  N   UNL     1     -41.586  55.319 -55.952  1.00  0.00    -0.262 N 
HETATM    2  C   UNL     1     -40.982  55.420 -54.717  1.00  0.00     0.286 C 
HETATM    3  O   UNL     1     -40.772  56.508 -54.181  1.00  0.00    -0.264 OA
HETATM    4  H   UNL     1     -41.836  54.431 -56.379  1.00  0.00     0.190 HD
ENDROOT
BRANCH   1   5
HETATM    5  N   UNL     1     -42.086  56.469 -56.571  1.00  0.00    -0.267 N 
HETATM    6  C   UNL     1     -42.962  56.303 -57.624  1.00  0.00     0.245 C 
HETATM    7  O   UNL     1     -43.408  55.197 -57.936  1.00  0.00    -0.271 OA
HETATM    8  H   UNL     1     -41.561  57.334 -56.434  1.00  0.00     0.190 HD
BRANCH   6   9
HETATM    9  C   UNL     1     -43.422  57.583 -58.294  1.00  0.00     0.184 C 
BRANCH   9  10
HETATM   10  S   UNL     1     -45.038  58.121 -57.646  1.00  0.00    -0.121 SA
BRANCH  10  11
HETATM   11  C   UNL     1     -46.056  57.808 -59.077  1.00  0.00     0.001 A 
HETATM   12  C   UNL     1     -46.188  56.500 -59.550  1.00  0.00     0.019 A 
HETATM   13  C   UNL     1     -46.990  56.227 -60.663  1.00  0.00     0.008 A 
HETATM   14  C   UNL     1     -47.672  57.258 -61.317  1.00  0.00    -0.062 A 
HETATM   15  C   UNL     1     -48.547  56.978 -62.501  1.00  0.00     0.048 C 
HETATM   16  C   UNL     1     -47.553  58.565 -60.830  1.00  0.00     0.008 A 
HETATM   17  C   UNL     1     -46.754  58.837 -59.716  1.00  0.00     0.019 A 
ENDBRANCH  10  11
ENDBRANCH   9  10
ENDBRANCH   6   9
ENDBRANCH   1   5
BRANCH   2  18
HETATM   18  C   UNL     1     -40.624  54.164 -54.098  1.00  0.00     0.103 A 
HETATM   19  N   UNL     1     -40.583  54.024 -52.727  1.00  0.00    -0.351 N 
HETATM   20  H   UNL     1     -40.788  54.776 -52.081  1.00  0.00     0.166 HD
HETATM   21  C   UNL     1     -40.242  52.743 -52.368  1.00  0.00     0.043 A 
HETATM   22  C   UNL     1     -40.042  52.031 -53.548  1.00  0.00    -0.007 A 
HETATM   23  C   UNL     1     -40.098  52.164 -51.102  1.00  0.00     0.030 A 
HETATM   24  C   UNL     1     -40.280  52.929 -54.625  1.00  0.00     0.049 A 
HETATM   25  C   UNL     1     -39.678  50.673 -53.468  1.00  0.00     0.014 A 
HETATM   26  C   UNL     1     -39.529  50.077 -52.210  1.00  0.00     0.001 A 
HETATM   27  C   UNL     1     -39.737  50.814 -51.046  1.00  0.00     0.002 A 
ENDBRANCH   2  18
TORSDOF 5
ENDMDL
MODEL 3
REMARK VINA RESULT:      -8.0      2.639      3.357
REMARK  5 active torsions:
REMARK  status: ('A' for Active; 'I' for Inactive)
REMARK    1  A    between atoms: C_5  and  S_6 
REMARK    2  A    between atoms: S_6  and  C_7 
REMARK    3  A    between atoms: C_7  and  C_8 
REMARK       I    between atoms: C_8  and  N_9 
REMARK    4  A    between atoms: N_9  and  N_10 
REMARK       I    between atoms: N_10  and  C_11 
REMARK    5  A    between atoms: C_11  and  C_12 
ROOT
HETATM    1  N   UNL     1     -41.348  55.680 -54.976  1.00  0.00    -0.262 N 
HETATM    2  C   UNL     1     -40.989  55.339 -53.689  1.00  0.00     0.286 C 
HETATM    3  O   UNL     1     -40.982  56.162 -52.774  1.00  0.00    -0.264 OA
HETATM    4  H   UNL     1     -41.433  55.003 -55.729  1.00  0.00     0.190 HD
ENDROOT
BRANCH   1   5
HETATM    5  N   UNL     1     -41.835  56.965 -55.237  1.00  0.00    -0.267 N 
HETATM    6  C   UNL     1     -43.204  57.135 -55.293  1.00  0.00     0.245 C 
HETATM    7  O   UNL     1     -43.987  56.232 -54.992  1.00  0.00    -0.271 OA
HETATM    8  H   UNL     1     -41.189  57.626 -55.671  1.00  0.00     0.190 HD
BRANCH   6   9
HETATM    9  C   UNL     1     -43.671  58.534 -55.641  1.00  0.00     0.184 C 
BRANCH   9  10
HETATM   10  S   UNL     1     -42.889  59.125 -57.178  1.00  0.00    -0.121 SA
BRANCH  10  11
HETATM   11  C   UNL     1     -43.511  57.904 -58.320  1.00  0.00     0.001 A 
HETATM   12  C   UNL     1     -42.616  57.028 -58.940  1.00  0.00     0.019 A 
HETATM   13  C   UNL     1     -43.080  56.054 -59.829  1.00  0.00     0.008 A 
HETATM   14  C   UNL     1     -44.445  55.941 -60.110  1.00  0.00    -0.062 A 
HETATM   15  C   UNL     1     -44.958  54.891 -61.050  1.00  0.00     0.048 C 
HETATM   16  C   UNL     1     -45.341  56.807 -59.473  1.00  0.00     0.008 A 
HETATM   17  C   UNL     1     -44.878  57.778 -58.582  1.00  0.00     0.019 A 
ENDBRANCH  10  11
ENDBRANCH   9  10
ENDBRANCH   6   9
ENDBRANCH   1   5
BRANCH   2  18
HETATM   18  C   UNL     1     -40.631  53.953 -53.493  1.00  0.00     0.103 A 
HETATM   19  N   UNL     1     -40.323  53.460 -52.243  1.00  0.00    -0.351 N 
HETATM   20  H   UNL     1     -40.319  54.025 -51.403  1.00  0.00     0.166 HD
HETATM   21  C   UNL     1     -40.038  52.117 -52.295  1.00  0.00     0.043 A 
HETATM   22  C   UNL     1     -40.152  51.730 -53.628  1.00  0.00    -0.007 A 
HETATM   23  C   UNL     1     -39.691  51.223 -51.275  1.00  0.00     0.030 A 
HETATM   24  C   UNL     1     -40.521  52.885 -54.370  1.00  0.00     0.049 A 
HETATM   25  C   UNL     1     -39.909  50.384 -53.967  1.00  0.00     0.014 A 
HETATM   26  C   UNL     1     -39.562  49.477 -52.960  1.00  0.00     0.001 A 
HETATM   27  C   UNL     1     -39.455  49.893 -51.634  1.00  0.00     0.002 A 
ENDBRANCH   2  18
TORSDOF 5
ENDMDL
MODEL 4
REMARK VINA RESULT:      -7.9      3.078      4.397
REMARK  5 active torsions:
REMARK  status: ('A' for Active; 'I' for Inactive)
REMARK    1  A    between atoms: C_5  and  S_6 
REMARK    2  A    between atoms: S_6  and  C_7 
REMARK    3  A    between atoms: C_7  and  C_8 
REMARK       I    between atoms: C_8  and  N_9 
REMARK    4  A    between atoms: N_9  and  N_10 
REMARK       I    between atoms: N_10  and  C_11 
REMARK    5  A    between atoms: C_11  and  C_12 
ROOT
HETATM    1  N   UNL     1     -41.399  55.118 -55.685  1.00  0.00    -0.262 N 
HETATM    2  C   UNL     1     -40.781  55.054 -54.454  1.00  0.00     0.286 C 
HETATM    3  O   UNL     1     -40.523  56.065 -53.801  1.00  0.00    -0.264 OA
HETATM    4  H   UNL     1     -41.689  54.296 -56.207  1.00  0.00     0.190 HD
ENDROOT
BRANCH   1   5
HETATM    5  N   UNL     1     -41.858  56.351 -56.162  1.00  0.00    -0.267 N 
HETATM    6  C   UNL     1     -43.190  56.659 -55.969  1.00  0.00     0.245 C 
HETATM    7  O   UNL     1     -43.932  55.952 -55.285  1.00  0.00    -0.271 OA
HETATM    8  H   UNL     1     -41.294  56.809 -56.880  1.00  0.00     0.190 HD
BRANCH   6   9
HETATM    9  C   UNL     1     -43.643  57.979 -56.561  1.00  0.00     0.184 C 
BRANCH   9  10
HETATM   10  S   UNL     1     -44.479  59.008 -55.310  1.00  0.00    -0.121 SA
BRANCH  10  11
HETATM   11  C   UNL     1     -43.229  59.010 -54.038  1.00  0.00     0.001 A 
HETATM   12  C   UNL     1     -43.528  58.472 -52.783  1.00  0.00     0.019 A 
HETATM   13  C   UNL     1     -42.561  58.450 -51.773  1.00  0.00     0.008 A 
HETATM   14  C   UNL     1     -41.281  58.964 -52.005  1.00  0.00    -0.062 A 
HETATM   15  C   UNL     1     -40.230  58.933 -50.936  1.00  0.00     0.048 C 
HETATM   16  C   UNL     1     -40.978  59.484 -53.268  1.00  0.00     0.008 A 
HETATM   17  C   UNL     1     -41.943  59.503 -54.278  1.00  0.00     0.019 A 
ENDBRANCH  10  11
ENDBRANCH   9  10
ENDBRANCH   6   9
ENDBRANCH   1   5
BRANCH   2  18
HETATM   18  C   UNL     1     -40.469  53.723 -53.987  1.00  0.00     0.103 A 
HETATM   19  N   UNL     1     -40.263  53.461 -52.649  1.00  0.00    -0.351 N 
HETATM   20  H   UNL     1     -40.309  54.168 -51.926  1.00  0.00     0.166 HD
HETATM   21  C   UNL     1     -40.004  52.128 -52.439  1.00  0.00     0.043 A 
HETATM   22  C   UNL     1     -40.028  51.508 -53.685  1.00  0.00    -0.007 A 
HETATM   23  C   UNL     1     -39.752  51.430 -51.251  1.00  0.00     0.030 A 
HETATM   24  C   UNL     1     -40.317  52.515 -54.648  1.00  0.00     0.049 A 
HETATM   25  C   UNL     1     -39.789  50.122 -53.759  1.00  0.00     0.014 A 
HETATM   26  C   UNL     1     -39.536  49.408 -52.582  1.00  0.00     0.001 A 
HETATM   27  C   UNL     1     -39.518  50.055 -51.348  1.00  0.00     0.002 A 
ENDBRANCH   2  18
TORSDOF 5
ENDMDL
MODEL 5
REMARK VINA RESULT:      -7.9      4.627      5.633
REMARK  5 active torsions:
REMARK  status: ('A' for Active; 'I' for Inactive)
REMARK    1  A    between atoms: C_5  and  S_6 
REMARK    2  A    between atoms: S_6  and  C_7 
REMARK    3  A    between atoms: C_7  and  C_8 
REMARK       I    between atoms: C_8  and  N_9 
REMARK    4  A    between atoms: N_9  and  N_10 
REMARK       I    between atoms: N_10  and  C_11 
REMARK    5  A    between atoms: C_11  and  C_12 
ROOT
HETATM    1  N   UNL     1     -42.918  55.227 -53.036  1.00  0.00    -0.262 N 
HETATM    2  C   UNL     1     -41.668  55.067 -53.593  1.00  0.00     0.286 C 
HETATM    3  O   UNL     1     -41.073  55.997 -54.138  1.00  0.00    -0.264 OA
HETATM    4  H   UNL     1     -43.395  54.495 -52.516  1.00  0.00     0.190 HD
ENDROOT
BRANCH   1   5
HETATM    5  N   UNL     1     -43.489  56.503 -52.978  1.00  0.00    -0.267 N 
HETATM    6  C   UNL     1     -43.908  56.963 -51.746  1.00  0.00     0.245 C 
HETATM    7  O   UNL     1     -43.675  56.348 -50.704  1.00  0.00    -0.271 OA
HETATM    8  H   UNL     1     -43.846  56.892 -53.852  1.00  0.00     0.190 HD
BRANCH   6   9
HETATM    9  C   UNL     1     -44.573  58.325 -51.753  1.00  0.00     0.184 C 
BRANCH   9  10
HETATM   10  S   UNL     1     -43.679  59.488 -52.836  1.00  0.00    -0.121 SA
BRANCH  10  11
HETATM   11  C   UNL     1     -42.074  59.448 -52.058  1.00  0.00     0.001 A 
HETATM   12  C   UNL     1     -40.954  59.094 -52.816  1.00  0.00     0.019 A 
HETATM   13  C   UNL     1     -39.684  59.068 -52.233  1.00  0.00     0.008 A 
HETATM   14  C   UNL     1     -39.515  59.397 -50.884  1.00  0.00    -0.062 A 
HETATM   15  C   UNL     1     -38.156  59.388 -50.249  1.00  0.00     0.048 C 
HETATM   16  C   UNL     1     -40.635  59.770 -50.132  1.00  0.00     0.008 A 
HETATM   17  C   UNL     1     -41.904  59.800 -50.716  1.00  0.00     0.019 A 
ENDBRANCH  10  11
ENDBRANCH   9  10
ENDBRANCH   6   9
ENDBRANCH   1   5
BRANCH   2  18
HETATM   18  C   UNL     1     -41.105  53.741 -53.483  1.00  0.00     0.103 A 
HETATM   19  N   UNL     1     -40.671  53.242 -52.272  1.00  0.00    -0.351 N 
HETATM   20  H   UNL     1     -40.711  53.763 -51.406  1.00  0.00     0.166 HD
HETATM   21  C   UNL     1     -40.198  51.960 -52.405  1.00  0.00     0.043 A 
HETATM   22  C   UNL     1     -40.316  51.620 -53.750  1.00  0.00    -0.007 A 
HETATM   23  C   UNL     1     -39.680  51.081 -51.446  1.00  0.00     0.030 A 
HETATM   24  C   UNL     1     -40.881  52.742 -54.417  1.00  0.00     0.049 A 
HETATM   25  C   UNL     1     -39.896  50.342 -54.168  1.00  0.00     0.014 A 
HETATM   26  C   UNL     1     -39.376  49.451 -53.223  1.00  0.00     0.001 A 
HETATM   27  C   UNL     1     -39.270  49.817 -51.883  1.00  0.00     0.002 A 
ENDBRANCH   2  18
TORSDOF 5
ENDMDL
MODEL 6
REMARK VINA RESULT:      -7.8      2.869      9.354
REMARK  5 active torsions:
REMARK  status: ('A' for Active; 'I' for Inactive)
REMARK    1  A    between atoms: C_5  and  S_6 
REMARK    2  A    between atoms: S_6  and  C_7 
REMARK    3  A    between atoms: C_7  and  C_8 
REMARK       I    between atoms: C_8  and  N_9 
REMARK    4  A    between atoms: N_9  and  N_10 
REMARK       I    between atoms: N_10  and  C_11 
REMARK    5  A    between atoms: C_11  and  C_12 
ROOT
HETATM    1  N   UNL     1     -43.939  56.210 -54.952  1.00  0.00    -0.262 N 
HETATM    2  C   UNL     1     -43.184  55.929 -56.071  1.00  0.00     0.286 C 
HETATM    3  O   UNL     1     -42.348  55.026 -56.083  1.00  0.00    -0.264 OA
HETATM    4  H   UNL     1     -44.686  56.900 -54.943  1.00  0.00     0.190 HD
ENDROOT
BRANCH   1   5
HETATM    5  N   UNL     1     -43.848  55.378 -53.832  1.00  0.00    -0.267 N 
HETATM    6  C   UNL     1     -43.096  55.820 -52.762  1.00  0.00     0.245 C 
HETATM    7  O   UNL     1     -42.628  56.959 -52.719  1.00  0.00    -0.271 OA
HETATM    8  H   UNL     1     -44.064  54.390 -53.970  1.00  0.00     0.190 HD
BRANCH   6   9
HETATM    9  C   UNL     1     -42.982  54.850 -51.603  1.00  0.00     0.184 C 
BRANCH   9  10
HETATM   10  S   UNL     1     -41.258  54.713 -51.028  1.00  0.00    -0.121 SA
BRANCH  10  11
HETATM   11  C   UNL     1     -40.705  53.362 -52.054  1.00  0.00     0.001 A 
HETATM   12  C   UNL     1     -40.022  52.293 -51.469  1.00  0.00     0.019 A 
HETATM   13  C   UNL     1     -39.590  51.216 -52.249  1.00  0.00     0.008 A 
HETATM   14  C   UNL     1     -39.837  51.193 -53.625  1.00  0.00    -0.062 A 
HETATM   15  C   UNL     1     -39.393  50.038 -54.472  1.00  0.00     0.048 C 
HETATM   16  C   UNL     1     -40.538  52.256 -54.206  1.00  0.00     0.008 A 
HETATM   17  C   UNL     1     -40.973  53.330 -53.425  1.00  0.00     0.019 A 
ENDBRANCH  10  11
ENDBRANCH   9  10
ENDBRANCH   6   9
ENDBRANCH   1   5
BRANCH   2  18
HETATM   18  C   UNL     1     -43.450  56.761 -57.223  1.00  0.00     0.103 A 
HETATM   19  N   UNL     1     -44.728  57.176 -57.530  1.00  0.00    -0.351 N 
HETATM   20  H   UNL     1     -45.544  56.925 -56.987  1.00  0.00     0.166 HD
HETATM   21  C   UNL     1     -44.735  57.971 -58.650  1.00  0.00     0.043 A 
HETATM   22  C   UNL     1     -43.418  58.064 -59.091  1.00  0.00    -0.007 A 
HETATM   23  C   UNL     1     -45.797  58.612 -59.300  1.00  0.00     0.030 A 
HETATM   24  C   UNL     1     -42.621  57.300 -58.194  1.00  0.00     0.049 A 
HETATM   25  C   UNL     1     -43.138  58.830 -60.239  1.00  0.00     0.014 A 
HETATM   26  C   UNL     1     -44.187  59.478 -60.902  1.00  0.00     0.001 A 
HETATM   27  C   UNL     1     -45.497  59.368 -60.437  1.00  0.00     0.002 A 
ENDBRANCH   2  18
TORSDOF 5
ENDMDL
MODEL 7
REMARK VINA RESULT:      -7.7      7.331     10.358
REMARK  5 active torsions:
REMARK  status: ('A' for Active; 'I' for Inactive)
REMARK    1  A    between atoms: C_5  and  S_6 
REMARK    2  A    between atoms: S_6  and  C_7 
REMARK    3  A    between atoms: C_7  and  C_8 
REMARK       I    between atoms: C_8  and  N_9 
REMARK    4  A    between atoms: N_9  and  N_10 
REMARK       I    between atoms: N_10  and  C_11 
REMARK    5  A    between atoms: C_11  and  C_12 
ROOT
HETATM    1  N   UNL     1     -43.224  59.333 -50.581  1.00  0.00    -0.262 N 
HETATM    2  C   UNL     1     -43.678  60.611 -50.827  1.00  0.00     0.286 C 
HETATM    3  O   UNL     1     -43.732  61.076 -51.965  1.00  0.00    -0.264 OA
HETATM    4  H   UNL     1     -43.241  58.903 -49.661  1.00  0.00     0.190 HD
ENDROOT
BRANCH   1   5
HETATM    5  N   UNL     1     -42.924  58.489 -51.656  1.00  0.00    -0.267 N 
HETATM    6  C   UNL     1     -43.663  57.331 -51.789  1.00  0.00     0.245 C 
HETATM    7  O   UNL     1     -44.643  57.096 -51.081  1.00  0.00    -0.271 OA
HETATM    8  H   UNL     1     -42.007  58.600 -52.090  1.00  0.00     0.190 HD
BRANCH   6   9
HETATM    9  C   UNL     1     -43.253  56.427 -52.935  1.00  0.00     0.184 C 
BRANCH   9  10
HETATM   10  S   UNL     1     -41.523  56.730 -53.424  1.00  0.00    -0.121 SA
BRANCH  10  11
HETATM   11  C   UNL     1     -40.957  55.045 -53.584  1.00  0.00     0.001 A 
HETATM   12  C   UNL     1     -40.912  54.228 -52.451  1.00  0.00     0.019 A 
HETATM   13  C   UNL     1     -40.485  52.900 -52.553  1.00  0.00     0.008 A 
HETATM   14  C   UNL     1     -40.098  52.371 -53.788  1.00  0.00    -0.062 A 
HETATM   15  C   UNL     1     -39.652  50.945 -53.915  1.00  0.00     0.048 C 
HETATM   16  C   UNL     1     -40.162  53.187 -54.924  1.00  0.00     0.008 A 
HETATM   17  C   UNL     1     -40.593  54.512 -54.823  1.00  0.00     0.019 A 
ENDBRANCH  10  11
ENDBRANCH   9  10
ENDBRANCH   6   9
ENDBRANCH   1   5
BRANCH   2  18
HETATM   18  C   UNL     1     -44.092  61.356 -49.661  1.00  0.00     0.103 A 
HETATM   19  N   UNL     1     -44.383  60.725 -48.470  1.00  0.00    -0.351 N 
HETATM   20  H   UNL     1     -44.333  59.723 -48.341  1.00  0.00     0.166 HD
HETATM   21  C   UNL     1     -44.731  61.633 -47.499  1.00  0.00     0.043 A 
HETATM   22  C   UNL     1     -44.678  62.894 -48.085  1.00  0.00    -0.007 A 
HETATM   23  C   UNL     1     -45.085  61.436 -46.159  1.00  0.00     0.030 A 
HETATM   24  C   UNL     1     -44.281  62.711 -49.439  1.00  0.00     0.049 A 
HETATM   25  C   UNL     1     -44.995  64.021 -47.302  1.00  0.00     0.014 A 
HETATM   26  C   UNL     1     -45.351  63.843 -45.960  1.00  0.00     0.001 A 
HETATM   27  C   UNL     1     -45.395  62.568 -45.400  1.00  0.00     0.002 A 
ENDBRANCH   2  18
TORSDOF 5
ENDMDL
MODEL 8
REMARK VINA RESULT:      -7.7      2.292      3.111
REMARK  5 active torsions:
REMARK  status: ('A' for Active; 'I' for Inactive)
REMARK    1  A    between atoms: C_5  and  S_6 
REMARK    2  A    between atoms: S_6  and  C_7 
REMARK    3  A    between atoms: C_7  and  C_8 
REMARK       I    between atoms: C_8  and  N_9 
REMARK    4  A    between atoms: N_9  and  N_10 
REMARK       I    between atoms: N_10  and  C_11 
REMARK    5  A    between atoms: C_11  and  C_12 
ROOT
HETATM    1  N   UNL     1     -40.967  56.126 -53.305  1.00  0.00    -0.262 N 
HETATM    2  C   UNL     1     -41.010  55.166 -54.292  1.00  0.00     0.286 C 
HETATM    3  O   UNL     1     -41.335  55.434 -55.449  1.00  0.00    -0.264 OA
HETATM    4  H   UNL     1     -40.630  55.943 -52.363  1.00  0.00     0.190 HD
ENDROOT
BRANCH   1   5
HETATM    5  N   UNL     1     -41.180  57.468 -53.638  1.00  0.00    -0.267 N 
HETATM    6  C   UNL     1     -42.431  57.999 -53.397  1.00  0.00     0.245 C 
HETATM    7  O   UNL     1     -43.300  57.374 -52.786  1.00  0.00    -0.271 OA
HETATM    8  H   UNL     1     -40.534  57.887 -54.308  1.00  0.00     0.190 HD
BRANCH   6   9
HETATM    9  C   UNL     1     -42.622  59.437 -53.836  1.00  0.00     0.184 C 
BRANCH   9  10
HETATM   10  S   UNL     1     -44.110  59.616 -54.874  1.00  0.00    -0.121 SA
BRANCH  10  11
HETATM   11  C   UNL     1     -43.535  58.818 -56.362  1.00  0.00     0.001 A 
HETATM   12  C   UNL     1     -42.422  59.335 -57.031  1.00  0.00     0.019 A 
HETATM   13  C   UNL     1     -41.945  58.721 -58.192  1.00  0.00     0.008 A 
HETATM   14  C   UNL     1     -42.572  57.579 -58.700  1.00  0.00    -0.062 A 
HETATM   15  C   UNL     1     -42.061  56.900 -59.936  1.00  0.00     0.048 C 
HETATM   16  C   UNL     1     -43.674  57.051 -58.018  1.00  0.00     0.008 A 
HETATM   17  C   UNL     1     -44.149  57.664 -56.856  1.00  0.00     0.019 A 
ENDBRANCH  10  11
ENDBRANCH   9  10
ENDBRANCH   6   9
ENDBRANCH   1   5
BRANCH   2  18
HETATM   18  C   UNL     1     -40.640  53.832 -53.876  1.00  0.00     0.103 A 
HETATM   19  N   UNL     1     -40.405  53.532 -52.551  1.00  0.00    -0.351 N 
HETATM   20  H   UNL     1     -40.466  54.211 -51.804  1.00  0.00     0.166 HD
HETATM   21  C   UNL     1     -40.091  52.204 -52.392  1.00  0.00     0.043 A 
HETATM   22  C   UNL     1     -40.112  51.627 -53.659  1.00  0.00    -0.007 A 
HETATM   23  C   UNL     1     -39.795  51.475 -51.234  1.00  0.00     0.030 A 
HETATM   24  C   UNL     1     -40.453  52.654 -54.582  1.00  0.00     0.049 A 
HETATM   25  C   UNL     1     -39.821  50.254 -53.785  1.00  0.00     0.014 A 
HETATM   26  C   UNL     1     -39.523  49.510 -52.638  1.00  0.00     0.001 A 
HETATM   27  C   UNL     1     -39.511  50.114 -51.382  1.00  0.00     0.002 A 
ENDBRANCH   2  18
TORSDOF 5
ENDMDL
MODEL 9
REMARK VINA RESULT:      -7.6      6.013      7.249
REMARK  5 active torsions:
REMARK  status: ('A' for Active; 'I' for Inactive)
REMARK    1  A    between atoms: C_5  and  S_6 
REMARK    2  A    between atoms: S_6  and  C_7 
REMARK    3  A    between atoms: C_7  and  C_8 
REMARK       I    between atoms: C_8  and  N_9 
REMARK    4  A    between atoms: N_9  and  N_10 
REMARK       I    between atoms: N_10  and  C_11 
REMARK    5  A    between atoms: C_11  and  C_12 
ROOT
HETATM    1  N   UNL     1     -41.240  56.232 -51.312  1.00  0.00    -0.262 N 
HETATM    2  C   UNL     1     -40.890  55.137 -50.551  1.00  0.00     0.286 C 
HETATM    3  O   UNL     1     -40.839  55.186 -49.323  1.00  0.00    -0.264 OA
HETATM    4  H   UNL     1     -41.362  56.195 -52.320  1.00  0.00     0.190 HD
ENDROOT
BRANCH   1   5
HETATM    5  N   UNL     1     -41.665  57.405 -50.677  1.00  0.00    -0.267 N 
HETATM    6  C   UNL     1     -41.382  58.607 -51.293  1.00  0.00     0.245 C 
HETATM    7  O   UNL     1     -40.897  58.665 -52.424  1.00  0.00    -0.271 OA
HETATM    8  H   UNL     1     -41.873  57.342 -49.680  1.00  0.00     0.190 HD
BRANCH   6   9
HETATM    9  C   UNL     1     -41.812  59.844 -50.529  1.00  0.00     0.184 C 
BRANCH   9  10
HETATM   10  S   UNL     1     -43.112  60.753 -51.428  1.00  0.00    -0.121 SA
BRANCH  10  11
HETATM   11  C   UNL     1     -43.606  61.904 -50.158  1.00  0.00     0.001 A 
HETATM   12  C   UNL     1     -43.208  63.241 -50.253  1.00  0.00     0.019 A 
HETATM   13  C   UNL     1     -43.593  64.165 -49.278  1.00  0.00     0.008 A 
HETATM   14  C   UNL     1     -44.383  63.768 -48.195  1.00  0.00    -0.062 A 
HETATM   15  C   UNL     1     -44.816  64.752 -47.150  1.00  0.00     0.048 C 
HETATM   16  C   UNL     1     -44.797  62.433 -48.112  1.00  0.00     0.008 A 
HETATM   17  C   UNL     1     -44.415  61.510 -49.089  1.00  0.00     0.019 A 
ENDBRANCH  10  11
ENDBRANCH   9  10
ENDBRANCH   6   9
ENDBRANCH   1   5
BRANCH   2  18
HETATM   18  C   UNL     1     -40.600  53.933 -51.296  1.00  0.00     0.103 A 
HETATM   19  N   UNL     1     -40.176  52.783 -50.666  1.00  0.00    -0.351 N 
HETATM   20  H   UNL     1     -40.036  52.711 -49.666  1.00  0.00     0.166 HD
HETATM   21  C   UNL     1     -39.984  51.765 -51.568  1.00  0.00     0.043 A 
HETATM   22  C   UNL     1     -40.282  52.277 -52.828  1.00  0.00    -0.007 A 
HETATM   23  C   UNL     1     -39.575  50.441 -51.368  1.00  0.00     0.030 A 
HETATM   24  C   UNL     1     -40.663  53.636 -52.648  1.00  0.00     0.049 A 
HETATM   25  C   UNL     1     -40.165  51.433 -53.949  1.00  0.00     0.014 A 
HETATM   26  C   UNL     1     -39.758  50.106 -53.768  1.00  0.00     0.001 A 
HETATM   27  C   UNL     1     -39.467  49.620 -52.495  1.00  0.00     0.002 A 
ENDBRANCH   2  18
TORSDOF 5
ENDMDL
MODEL 10
REMARK VINA RESULT:      -7.5      3.813     10.142
REMARK  5 active torsions:
REMARK  status: ('A' for Active; 'I' for Inactive)
REMARK    1  A    between atoms: C_5  and  S_6 
REMARK    2  A    between atoms: S_6  and  C_7 
REMARK    3  A    between atoms: C_7  and  C_8 
REMARK       I    between atoms: C_8  and  N_9 
REMARK    4  A    between atoms: N_9  and  N_10 
REMARK       I    between atoms: N_10  and  C_11 
REMARK    5  A    between atoms: C_11  and  C_12 
ROOT
HETATM    1  N   UNL     1     -44.096  56.474 -57.257  1.00  0.00    -0.262 N 
HETATM    2  C   UNL     1     -44.012  56.103 -58.582  1.00  0.00     0.286 C 
HETATM    3  O   UNL     1     -43.060  55.456 -59.019  1.00  0.00    -0.264 OA
HETATM    4  H   UNL     1     -44.906  56.942 -56.860  1.00  0.00     0.190 HD
ENDROOT
BRANCH   1   5
HETATM    5  N   UNL     1     -43.139  56.008 -56.349  1.00  0.00    -0.267 N 
HETATM    6  C   UNL     1     -43.425  56.118 -55.003  1.00  0.00     0.245 C 
HETATM    7  O   UNL     1     -44.529  56.482 -54.596  1.00  0.00    -0.271 OA
HETATM    8  H   UNL     1     -42.184  55.906 -56.694  1.00  0.00     0.190 HD
BRANCH   6   9
HETATM    9  C   UNL     1     -42.326  55.654 -54.067  1.00  0.00     0.184 C 
BRANCH   9  10
HETATM   10  S   UNL     1     -40.960  54.878 -54.990  1.00  0.00    -0.121 SA
BRANCH  10  11
HETATM   11  C   UNL     1     -40.533  53.571 -53.853  1.00  0.00     0.001 A 
HETATM   12  C   UNL     1     -40.132  52.330 -54.356  1.00  0.00     0.019 A 
HETATM   13  C   UNL     1     -39.780  51.294 -53.486  1.00  0.00     0.008 A 
HETATM   14  C   UNL     1     -39.822  51.485 -52.101  1.00  0.00    -0.062 A 
HETATM   15  C   UNL     1     -39.433  50.387 -51.156  1.00  0.00     0.048 C 
HETATM   16  C   UNL     1     -40.206  52.734 -51.600  1.00  0.00     0.008 A 
HETATM   17  C   UNL     1     -40.554  53.771 -52.470  1.00  0.00     0.019 A 
ENDBRANCH  10  11
ENDBRANCH   9  10
ENDBRANCH   6   9
ENDBRANCH   1   5
BRANCH   2  18
HETATM   18  C   UNL     1     -45.119  56.517 -59.413  1.00  0.00     0.103 A 
HETATM   19  N   UNL     1     -45.520  57.835 -59.473  1.00  0.00    -0.351 N 
HETATM   20  H   UNL     1     -45.080  58.578 -58.945  1.00  0.00     0.166 HD
HETATM   21  C   UNL     1     -46.572  57.994 -60.341  1.00  0.00     0.043 A 
HETATM   22  C   UNL     1     -46.872  56.734 -60.851  1.00  0.00    -0.007 A 
HETATM   23  C   UNL     1     -47.275  59.147 -60.711  1.00  0.00     0.030 A 
HETATM   24  C   UNL     1     -45.960  55.816 -60.263  1.00  0.00     0.049 A 
HETATM   25  C   UNL     1     -47.927  56.610 -61.777  1.00  0.00     0.014 A 
HETATM   26  C   UNL     1     -48.640  57.752 -62.159  1.00  0.00     0.001 A 
HETATM   27  C   UNL     1     -48.317  59.001 -61.632  1.00  0.00     0.002 A 
ENDBRANCH   2  18
TORSDOF 5
ENDMDL
