MODEL 1
REMARK VINA RESULT:      -8.4      0.000      0.000
REMARK  8 active torsions:
REMARK  status: ('A' for Active; 'I' for Inactive)
REMARK    1  A    between atoms: O_2  and  C_3 
REMARK    2  A    between atoms: C_4  and  O_5 
REMARK    3  A    between atoms: C_8  and  C_9 
REMARK    4  A    between atoms: C_13  and  C_14 
REMARK       I    between atoms: C_14  and  N_15 
REMARK    5  A    between atoms: N_15  and  C_16 
REMARK    6  A    between atoms: C_20  and  C_21 
REMARK    7  A    between atoms: C_21  and  C_22 
REMARK    8  A    between atoms: C_22  and  C_23 
ROOT
HETATM    1  C   UNL     1     -43.122  56.981 -56.965  1.00  0.00     0.290 C 
HETATM    2  N   UNL     1     -42.017  57.147 -57.769  1.00  0.00    -0.149 N 
HETATM    3  O   UNL     1     -44.225  57.482 -57.161  1.00  0.00    -0.265 OA
HETATM    4  H   UNL     1     -41.107  56.835 -57.481  1.00  0.00     0.188 HD
ENDROOT
BRANCH   1   5
HETATM    5  C   UNL     1     -42.868  56.115 -55.786  1.00  0.00     0.147 A 
HETATM    6  N   UNL     1     -43.831  55.864 -54.882  1.00  0.00    -0.169 NA
HETATM    7  N   UNL     1     -43.281  55.000 -54.023  1.00  0.00    -0.277 N 
HETATM    8  C   UNL     1     -41.975  54.684 -54.289  1.00  0.00     0.063 A 
HETATM    9  H   UNL     1     -43.870  54.637 -53.282  1.00  0.00     0.189 HD
HETATM   10  C   UNL     1     -41.681  55.407 -55.433  1.00  0.00     0.071 A 
BRANCH   8  11
HETATM   11  C   UNL     1     -41.195  53.718 -53.511  1.00  0.00    -0.005 A 
HETATM   12  C   UNL     1     -41.043  53.848 -52.120  1.00  0.00     0.053 A 
HETATM   13  C   UNL     1     -40.339  52.892 -51.374  1.00  0.00     0.102 A 
HETATM   14  C   UNL     1     -39.771  51.785 -52.027  1.00  0.00     0.101 A 
HETATM   15  C   UNL     1     -39.886  51.667 -53.414  1.00  0.00     0.040 A 
HETATM   16  C   UNL     1     -40.596  52.623 -54.146  1.00  0.00     0.017 A 
BRANCH  13  17
HETATM   17  O   UNL     1     -40.162  52.941 -50.013  1.00  0.00    -0.353 OA
HETATM   18  C   UNL     1     -39.700  54.157 -49.445  1.00  0.00     0.210 C 
ENDBRANCH  13  17
BRANCH  14  19
HETATM   19  O   UNL     1     -39.091  50.886 -51.241  1.00  0.00    -0.353 OA
HETATM   20  C   UNL     1     -39.697  49.610 -51.077  1.00  0.00     0.210 C 
ENDBRANCH  14  19
ENDBRANCH   8  11
ENDBRANCH   1   5
BRANCH   2  21
HETATM   21  C   UNL     1     -42.023  57.759 -58.987  1.00  0.00     0.747 A 
HETATM   22  N   UNL     1     -42.030  57.191 -60.191  1.00  0.00     0.020 NA
HETATM   23  N   UNL     1     -41.975  58.247 -61.005  1.00  0.00    -0.248 N 
HETATM   24  H   UNL     1     -41.959  58.098 -62.008  1.00  0.00     0.191 HD
HETATM   25  C   UNL     1     -41.944  59.416 -60.299  1.00  0.00     0.140 A 
HETATM   26  N   UNL     1     -41.964  59.128 -59.013  1.00  0.00    -0.046 NA
BRANCH  25  27
HETATM   27  C   UNL     1     -41.852  60.756 -60.939  1.00  0.00     0.085 C 
BRANCH  27  28
HETATM   28  C   UNL     1     -41.590  61.870 -59.922  1.00  0.00     0.046 C 
BRANCH  28  29
HETATM   29  C   UNL     1     -40.389  62.703 -60.293  1.00  0.00    -0.058 A 
HETATM   30  C   UNL     1     -40.012  62.851 -61.636  1.00  0.00     0.007 A 
HETATM   31  C   UNL     1     -38.893  63.612 -61.976  1.00  0.00     0.001 A 
HETATM   32  C   UNL     1     -38.141  64.232 -60.981  1.00  0.00     0.000 A 
HETATM   33  C   UNL     1     -38.507  64.091 -59.643  1.00  0.00     0.001 A 
HETATM   34  C   UNL     1     -39.623  63.327 -59.300  1.00  0.00     0.007 A 
ENDBRANCH  28  29
ENDBRANCH  27  28
ENDBRANCH  25  27
ENDBRANCH   2  21
TORSDOF 8
ENDMDL
MODEL 2
REMARK VINA RESULT:      -8.4      6.634     10.559
REMARK  8 active torsions:
REMARK  status: ('A' for Active; 'I' for Inactive)
REMARK    1  A    between atoms: O_2  and  C_3 
REMARK    2  A    between atoms: C_4  and  O_5 
REMARK    3  A    between atoms: C_8  and  C_9 
REMARK    4  A    between atoms: C_13  and  C_14 
REMARK       I    between atoms: C_14  and  N_15 
REMARK    5  A    between atoms: N_15  and  C_16 
REMARK    6  A    between atoms: C_20  and  C_21 
REMARK    7  A    between atoms: C_21  and  C_22 
REMARK    8  A    between atoms: C_22  and  C_23 
ROOT
HETATM    1  C   UNL     1     -41.724  59.369 -53.242  1.00  0.00     0.290 C 
HETATM    2  N   UNL     1     -42.406  58.191 -53.448  1.00  0.00    -0.149 N 
HETATM    3  O   UNL     1     -40.596  59.619 -53.655  1.00  0.00    -0.265 OA
HETATM    4  H   UNL     1     -43.262  57.988 -52.963  1.00  0.00     0.188 HD
ENDROOT
BRANCH   1   5
HETATM    5  C   UNL     1     -42.486  60.359 -52.438  1.00  0.00     0.147 A 
HETATM    6  N   UNL     1     -43.016  61.458 -53.002  1.00  0.00    -0.169 NA
HETATM    7  N   UNL     1     -43.688  62.062 -52.017  1.00  0.00    -0.277 N 
HETATM    8  C   UNL     1     -43.606  61.434 -50.802  1.00  0.00     0.063 A 
HETATM    9  H   UNL     1     -44.213  62.897 -52.250  1.00  0.00     0.189 HD
HETATM   10  C   UNL     1     -42.819  60.322 -51.051  1.00  0.00     0.071 A 
BRANCH   8  11
HETATM   11  C   UNL     1     -44.307  61.890 -49.598  1.00  0.00    -0.005 A 
HETATM   12  C   UNL     1     -45.250  61.076 -48.948  1.00  0.00     0.053 A 
HETATM   13  C   UNL     1     -45.880  61.498 -47.767  1.00  0.00     0.102 A 
HETATM   14  C   UNL     1     -45.566  62.757 -47.226  1.00  0.00     0.101 A 
HETATM   15  C   UNL     1     -44.657  63.585 -47.886  1.00  0.00     0.040 A 
HETATM   16  C   UNL     1     -44.031  63.152 -49.059  1.00  0.00     0.017 A 
BRANCH  13  17
HETATM   17  O   UNL     1     -46.798  60.756 -47.066  1.00  0.00    -0.353 OA
HETATM   18  C   UNL     1     -46.311  59.763 -46.175  1.00  0.00     0.210 C 
ENDBRANCH  13  17
BRANCH  14  19
HETATM   19  O   UNL     1     -46.219  63.111 -46.070  1.00  0.00    -0.353 OA
HETATM   20  C   UNL     1     -45.416  63.680 -45.043  1.00  0.00     0.210 C 
ENDBRANCH  14  19
ENDBRANCH   8  11
ENDBRANCH   1   5
BRANCH   2  21
HETATM   21  C   UNL     1     -41.999  57.190 -54.278  1.00  0.00     0.747 A 
HETATM   22  N   UNL     1     -42.441  56.907 -55.501  1.00  0.00     0.020 NA
HETATM   23  N   UNL     1     -41.744  55.811 -55.810  1.00  0.00    -0.248 N 
HETATM   24  H   UNL     1     -41.894  55.367 -56.709  1.00  0.00     0.191 HD
HETATM   25  C   UNL     1     -40.903  55.457 -54.794  1.00  0.00     0.140 A 
HETATM   26  N   UNL     1     -41.056  56.315 -53.806  1.00  0.00    -0.046 NA
BRANCH  25  27
HETATM   27  C   UNL     1     -40.022  54.259 -54.843  1.00  0.00     0.085 C 
BRANCH  27  28
HETATM   28  C   UNL     1     -40.818  52.951 -54.830  1.00  0.00     0.046 C 
BRANCH  28  29
HETATM   29  C   UNL     1     -40.330  52.002 -53.764  1.00  0.00    -0.058 A 
HETATM   30  C   UNL     1     -40.084  50.655 -54.068  1.00  0.00     0.007 A 
HETATM   31  C   UNL     1     -39.644  49.775 -53.077  1.00  0.00     0.001 A 
HETATM   32  C   UNL     1     -39.446  50.232 -51.776  1.00  0.00     0.000 A 
HETATM   33  C   UNL     1     -39.689  51.569 -51.464  1.00  0.00     0.001 A 
HETATM   34  C   UNL     1     -40.132  52.449 -52.452  1.00  0.00     0.007 A 
ENDBRANCH  28  29
ENDBRANCH  27  28
ENDBRANCH  25  27
ENDBRANCH   2  21
TORSDOF 8
ENDMDL
MODEL 3
REMARK VINA RESULT:      -8.2      1.005      2.114
REMARK  8 active torsions:
REMARK  status: ('A' for Active; 'I' for Inactive)
REMARK    1  A    between atoms: O_2  and  C_3 
REMARK    2  A    between atoms: C_4  and  O_5 
REMARK    3  A    between atoms: C_8  and  C_9 
REMARK    4  A    between atoms: C_13  and  C_14 
REMARK       I    between atoms: C_14  and  N_15 
REMARK    5  A    between atoms: N_15  and  C_16 
REMARK    6  A    between atoms: C_20  and  C_21 
REMARK    7  A    between atoms: C_21  and  C_22 
REMARK    8  A    between atoms: C_22  and  C_23 
ROOT
HETATM    1  C   UNL     1     -43.581  57.051 -56.475  1.00  0.00     0.290 C 
HETATM    2  N   UNL     1     -42.728  56.905 -57.547  1.00  0.00    -0.149 N 
HETATM    3  O   UNL     1     -44.546  57.808 -56.432  1.00  0.00    -0.265 OA
HETATM    4  H   UNL     1     -41.873  56.383 -57.470  1.00  0.00     0.188 HD
ENDROOT
BRANCH   1   5
HETATM    5  C   UNL     1     -43.225  56.190 -55.319  1.00  0.00     0.147 A 
HETATM    6  N   UNL     1     -44.052  56.054 -54.268  1.00  0.00    -0.169 NA
HETATM    7  N   UNL     1     -43.457  55.158 -53.473  1.00  0.00    -0.277 N 
HETATM    8  C   UNL     1     -42.246  54.708 -53.928  1.00  0.00     0.063 A 
HETATM    9  H   UNL     1     -43.953  54.871 -52.637  1.00  0.00     0.189 HD
HETATM   10  C   UNL     1     -42.070  55.374 -55.129  1.00  0.00     0.071 A 
BRANCH   8  11
HETATM   11  C   UNL     1     -41.447  53.686 -53.247  1.00  0.00    -0.005 A 
HETATM   12  C   UNL     1     -40.719  52.724 -53.967  1.00  0.00     0.053 A 
HETATM   13  C   UNL     1     -39.915  51.781 -53.310  1.00  0.00     0.102 A 
HETATM   14  C   UNL     1     -39.837  51.794 -51.907  1.00  0.00     0.101 A 
HETATM   15  C   UNL     1     -40.585  52.725 -51.183  1.00  0.00     0.040 A 
HETATM   16  C   UNL     1     -41.378  53.664 -51.849  1.00  0.00     0.017 A 
BRANCH  13  17
HETATM   17  O   UNL     1     -39.164  50.821 -53.943  1.00  0.00    -0.353 OA
HETATM   18  C   UNL     1     -39.849  49.787 -54.633  1.00  0.00     0.210 C 
ENDBRANCH  13  17
BRANCH  14  19
HETATM   19  O   UNL     1     -39.035  50.843 -51.324  1.00  0.00    -0.353 OA
HETATM   20  C   UNL     1     -39.702  49.802 -50.622  1.00  0.00     0.210 C 
ENDBRANCH  14  19
ENDBRANCH   8  11
ENDBRANCH   1   5
BRANCH   2  21
HETATM   21  C   UNL     1     -42.922  57.457 -58.778  1.00  0.00     0.747 A 
HETATM   22  N   UNL     1     -43.848  57.145 -59.681  1.00  0.00     0.020 NA
HETATM   23  N   UNL     1     -43.535  57.948 -60.700  1.00  0.00    -0.248 N 
HETATM   24  H   UNL     1     -44.091  57.909 -61.548  1.00  0.00     0.191 HD
HETATM   25  C   UNL     1     -42.451  58.724 -60.404  1.00  0.00     0.140 A 
HETATM   26  N   UNL     1     -42.039  58.422 -59.190  1.00  0.00    -0.046 NA
BRANCH  25  27
HETATM   27  C   UNL     1     -41.855  59.695 -61.362  1.00  0.00     0.085 C 
BRANCH  27  28
HETATM   28  C   UNL     1     -42.298  61.134 -61.082  1.00  0.00     0.046 C 
BRANCH  28  29
HETATM   29  C   UNL     1     -41.162  61.985 -60.570  1.00  0.00    -0.058 A 
HETATM   30  C   UNL     1     -40.913  62.087 -59.194  1.00  0.00     0.007 A 
HETATM   31  C   UNL     1     -39.870  62.886 -58.722  1.00  0.00     0.001 A 
HETATM   32  C   UNL     1     -39.067  63.587 -59.619  1.00  0.00     0.000 A 
HETATM   33  C   UNL     1     -39.307  63.493 -60.988  1.00  0.00     0.001 A 
HETATM   34  C   UNL     1     -40.352  62.699 -61.463  1.00  0.00     0.007 A 
ENDBRANCH  28  29
ENDBRANCH  27  28
ENDBRANCH  25  27
ENDBRANCH   2  21
TORSDOF 8
ENDMDL
MODEL 4
REMARK VINA RESULT:      -8.0      6.663      9.536
REMARK  8 active torsions:
REMARK  status: ('A' for Active; 'I' for Inactive)
REMARK    1  A    between atoms: O_2  and  C_3 
REMARK    2  A    between atoms: C_4  and  O_5 
REMARK    3  A    between atoms: C_8  and  C_9 
REMARK    4  A    between atoms: C_13  and  C_14 
REMARK       I    between atoms: C_14  and  N_15 
REMARK    5  A    between atoms: N_15  and  C_16 
REMARK    6  A    between atoms: C_20  and  C_21 
REMARK    7  A    between atoms: C_21  and  C_22 
REMARK    8  A    between atoms: C_22  and  C_23 
ROOT
HETATM    1  C   UNL     1     -43.646  58.948 -51.854  1.00  0.00     0.290 C 
HETATM    2  N   UNL     1     -43.424  59.483 -50.604  1.00  0.00    -0.149 N 
HETATM    3  O   UNL     1     -44.082  59.562 -52.823  1.00  0.00    -0.265 OA
HETATM    4  H   UNL     1     -43.209  58.901 -49.815  1.00  0.00     0.188 HD
ENDROOT
BRANCH   1   5
HETATM    5  C   UNL     1     -43.312  57.504 -51.943  1.00  0.00     0.147 A 
HETATM    6  N   UNL     1     -44.212  56.557 -51.629  1.00  0.00    -0.169 NA
HETATM    7  N   UNL     1     -43.605  55.397 -51.902  1.00  0.00    -0.277 N 
HETATM    8  C   UNL     1     -42.318  55.522 -52.356  1.00  0.00     0.063 A 
HETATM    9  H   UNL     1     -44.142  54.546 -51.781  1.00  0.00     0.189 HD
HETATM   10  C   UNL     1     -42.102  56.889 -52.384  1.00  0.00     0.071 A 
BRANCH   8  11
HETATM   11  C   UNL     1     -41.485  54.388 -52.767  1.00  0.00    -0.005 A 
HETATM   12  C   UNL     1     -40.834  53.576 -51.823  1.00  0.00     0.053 A 
HETATM   13  C   UNL     1     -40.081  52.462 -52.220  1.00  0.00     0.102 A 
HETATM   14  C   UNL     1     -39.971  52.152 -53.587  1.00  0.00     0.101 A 
HETATM   15  C   UNL     1     -40.585  52.974 -54.533  1.00  0.00     0.040 A 
HETATM   16  C   UNL     1     -41.339  54.079 -54.125  1.00  0.00     0.017 A 
BRANCH  13  17
HETATM   17  O   UNL     1     -39.430  51.613 -51.359  1.00  0.00    -0.353 OA
HETATM   18  C   UNL     1     -40.215  50.864 -50.443  1.00  0.00     0.210 C 
ENDBRANCH  13  17
BRANCH  14  19
HETATM   19  O   UNL     1     -39.217  51.050 -53.911  1.00  0.00    -0.353 OA
HETATM   20  C   UNL     1     -39.936  49.894 -54.321  1.00  0.00     0.210 C 
ENDBRANCH  14  19
ENDBRANCH   8  11
ENDBRANCH   1   5
BRANCH   2  21
HETATM   21  C   UNL     1     -43.499  60.810 -50.300  1.00  0.00     0.747 A 
HETATM   22  N   UNL     1     -42.678  61.786 -50.680  1.00  0.00     0.020 NA
HETATM   23  N   UNL     1     -43.189  62.848 -50.053  1.00  0.00    -0.248 N 
HETATM   24  H   UNL     1     -42.740  63.751 -50.164  1.00  0.00     0.191 HD
HETATM   25  C   UNL     1     -44.293  62.509 -49.323  1.00  0.00     0.140 A 
HETATM   26  N   UNL     1     -44.502  61.215 -49.458  1.00  0.00    -0.046 NA
BRANCH  25  27
HETATM   27  C   UNL     1     -45.055  63.481 -48.494  1.00  0.00     0.085 C 
BRANCH  27  28
HETATM   28  C   UNL     1     -45.986  62.789 -47.494  1.00  0.00     0.046 C 
BRANCH  28  29
HETATM   29  C   UNL     1     -45.314  62.557 -46.164  1.00  0.00    -0.058 A 
HETATM   30  C   UNL     1     -44.904  61.270 -45.788  1.00  0.00     0.007 A 
HETATM   31  C   UNL     1     -44.294  61.055 -44.551  1.00  0.00     0.001 A 
HETATM   32  C   UNL     1     -44.088  62.122 -43.680  1.00  0.00     0.000 A 
HETATM   33  C   UNL     1     -44.493  63.405 -44.043  1.00  0.00     0.001 A 
HETATM   34  C   UNL     1     -45.107  63.622 -45.278  1.00  0.00     0.007 A 
ENDBRANCH  28  29
ENDBRANCH  27  28
ENDBRANCH  25  27
ENDBRANCH   2  21
TORSDOF 8
ENDMDL
MODEL 5
REMARK VINA RESULT:      -8.0      2.935     11.437
REMARK  8 active torsions:
REMARK  status: ('A' for Active; 'I' for Inactive)
REMARK    1  A    between atoms: O_2  and  C_3 
REMARK    2  A    between atoms: C_4  and  O_5 
REMARK    3  A    between atoms: C_8  and  C_9 
REMARK    4  A    between atoms: C_13  and  C_14 
REMARK       I    between atoms: C_14  and  N_15 
REMARK    5  A    between atoms: N_15  and  C_16 
REMARK    6  A    between atoms: C_20  and  C_21 
REMARK    7  A    between atoms: C_21  and  C_22 
REMARK    8  A    between atoms: C_22  and  C_23 
ROOT
HETATM    1  C   UNL     1     -42.524  57.807 -56.021  1.00  0.00     0.290 C 
HETATM    2  N   UNL     1     -42.354  57.867 -54.656  1.00  0.00    -0.149 N 
HETATM    3  O   UNL     1     -42.901  56.822 -56.648  1.00  0.00    -0.265 OA
HETATM    4  H   UNL     1     -41.903  58.650 -54.217  1.00  0.00     0.188 HD
ENDROOT
BRANCH   1   5
HETATM    5  C   UNL     1     -42.193  59.079 -56.713  1.00  0.00     0.147 A 
HETATM    6  N   UNL     1     -41.902  60.195 -56.022  1.00  0.00    -0.169 NA
HETATM    7  N   UNL     1     -41.580  61.102 -56.950  1.00  0.00    -0.277 N 
HETATM    8  C   UNL     1     -41.675  60.654 -58.242  1.00  0.00     0.063 A 
HETATM    9  H   UNL     1     -41.272  62.013 -56.629  1.00  0.00     0.189 HD
HETATM   10  C   UNL     1     -42.081  59.337 -58.112  1.00  0.00     0.071 A 
BRANCH   8  11
HETATM   11  C   UNL     1     -41.319  61.460 -59.413  1.00  0.00    -0.005 A 
HETATM   12  C   UNL     1     -40.564  62.639 -59.289  1.00  0.00     0.053 A 
HETATM   13  C   UNL     1     -40.182  63.378 -60.419  1.00  0.00     0.102 A 
HETATM   14  C   UNL     1     -40.563  62.935 -61.697  1.00  0.00     0.101 A 
HETATM   15  C   UNL     1     -41.343  61.784 -61.826  1.00  0.00     0.040 A 
HETATM   16  C   UNL     1     -41.713  61.053 -60.693  1.00  0.00     0.017 A 
BRANCH  13  17
HETATM   17  O   UNL     1     -39.434  64.528 -60.381  1.00  0.00    -0.353 OA
HETATM   18  C   UNL     1     -38.176  64.483 -59.724  1.00  0.00     0.210 C 
ENDBRANCH  13  17
BRANCH  14  19
HETATM   19  O   UNL     1     -40.160  63.704 -62.762  1.00  0.00    -0.353 OA
HETATM   20  C   UNL     1     -38.998  63.263 -63.453  1.00  0.00     0.210 C 
ENDBRANCH  14  19
ENDBRANCH   8  11
ENDBRANCH   1   5
BRANCH   2  21
HETATM   21  C   UNL     1     -42.736  56.896 -53.780  1.00  0.00     0.747 A 
HETATM   22  N   UNL     1     -43.883  56.797 -53.113  1.00  0.00     0.020 NA
HETATM   23  N   UNL     1     -43.689  55.703 -52.373  1.00  0.00    -0.248 N 
HETATM   24  H   UNL     1     -44.424  55.394 -51.745  1.00  0.00     0.191 HD
HETATM   25  C   UNL     1     -42.457  55.162 -52.602  1.00  0.00     0.140 A 
HETATM   26  N   UNL     1     -41.829  55.910 -53.486  1.00  0.00    -0.046 NA
BRANCH  25  27
HETATM   27  C   UNL     1     -41.950  53.954 -51.896  1.00  0.00     0.085 C 
BRANCH  27  28
HETATM   28  C   UNL     1     -40.456  53.721 -52.141  1.00  0.00     0.046 C 
BRANCH  28  29
HETATM   29  C   UNL     1     -40.170  52.308 -52.584  1.00  0.00    -0.058 A 
HETATM   30  C   UNL     1     -39.699  51.356 -51.669  1.00  0.00     0.007 A 
HETATM   31  C   UNL     1     -39.422  50.052 -52.084  1.00  0.00     0.001 A 
HETATM   32  C   UNL     1     -39.614  49.688 -53.415  1.00  0.00     0.000 A 
HETATM   33  C   UNL     1     -40.080  50.627 -54.333  1.00  0.00     0.001 A 
HETATM   34  C   UNL     1     -40.354  51.932 -53.921  1.00  0.00     0.007 A 
ENDBRANCH  28  29
ENDBRANCH  27  28
ENDBRANCH  25  27
ENDBRANCH   2  21
TORSDOF 8
ENDMDL
MODEL 6
REMARK VINA RESULT:      -7.9      4.898     11.607
REMARK  8 active torsions:
REMARK  status: ('A' for Active; 'I' for Inactive)
REMARK    1  A    between atoms: O_2  and  C_3 
REMARK    2  A    between atoms: C_4  and  O_5 
REMARK    3  A    between atoms: C_8  and  C_9 
REMARK    4  A    between atoms: C_13  and  C_14 
REMARK       I    between atoms: C_14  and  N_15 
REMARK    5  A    between atoms: N_15  and  C_16 
REMARK    6  A    between atoms: C_20  and  C_21 
REMARK    7  A    between atoms: C_21  and  C_22 
REMARK    8  A    between atoms: C_22  and  C_23 
ROOT
HETATM    1  C   UNL     1     -43.415  56.906 -56.899  1.00  0.00     0.290 C 
HETATM    2  N   UNL     1     -44.184  56.469 -55.843  1.00  0.00    -0.149 N 
HETATM    3  O   UNL     1     -42.239  57.250 -56.827  1.00  0.00    -0.265 OA
HETATM    4  H   UNL     1     -45.176  56.343 -55.933  1.00  0.00     0.188 HD
ENDROOT
BRANCH   1   5
HETATM    5  C   UNL     1     -44.149  56.937 -58.189  1.00  0.00     0.147 A 
HETATM    6  N   UNL     1     -43.738  56.216 -59.245  1.00  0.00    -0.169 NA
HETATM    7  N   UNL     1     -44.666  56.420 -60.186  1.00  0.00    -0.277 N 
HETATM    8  C   UNL     1     -45.670  57.277 -59.819  1.00  0.00     0.063 A 
HETATM    9  H   UNL     1     -44.569  55.914 -61.059  1.00  0.00     0.189 HD
HETATM   10  C   UNL     1     -45.350  57.634 -58.520  1.00  0.00     0.071 A 
BRANCH   8  11
HETATM   11  C   UNL     1     -46.818  57.601 -60.671  1.00  0.00    -0.005 A 
HETATM   12  C   UNL     1     -47.202  58.932 -60.909  1.00  0.00     0.053 A 
HETATM   13  C   UNL     1     -48.269  59.237 -61.767  1.00  0.00     0.102 A 
HETATM   14  C   UNL     1     -48.970  58.195 -62.398  1.00  0.00     0.101 A 
HETATM   15  C   UNL     1     -48.618  56.869 -62.138  1.00  0.00     0.040 A 
HETATM   16  C   UNL     1     -47.548  56.577 -61.286  1.00  0.00     0.017 A 
BRANCH  13  17
HETATM   17  O   UNL     1     -48.693  60.509 -62.062  1.00  0.00    -0.353 OA
HETATM   18  C   UNL     1     -47.814  61.351 -62.793  1.00  0.00     0.210 C 
ENDBRANCH  13  17
BRANCH  14  19
HETATM   19  O   UNL     1     -50.006  58.559 -63.223  1.00  0.00    -0.353 OA
HETATM   20  C   UNL     1     -51.277  58.714 -62.605  1.00  0.00     0.210 C 
ENDBRANCH  14  19
ENDBRANCH   8  11
ENDBRANCH   1   5
BRANCH   2  21
HETATM   21  C   UNL     1     -43.711  56.199 -54.593  1.00  0.00     0.747 A 
HETATM   22  N   UNL     1     -43.715  56.992 -53.525  1.00  0.00     0.020 NA
HETATM   23  N   UNL     1     -43.085  56.246 -52.614  1.00  0.00    -0.248 N 
HETATM   24  H   UNL     1     -42.938  56.623 -51.683  1.00  0.00     0.191 HD
HETATM   25  C   UNL     1     -42.723  55.035 -53.130  1.00  0.00     0.140 A 
HETATM   26  N   UNL     1     -43.102  54.987 -54.391  1.00  0.00    -0.046 NA
BRANCH  25  27
HETATM   27  C   UNL     1     -41.979  54.006 -52.355  1.00  0.00     0.085 C 
BRANCH  27  28
HETATM   28  C   UNL     1     -40.561  53.786 -52.891  1.00  0.00     0.046 C 
BRANCH  28  29
HETATM   29  C   UNL     1     -40.216  52.321 -52.991  1.00  0.00    -0.058 A 
HETATM   30  C   UNL     1     -40.362  51.637 -54.207  1.00  0.00     0.007 A 
HETATM   31  C   UNL     1     -40.054  50.279 -54.295  1.00  0.00     0.001 A 
HETATM   32  C   UNL     1     -39.596  49.592 -53.172  1.00  0.00     0.000 A 
HETATM   33  C   UNL     1     -39.449  50.263 -51.959  1.00  0.00     0.001 A 
HETATM   34  C   UNL     1     -39.760  51.620 -51.868  1.00  0.00     0.007 A 
ENDBRANCH  28  29
ENDBRANCH  27  28
ENDBRANCH  25  27
ENDBRANCH   2  21
TORSDOF 8
ENDMDL
MODEL 7
REMARK VINA RESULT:      -7.6      4.317     10.826
REMARK  8 active torsions:
REMARK  status: ('A' for Active; 'I' for Inactive)
REMARK    1  A    between atoms: O_2  and  C_3 
REMARK    2  A    between atoms: C_4  and  O_5 
REMARK    3  A    between atoms: C_8  and  C_9 
REMARK    4  A    between atoms: C_13  and  C_14 
REMARK       I    between atoms: C_14  and  N_15 
REMARK    5  A    between atoms: N_15  and  C_16 
REMARK    6  A    between atoms: C_20  and  C_21 
REMARK    7  A    between atoms: C_21  and  C_22 
REMARK    8  A    between atoms: C_22  and  C_23 
ROOT
HETATM    1  C   UNL     1     -41.786  59.114 -54.139  1.00  0.00     0.290 C 
HETATM    2  N   UNL     1     -42.534  58.355 -53.267  1.00  0.00    -0.149 N 
HETATM    3  O   UNL     1     -40.687  59.602 -53.894  1.00  0.00    -0.265 OA
HETATM    4  H   UNL     1     -43.486  58.109 -53.469  1.00  0.00     0.188 HD
ENDROOT
BRANCH   1   5
HETATM    5  C   UNL     1     -42.443  59.316 -55.456  1.00  0.00     0.147 A 
HETATM    6  N   UNL     1     -41.837  60.001 -56.441  1.00  0.00    -0.169 NA
HETATM    7  N   UNL     1     -42.667  59.912 -57.485  1.00  0.00    -0.277 N 
HETATM    8  C   UNL     1     -43.826  59.224 -57.235  1.00  0.00     0.063 A 
HETATM    9  H   UNL     1     -42.366  60.324 -58.360  1.00  0.00     0.189 HD
HETATM   10  C   UNL     1     -43.705  58.831 -55.912  1.00  0.00     0.071 A 
BRANCH   8  11
HETATM   11  C   UNL     1     -44.851  58.958 -58.247  1.00  0.00    -0.005 A 
HETATM   12  C   UNL     1     -45.014  59.796 -59.363  1.00  0.00     0.053 A 
HETATM   13  C   UNL     1     -45.963  59.506 -60.356  1.00  0.00     0.102 A 
HETATM   14  C   UNL     1     -46.768  58.361 -60.231  1.00  0.00     0.101 A 
HETATM   15  C   UNL     1     -46.636  57.543 -59.107  1.00  0.00     0.040 A 
HETATM   16  C   UNL     1     -45.683  57.838 -58.128  1.00  0.00     0.017 A 
BRANCH  13  17
HETATM   17  O   UNL     1     -46.170  60.266 -61.480  1.00  0.00    -0.353 OA
HETATM   18  C   UNL     1     -45.039  60.851 -62.107  1.00  0.00     0.210 C 
ENDBRANCH  13  17
BRANCH  14  19
HETATM   19  O   UNL     1     -47.679  58.135 -61.234  1.00  0.00    -0.353 OA
HETATM   20  C   UNL     1     -47.864  56.780 -61.623  1.00  0.00     0.210 C 
ENDBRANCH  14  19
ENDBRANCH   8  11
ENDBRANCH   1   5
BRANCH   2  21
HETATM   21  C   UNL     1     -42.095  57.893 -52.062  1.00  0.00     0.747 A 
HETATM   22  N   UNL     1     -41.965  58.568 -50.922  1.00  0.00     0.020 NA
HETATM   23  N   UNL     1     -41.448  57.649 -50.104  1.00  0.00    -0.248 N 
HETATM   24  H   UNL     1     -41.236  57.904 -49.145  1.00  0.00     0.191 HD
HETATM   25  C   UNL     1     -41.282  56.453 -50.743  1.00  0.00     0.140 A 
HETATM   26  N   UNL     1     -41.678  56.589 -51.993  1.00  0.00    -0.046 NA
BRANCH  25  27
HETATM   27  C   UNL     1     -40.697  55.251 -50.090  1.00  0.00     0.085 C 
BRANCH  27  28
HETATM   28  C   UNL     1     -41.492  53.978 -50.395  1.00  0.00     0.046 C 
BRANCH  28  29
HETATM   29  C   UNL     1     -40.832  53.142 -51.463  1.00  0.00    -0.058 A 
HETATM   30  C   UNL     1     -41.114  53.367 -52.819  1.00  0.00     0.007 A 
HETATM   31  C   UNL     1     -40.512  52.583 -53.805  1.00  0.00     0.001 A 
HETATM   32  C   UNL     1     -39.625  51.571 -53.448  1.00  0.00     0.000 A 
HETATM   33  C   UNL     1     -39.339  51.339 -52.103  1.00  0.00     0.001 A 
HETATM   34  C   UNL     1     -39.942  52.118 -51.115  1.00  0.00     0.007 A 
ENDBRANCH  28  29
ENDBRANCH  27  28
ENDBRANCH  25  27
ENDBRANCH   2  21
TORSDOF 8
ENDMDL
MODEL 8
REMARK VINA RESULT:      -7.6      6.521      8.501
REMARK  8 active torsions:
REMARK  status: ('A' for Active; 'I' for Inactive)
REMARK    1  A    between atoms: O_2  and  C_3 
REMARK    2  A    between atoms: C_4  and  O_5 
REMARK    3  A    between atoms: C_8  and  C_9 
REMARK    4  A    between atoms: C_13  and  C_14 
REMARK       I    between atoms: C_14  and  N_15 
REMARK    5  A    between atoms: N_15  and  C_16 
REMARK    6  A    between atoms: C_20  and  C_21 
REMARK    7  A    between atoms: C_21  and  C_22 
REMARK    8  A    between atoms: C_22  and  C_23 
ROOT
HETATM    1  C   UNL     1     -44.743  57.989 -51.480  1.00  0.00     0.290 C 
HETATM    2  N   UNL     1     -44.438  59.284 -51.837  1.00  0.00    -0.149 N 
HETATM    3  O   UNL     1     -45.517  57.662 -50.586  1.00  0.00    -0.265 OA
HETATM    4  H   UNL     1     -43.689  59.490 -52.474  1.00  0.00     0.188 HD
ENDROOT
BRANCH   1   5
HETATM    5  C   UNL     1     -44.027  56.971 -52.290  1.00  0.00     0.147 A 
HETATM    6  N   UNL     1     -44.086  56.977 -53.633  1.00  0.00    -0.169 NA
HETATM    7  N   UNL     1     -43.272  55.990 -54.020  1.00  0.00    -0.277 N 
HETATM    8  C   UNL     1     -42.691  55.294 -52.992  1.00  0.00     0.063 A 
HETATM    9  H   UNL     1     -43.132  55.860 -55.015  1.00  0.00     0.189 HD
HETATM   10  C   UNL     1     -43.175  55.913 -51.852  1.00  0.00     0.071 A 
BRANCH   8  11
HETATM   11  C   UNL     1     -41.724  54.210 -53.185  1.00  0.00    -0.005 A 
HETATM   12  C   UNL     1     -41.044  53.632 -52.099  1.00  0.00     0.053 A 
HETATM   13  C   UNL     1     -40.159  52.560 -52.284  1.00  0.00     0.102 A 
HETATM   14  C   UNL     1     -39.944  52.055 -53.578  1.00  0.00     0.101 A 
HETATM   15  C   UNL     1     -40.588  52.647 -54.666  1.00  0.00     0.040 A 
HETATM   16  C   UNL     1     -41.473  53.712 -54.469  1.00  0.00     0.017 A 
BRANCH  13  17
HETATM   17  O   UNL     1     -39.472  51.934 -51.274  1.00  0.00    -0.353 OA
HETATM   18  C   UNL     1     -40.140  50.914 -50.546  1.00  0.00     0.210 C 
ENDBRANCH  13  17
BRANCH  14  19
HETATM   19  O   UNL     1     -39.063  51.007 -53.693  1.00  0.00    -0.353 OA
HETATM   20  C   UNL     1     -39.555  49.841 -54.341  1.00  0.00     0.210 C 
ENDBRANCH  14  19
ENDBRANCH   8  11
ENDBRANCH   1   5
BRANCH   2  21
HETATM   21  C   UNL     1     -45.072  60.393 -51.362  1.00  0.00     0.747 A 
HETATM   22  N   UNL     1     -44.864  61.027 -50.211  1.00  0.00     0.020 NA
HETATM   23  N   UNL     1     -45.789  61.989 -50.245  1.00  0.00    -0.248 N 
HETATM   24  H   UNL     1     -45.861  62.633 -49.464  1.00  0.00     0.191 HD
HETATM   25  C   UNL     1     -46.524  61.929 -51.394  1.00  0.00     0.140 A 
HETATM   26  N   UNL     1     -46.092  60.915 -52.115  1.00  0.00    -0.046 NA
BRANCH  25  27
HETATM   27  C   UNL     1     -47.649  62.857 -51.694  1.00  0.00     0.085 C 
BRANCH  27  28
HETATM   28  C   UNL     1     -48.399  62.468 -52.971  1.00  0.00     0.046 C 
BRANCH  28  29
HETATM   29  C   UNL     1     -49.894  62.503 -52.781  1.00  0.00    -0.058 A 
HETATM   30  C   UNL     1     -50.461  63.234 -51.727  1.00  0.00     0.007 A 
HETATM   31  C   UNL     1     -51.846  63.256 -51.546  1.00  0.00     0.001 A 
HETATM   32  C   UNL     1     -52.674  62.549 -52.414  1.00  0.00     0.000 A 
HETATM   33  C   UNL     1     -52.120  61.818 -53.464  1.00  0.00     0.001 A 
HETATM   34  C   UNL     1     -50.737  61.792 -53.645  1.00  0.00     0.007 A 
ENDBRANCH  28  29
ENDBRANCH  27  28
ENDBRANCH  25  27
ENDBRANCH   2  21
TORSDOF 8
ENDMDL
MODEL 9
REMARK VINA RESULT:      -7.6     16.723     19.702
REMARK  8 active torsions:
REMARK  status: ('A' for Active; 'I' for Inactive)
REMARK    1  A    between atoms: O_2  and  C_3 
REMARK    2  A    between atoms: C_4  and  O_5 
REMARK    3  A    between atoms: C_8  and  C_9 
REMARK    4  A    between atoms: C_13  and  C_14 
REMARK       I    between atoms: C_14  and  N_15 
REMARK    5  A    between atoms: N_15  and  C_16 
REMARK    6  A    between atoms: C_20  and  C_21 
REMARK    7  A    between atoms: C_21  and  C_22 
REMARK    8  A    between atoms: C_22  and  C_23 
ROOT
HETATM    1  C   UNL     1     -34.473  40.198 -51.908  1.00  0.00     0.290 C 
HETATM    2  N   UNL     1     -34.405  41.413 -52.554  1.00  0.00    -0.149 N 
HETATM    3  O   UNL     1     -35.343  39.350 -52.080  1.00  0.00    -0.265 OA
HETATM    4  H   UNL     1     -33.757  42.124 -52.267  1.00  0.00     0.188 HD
ENDROOT
BRANCH   1   5
HETATM    5  C   UNL     1     -33.369  39.984 -50.939  1.00  0.00     0.147 A 
HETATM    6  N   UNL     1     -32.087  40.202 -51.279  1.00  0.00    -0.169 NA
HETATM    7  N   UNL     1     -31.391  39.992 -50.158  1.00  0.00    -0.277 N 
HETATM    8  C   UNL     1     -32.146  39.607 -49.081  1.00  0.00     0.063 A 
HETATM    9  H   UNL     1     -30.391  40.159 -50.188  1.00  0.00     0.189 HD
HETATM   10  C   UNL     1     -33.442  39.588 -49.570  1.00  0.00     0.071 A 
BRANCH   8  11
HETATM   11  C   UNL     1     -31.599  39.377 -47.741  1.00  0.00    -0.005 A 
HETATM   12  C   UNL     1     -32.123  38.384 -46.897  1.00  0.00     0.053 A 
HETATM   13  C   UNL     1     -31.562  38.134 -45.636  1.00  0.00     0.102 A 
HETATM   14  C   UNL     1     -30.458  38.891 -45.206  1.00  0.00     0.101 A 
HETATM   15  C   UNL     1     -29.955  39.904 -46.025  1.00  0.00     0.040 A 
HETATM   16  C   UNL     1     -30.519  40.140 -47.283  1.00  0.00     0.017 A 
BRANCH  13  17
HETATM   17  O   UNL     1     -32.006  37.173 -44.762  1.00  0.00    -0.353 OA
HETATM   18  C   UNL     1     -33.367  37.217 -44.359  1.00  0.00     0.210 C 
ENDBRANCH  13  17
BRANCH  14  19
HETATM   19  O   UNL     1     -29.957  38.599 -43.961  1.00  0.00    -0.353 OA
HETATM   20  C   UNL     1     -29.163  39.609 -43.350  1.00  0.00     0.210 C 
ENDBRANCH  14  19
ENDBRANCH   8  11
ENDBRANCH   1   5
BRANCH   2  21
HETATM   21  C   UNL     1     -35.199  41.787 -53.597  1.00  0.00     0.747 A 
HETATM   22  N   UNL     1     -36.426  42.300 -53.552  1.00  0.00     0.020 NA
HETATM   23  N   UNL     1     -36.734  42.416 -54.845  1.00  0.00    -0.248 N 
HETATM   24  H   UNL     1     -37.643  42.784 -55.105  1.00  0.00     0.191 HD
HETATM   25  C   UNL     1     -35.710  41.986 -55.639  1.00  0.00     0.140 A 
HETATM   26  N   UNL     1     -34.726  41.573 -54.866  1.00  0.00    -0.046 NA
BRANCH  25  27
HETATM   27  C   UNL     1     -35.780  41.969 -57.126  1.00  0.00     0.085 C 
BRANCH  27  28
HETATM   28  C   UNL     1     -37.217  42.082 -57.642  1.00  0.00     0.046 C 
BRANCH  28  29
HETATM   29  C   UNL     1     -37.553  40.987 -58.623  1.00  0.00    -0.058 A 
HETATM   30  C   UNL     1     -38.256  39.848 -58.205  1.00  0.00     0.007 A 
HETATM   31  C   UNL     1     -38.555  38.829 -59.112  1.00  0.00     0.001 A 
HETATM   32  C   UNL     1     -38.156  38.940 -60.442  1.00  0.00     0.000 A 
HETATM   33  C   UNL     1     -37.456  40.068 -60.867  1.00  0.00     0.001 A 
HETATM   34  C   UNL     1     -37.153  41.086 -59.962  1.00  0.00     0.007 A 
ENDBRANCH  28  29
ENDBRANCH  27  28
ENDBRANCH  25  27
ENDBRANCH   2  21
TORSDOF 8
ENDMDL
MODEL 10
REMARK VINA RESULT:      -7.5      4.719     11.397
REMARK  8 active torsions:
REMARK  status: ('A' for Active; 'I' for Inactive)
REMARK    1  A    between atoms: O_2  and  C_3 
REMARK    2  A    between atoms: C_4  and  O_5 
REMARK    3  A    between atoms: C_8  and  C_9 
REMARK    4  A    between atoms: C_13  and  C_14 
REMARK       I    between atoms: C_14  and  N_15 
REMARK    5  A    between atoms: N_15  and  C_16 
REMARK    6  A    between atoms: C_20  and  C_21 
REMARK    7  A    between atoms: C_21  and  C_22 
REMARK    8  A    between atoms: C_22  and  C_23 
ROOT
HETATM    1  C   UNL     1     -42.818  56.661 -55.483  1.00  0.00     0.290 C 
HETATM    2  N   UNL     1     -43.588  56.614 -54.343  1.00  0.00    -0.149 N 
HETATM    3  O   UNL     1     -41.601  56.503 -55.526  1.00  0.00    -0.265 OA
HETATM    4  H   UNL     1     -44.552  56.897 -54.349  1.00  0.00     0.188 HD
ENDROOT
BRANCH   1   5
HETATM    5  C   UNL     1     -43.602  56.940 -56.713  1.00  0.00     0.147 A 
HETATM    6  N   UNL     1     -43.537  56.128 -57.782  1.00  0.00    -0.169 NA
HETATM    7  N   UNL     1     -44.419  56.631 -58.652  1.00  0.00    -0.277 N 
HETATM    8  C   UNL     1     -45.051  57.770 -58.228  1.00  0.00     0.063 A 
HETATM    9  H   UNL     1     -44.564  56.125 -59.518  1.00  0.00     0.189 HD
HETATM   10  C   UNL     1     -44.528  57.995 -56.966  1.00  0.00     0.071 A 
BRANCH   8  11
HETATM   11  C   UNL     1     -46.093  58.458 -58.995  1.00  0.00    -0.005 A 
HETATM   12  C   UNL     1     -46.546  57.959 -60.228  1.00  0.00     0.053 A 
HETATM   13  C   UNL     1     -47.579  58.594 -60.933  1.00  0.00     0.102 A 
HETATM   14  C   UNL     1     -48.171  59.752 -60.400  1.00  0.00     0.101 A 
HETATM   15  C   UNL     1     -47.703  60.274 -59.193  1.00  0.00     0.040 A 
HETATM   16  C   UNL     1     -46.676  59.629 -58.497  1.00  0.00     0.017 A 
BRANCH  13  17
HETATM   17  O   UNL     1     -48.086  58.159 -62.133  1.00  0.00    -0.353 OA
HETATM   18  C   UNL     1     -48.488  56.801 -62.233  1.00  0.00     0.210 C 
ENDBRANCH  13  17
BRANCH  14  19
HETATM   19  O   UNL     1     -49.175  60.328 -61.140  1.00  0.00    -0.353 OA
HETATM   20  C   UNL     1     -50.372  60.643 -60.439  1.00  0.00     0.210 C 
ENDBRANCH  14  19
ENDBRANCH   8  11
ENDBRANCH   1   5
BRANCH   2  21
HETATM   21  C   UNL     1     -43.142  56.222 -53.116  1.00  0.00     0.747 A 
HETATM   22  N   UNL     1     -43.035  56.953 -52.009  1.00  0.00     0.020 NA
HETATM   23  N   UNL     1     -42.497  56.088 -51.147  1.00  0.00    -0.248 N 
HETATM   24  H   UNL     1     -42.295  56.394 -50.201  1.00  0.00     0.191 HD
HETATM   25  C   UNL     1     -42.297  54.868 -51.728  1.00  0.00     0.140 A 
HETATM   26  N   UNL     1     -42.691  54.934 -52.984  1.00  0.00    -0.046 NA
BRANCH  25  27
HETATM   27  C   UNL     1     -41.682  53.715 -51.017  1.00  0.00     0.085 C 
BRANCH  27  28
HETATM   28  C   UNL     1     -40.226  53.485 -51.431  1.00  0.00     0.046 C 
BRANCH  28  29
HETATM   29  C   UNL     1     -40.056  52.208 -52.216  1.00  0.00    -0.058 A 
HETATM   30  C   UNL     1     -39.647  51.028 -51.577  1.00  0.00     0.007 A 
HETATM   31  C   UNL     1     -39.479  49.851 -52.308  1.00  0.00     0.001 A 
HETATM   32  C   UNL     1     -39.717  49.841 -53.681  1.00  0.00     0.000 A 
HETATM   33  C   UNL     1     -40.121  51.009 -54.325  1.00  0.00     0.001 A 
HETATM   34  C   UNL     1     -40.287  52.188 -53.597  1.00  0.00     0.007 A 
ENDBRANCH  28  29
ENDBRANCH  27  28
ENDBRANCH  25  27
ENDBRANCH   2  21
TORSDOF 8
ENDMDL
