MODEL 1
REMARK VINA RESULT:      -8.9      0.000      0.000
REMARK  6 active torsions:
REMARK  status: ('A' for Active; 'I' for Inactive)
REMARK    1  A    between atoms: O_2  and  C_3 
REMARK    2  A    between atoms: C_6  and  C_7 
REMARK    3  A    between atoms: C_13  and  C_14 
REMARK       I    between atoms: C_14  and  N_15 
REMARK    4  A    between atoms: N_15  and  C_16 
REMARK    5  A    between atoms: C_18  and  O_19 
REMARK    6  A    between atoms: C_24  and  C_25 
ROOT
HETATM    1  C   UNL     1     -43.427  55.517 -53.710  1.00  0.00     0.118 C 
HETATM    2  N   UNL     1     -43.493  56.096 -55.061  1.00  0.00    -0.365 N 
HETATM    3  C   UNL     1     -42.931  57.309 -55.331  1.00  0.00     0.138 A 
HETATM    4  N   UNL     1     -42.369  58.074 -54.335  1.00  0.00    -0.240 N 
HETATM    5  N   UNL     1     -41.967  59.287 -54.741  1.00  0.00    -0.181 NA
HETATM    6  C   UNL     1     -42.216  59.268 -56.052  1.00  0.00     0.160 A 
HETATM    7  C   UNL     1     -42.821  58.063 -56.488  1.00  0.00     0.096 A 
HETATM    8  C   UNL     1     -42.399  57.744 -52.922  1.00  0.00     0.221 C 
HETATM    9  C   UNL     1     -43.440  56.642 -52.660  1.00  0.00     0.066 C 
HETATM   10  H   UNL     1     -44.351  55.838 -55.550  1.00  0.00     0.161 HD
ENDROOT
BRANCH   7  11
HETATM   11  C   UNL     1     -43.239  57.770 -57.851  1.00  0.00     0.261 C 
HETATM   12  N   UNL     1     -44.292  56.879 -57.936  1.00  0.00    -0.323 N 
HETATM   13  H   UNL     1     -44.557  56.439 -57.062  1.00  0.00     0.169 HD
HETATM   14  O   UNL     1     -42.672  58.302 -58.799  1.00  0.00    -0.267 OA
BRANCH  12  15
HETATM   15  C   UNL     1     -45.027  56.518 -59.083  1.00  0.00     0.037 A 
HETATM   16  C   UNL     1     -44.556  55.645 -60.069  1.00  0.00     0.066 A 
HETATM   17  C   UNL     1     -45.340  55.373 -61.189  1.00  0.00     0.067 A 
HETATM   18  C   UNL     1     -46.587  55.963 -61.353  1.00  0.00     0.036 A 
HETATM   19  C   UNL     1     -47.065  56.831 -60.376  1.00  0.00     0.005 A 
HETATM   20  C   UNL     1     -46.292  57.103 -59.244  1.00  0.00     0.029 A 
BRANCH  17  21
HETATM   21  O   UNL     1     -44.910  54.520 -62.164  1.00  0.00    -0.361 OA
HETATM   22  H   UNL     1     -44.913  54.996 -63.012  1.00  0.00     0.217 HD
ENDBRANCH  17  21
ENDBRANCH  12  15
ENDBRANCH   7  11
BRANCH   1  23
HETATM   23  C   UNL     1     -42.294  54.515 -53.545  1.00  0.00    -0.035 A 
HETATM   24  C   UNL     1     -41.971  53.923 -52.314  1.00  0.00     0.012 A 
HETATM   25  C   UNL     1     -40.957  52.962 -52.223  1.00  0.00     0.037 A 
HETATM   26  C   UNL     1     -40.244  52.572 -53.354  1.00  0.00     0.068 A 
HETATM   27  C   UNL     1     -40.509  53.192 -54.571  1.00  0.00     0.037 A 
HETATM   28  C   UNL     1     -41.519  54.157 -54.663  1.00  0.00     0.012 A 
BRANCH  26  29
HETATM   29  O   UNL     1     -39.304  51.599 -53.147  1.00  0.00    -0.356 OA
HETATM   30  C   UNL     1     -39.603  50.321 -53.698  1.00  0.00     0.210 C 
ENDBRANCH  26  29
ENDBRANCH   1  23
BRANCH   8  31
HETATM   31  C   UNL     1     -41.006  57.437 -52.423  1.00  0.00     0.409 C 
HETATM   32  F   UNL     1     -40.969  56.602 -51.368  1.00  0.00    -0.169 F 
HETATM   33  F   UNL     1     -40.231  56.896 -53.391  1.00  0.00    -0.169 F 
HETATM   34  F   UNL     1     -40.385  58.587 -52.046  1.00  0.00    -0.169 F 
ENDBRANCH   8  31
TORSDOF 6
ENDMDL
MODEL 2
REMARK VINA RESULT:      -8.5      1.640      2.134
REMARK  6 active torsions:
REMARK  status: ('A' for Active; 'I' for Inactive)
REMARK    1  A    between atoms: O_2  and  C_3 
REMARK    2  A    between atoms: C_6  and  C_7 
REMARK    3  A    between atoms: C_13  and  C_14 
REMARK       I    between atoms: C_14  and  N_15 
REMARK    4  A    between atoms: N_15  and  C_16 
REMARK    5  A    between atoms: C_18  and  O_19 
REMARK    6  A    between atoms: C_24  and  C_25 
ROOT
HETATM    1  C   UNL     1     -43.577  55.126 -51.983  1.00  0.00     0.118 C 
HETATM    2  N   UNL     1     -43.986  55.821 -53.213  1.00  0.00    -0.365 N 
HETATM    3  C   UNL     1     -43.581  57.101 -53.462  1.00  0.00     0.138 A 
HETATM    4  N   UNL     1     -42.862  57.816 -52.533  1.00  0.00    -0.240 N 
HETATM    5  N   UNL     1     -42.644  59.093 -52.878  1.00  0.00    -0.181 NA
HETATM    6  C   UNL     1     -43.181  59.176 -54.098  1.00  0.00     0.160 A 
HETATM    7  C   UNL     1     -43.787  57.967 -54.523  1.00  0.00     0.096 A 
HETATM    8  C   UNL     1     -42.549  57.352 -51.194  1.00  0.00     0.221 C 
HETATM    9  C   UNL     1     -43.427  56.142 -50.836  1.00  0.00     0.066 C 
HETATM   10  H   UNL     1     -44.913  55.534 -53.529  1.00  0.00     0.161 HD
ENDROOT
BRANCH   7  11
HETATM   11  C   UNL     1     -44.483  57.768 -55.786  1.00  0.00     0.261 C 
HETATM   12  N   UNL     1     -43.663  57.356 -56.819  1.00  0.00    -0.323 N 
HETATM   13  H   UNL     1     -42.670  57.369 -56.615  1.00  0.00     0.169 HD
HETATM   14  O   UNL     1     -45.690  57.961 -55.863  1.00  0.00    -0.267 OA
BRANCH  12  15
HETATM   15  C   UNL     1     -44.045  56.926 -58.106  1.00  0.00     0.037 A 
HETATM   16  C   UNL     1     -44.940  57.618 -58.926  1.00  0.00     0.066 A 
HETATM   17  C   UNL     1     -45.289  57.098 -60.172  1.00  0.00     0.067 A 
HETATM   18  C   UNL     1     -44.767  55.890 -60.616  1.00  0.00     0.036 A 
HETATM   19  C   UNL     1     -43.873  55.193 -59.807  1.00  0.00     0.005 A 
HETATM   20  C   UNL     1     -43.509  55.712 -58.561  1.00  0.00     0.029 A 
BRANCH  17  21
HETATM   21  O   UNL     1     -46.154  57.756 -60.997  1.00  0.00    -0.361 OA
HETATM   22  H   UNL     1     -45.636  58.249 -61.656  1.00  0.00     0.217 HD
ENDBRANCH  17  21
ENDBRANCH  12  15
ENDBRANCH   7  11
BRANCH   1  23
HETATM   23  C   UNL     1     -42.371  54.220 -52.182  1.00  0.00    -0.035 A 
HETATM   24  C   UNL     1     -41.690  53.610 -51.118  1.00  0.00     0.012 A 
HETATM   25  C   UNL     1     -40.622  52.737 -51.354  1.00  0.00     0.037 A 
HETATM   26  C   UNL     1     -40.210  52.453 -52.654  1.00  0.00     0.068 A 
HETATM   27  C   UNL     1     -40.834  53.096 -53.719  1.00  0.00     0.037 A 
HETATM   28  C   UNL     1     -41.899  53.974 -53.484  1.00  0.00     0.012 A 
BRANCH  26  29
HETATM   29  O   UNL     1     -39.181  51.558 -52.760  1.00  0.00    -0.356 OA
HETATM   30  C   UNL     1     -39.557  50.213 -53.039  1.00  0.00     0.210 C 
ENDBRANCH  26  29
ENDBRANCH   1  23
BRANCH   8  31
HETATM   31  C   UNL     1     -41.061  57.127 -51.048  1.00  0.00     0.409 C 
HETATM   32  F   UNL     1     -40.362  58.238 -50.752  1.00  0.00    -0.169 F 
HETATM   33  F   UNL     1     -40.782  56.210 -50.094  1.00  0.00    -0.169 F 
HETATM   34  F   UNL     1     -40.551  56.630 -52.206  1.00  0.00    -0.169 F 
ENDBRANCH   8  31
TORSDOF 6
ENDMDL
MODEL 3
REMARK VINA RESULT:      -8.2      3.789      7.813
REMARK  6 active torsions:
REMARK  status: ('A' for Active; 'I' for Inactive)
REMARK    1  A    between atoms: O_2  and  C_3 
REMARK    2  A    between atoms: C_6  and  C_7 
REMARK    3  A    between atoms: C_13  and  C_14 
REMARK       I    between atoms: C_14  and  N_15 
REMARK    4  A    between atoms: N_15  and  C_16 
REMARK    5  A    between atoms: C_18  and  O_19 
REMARK    6  A    between atoms: C_24  and  C_25 
ROOT
HETATM    1  C   UNL     1     -40.992  58.242 -53.942  1.00  0.00     0.118 C 
HETATM    2  N   UNL     1     -41.117  56.894 -53.367  1.00  0.00    -0.365 N 
HETATM    3  C   UNL     1     -41.273  56.717 -52.023  1.00  0.00     0.138 A 
HETATM    4  N   UNL     1     -41.222  57.781 -51.152  1.00  0.00    -0.240 N 
HETATM    5  N   UNL     1     -41.275  57.429 -49.859  1.00  0.00    -0.181 NA
HETATM    6  C   UNL     1     -41.434  56.105 -49.909  1.00  0.00     0.160 A 
HETATM    7  C   UNL     1     -41.439  55.593 -51.231  1.00  0.00     0.096 A 
HETATM    8  C   UNL     1     -40.907  59.146 -51.531  1.00  0.00     0.221 C 
HETATM    9  C   UNL     1     -40.287  59.173 -52.938  1.00  0.00     0.066 C 
HETATM   10  H   UNL     1     -40.581  56.200 -53.890  1.00  0.00     0.161 HD
ENDROOT
BRANCH   7  11
HETATM   11  C   UNL     1     -41.558  54.188 -51.595  1.00  0.00     0.261 C 
HETATM   12  N   UNL     1     -40.438  53.674 -52.219  1.00  0.00    -0.323 N 
HETATM   13  H   UNL     1     -39.730  54.356 -52.467  1.00  0.00     0.169 HD
HETATM   14  O   UNL     1     -42.584  53.569 -51.339  1.00  0.00    -0.267 OA
BRANCH  12  15
HETATM   15  C   UNL     1     -40.173  52.329 -52.547  1.00  0.00     0.037 A 
HETATM   16  C   UNL     1     -39.775  51.364 -51.618  1.00  0.00     0.066 A 
HETATM   17  C   UNL     1     -39.499  50.063 -52.040  1.00  0.00     0.067 A 
HETATM   18  C   UNL     1     -39.603  49.706 -53.378  1.00  0.00     0.036 A 
HETATM   19  C   UNL     1     -40.001  50.660 -54.310  1.00  0.00     0.005 A 
HETATM   20  C   UNL     1     -40.290  51.963 -53.896  1.00  0.00     0.029 A 
BRANCH  17  21
HETATM   21  O   UNL     1     -39.115  49.099 -51.154  1.00  0.00    -0.361 OA
HETATM   22  H   UNL     1     -38.989  49.514 -50.283  1.00  0.00     0.217 HD
ENDBRANCH  17  21
ENDBRANCH  12  15
ENDBRANCH   7  11
BRANCH   1  23
HETATM   23  C   UNL     1     -42.305  58.784 -54.487  1.00  0.00    -0.035 A 
HETATM   24  C   UNL     1     -43.529  58.116 -54.331  1.00  0.00     0.012 A 
HETATM   25  C   UNL     1     -44.721  58.682 -54.799  1.00  0.00     0.037 A 
HETATM   26  C   UNL     1     -44.718  59.923 -55.432  1.00  0.00     0.068 A 
HETATM   27  C   UNL     1     -43.506  60.571 -55.649  1.00  0.00     0.037 A 
HETATM   28  C   UNL     1     -42.312  60.004 -55.187  1.00  0.00     0.012 A 
BRANCH  26  29
HETATM   29  O   UNL     1     -45.947  60.389 -55.811  1.00  0.00    -0.356 OA
HETATM   30  C   UNL     1     -46.083  60.728 -57.187  1.00  0.00     0.210 C 
ENDBRANCH  26  29
ENDBRANCH   1  23
BRANCH   8  31
HETATM   31  C   UNL     1     -42.115  60.036 -51.348  1.00  0.00     0.409 C 
HETATM   32  F   UNL     1     -43.293  59.395 -51.452  1.00  0.00    -0.169 F 
HETATM   33  F   UNL     1     -42.101  60.662 -50.148  1.00  0.00    -0.169 F 
HETATM   34  F   UNL     1     -42.110  61.022 -52.284  1.00  0.00    -0.169 F 
ENDBRANCH   8  31
TORSDOF 6
ENDMDL
MODEL 4
REMARK VINA RESULT:      -8.2      2.515      2.925
REMARK  6 active torsions:
REMARK  status: ('A' for Active; 'I' for Inactive)
REMARK    1  A    between atoms: O_2  and  C_3 
REMARK    2  A    between atoms: C_6  and  C_7 
REMARK    3  A    between atoms: C_13  and  C_14 
REMARK       I    between atoms: C_14  and  N_15 
REMARK    4  A    between atoms: N_15  and  C_16 
REMARK    5  A    between atoms: C_18  and  O_19 
REMARK    6  A    between atoms: C_24  and  C_25 
ROOT
HETATM    1  C   UNL     1     -43.603  56.102 -52.413  1.00  0.00     0.118 C 
HETATM    2  N   UNL     1     -43.575  57.029 -53.555  1.00  0.00    -0.365 N 
HETATM    3  C   UNL     1     -43.008  58.264 -53.440  1.00  0.00     0.138 A 
HETATM    4  N   UNL     1     -42.530  58.722 -52.234  1.00  0.00    -0.240 N 
HETATM    5  N   UNL     1     -42.112  59.996 -52.262  1.00  0.00    -0.181 NA
HETATM    6  C   UNL     1     -42.263  60.339 -53.543  1.00  0.00     0.160 A 
HETATM    7  C   UNL     1     -42.821  59.305 -54.335  1.00  0.00     0.096 A 
HETATM    8  C   UNL     1     -42.660  58.018 -50.972  1.00  0.00     0.221 C 
HETATM    9  C   UNL     1     -43.706  56.897 -51.099  1.00  0.00     0.066 C 
HETATM   10  H   UNL     1     -44.392  56.923 -54.158  1.00  0.00     0.161 HD
ENDROOT
BRANCH   7  11
HETATM   11  C   UNL     1     -43.135  59.401 -55.754  1.00  0.00     0.261 C 
HETATM   12  N   UNL     1     -42.033  59.293 -56.580  1.00  0.00    -0.323 N 
HETATM   13  H   UNL     1     -41.136  59.294 -56.108  1.00  0.00     0.169 HD
HETATM   14  O   UNL     1     -44.293  59.560 -56.120  1.00  0.00    -0.267 OA
BRANCH  12  15
HETATM   15  C   UNL     1     -42.015  59.184 -57.986  1.00  0.00     0.037 A 
HETATM   16  C   UNL     1     -41.966  57.968 -58.673  1.00  0.00     0.066 A 
HETATM   17  C   UNL     1     -41.915  57.957 -60.066  1.00  0.00     0.067 A 
HETATM   18  C   UNL     1     -41.901  59.141 -60.792  1.00  0.00     0.036 A 
HETATM   19  C   UNL     1     -41.952  60.357 -60.117  1.00  0.00     0.005 A 
HETATM   20  C   UNL     1     -42.014  60.378 -58.721  1.00  0.00     0.029 A 
BRANCH  17  21
HETATM   21  O   UNL     1     -41.874  56.785 -60.764  1.00  0.00    -0.361 OA
HETATM   22  H   UNL     1     -42.325  56.919 -61.616  1.00  0.00     0.217 HD
ENDBRANCH  17  21
ENDBRANCH  12  15
ENDBRANCH   7  11
BRANCH   1  23
HETATM   23  C   UNL     1     -42.474  55.082 -52.445  1.00  0.00    -0.035 A 
HETATM   24  C   UNL     1     -42.252  54.156 -51.414  1.00  0.00     0.012 A 
HETATM   25  C   UNL     1     -41.236  53.199 -51.515  1.00  0.00     0.037 A 
HETATM   26  C   UNL     1     -40.421  53.143 -52.643  1.00  0.00     0.068 A 
HETATM   27  C   UNL     1     -40.587  54.091 -53.648  1.00  0.00     0.037 A 
HETATM   28  C   UNL     1     -41.599  55.054 -53.546  1.00  0.00     0.012 A 
BRANCH  26  29
HETATM   29  O   UNL     1     -39.489  52.141 -52.643  1.00  0.00    -0.356 OA
HETATM   30  C   UNL     1     -39.780  51.025 -53.478  1.00  0.00     0.210 C 
ENDBRANCH  26  29
ENDBRANCH   1  23
BRANCH   8  31
HETATM   31  C   UNL     1     -41.304  57.573 -50.474  1.00  0.00     0.409 C 
HETATM   32  F   UNL     1     -41.339  56.494 -49.671  1.00  0.00    -0.169 F 
HETATM   33  F   UNL     1     -40.461  57.289 -51.493  1.00  0.00    -0.169 F 
HETATM   34  F   UNL     1     -40.716  58.577 -49.771  1.00  0.00    -0.169 F 
ENDBRANCH   8  31
TORSDOF 6
ENDMDL
MODEL 5
REMARK VINA RESULT:      -8.0      2.776      4.969
REMARK  6 active torsions:
REMARK  status: ('A' for Active; 'I' for Inactive)
REMARK    1  A    between atoms: O_2  and  C_3 
REMARK    2  A    between atoms: C_6  and  C_7 
REMARK    3  A    between atoms: C_13  and  C_14 
REMARK       I    between atoms: C_14  and  N_15 
REMARK    4  A    between atoms: N_15  and  C_16 
REMARK    5  A    between atoms: C_18  and  O_19 
REMARK    6  A    between atoms: C_24  and  C_25 
ROOT
HETATM    1  C   UNL     1     -41.615  59.641 -53.509  1.00  0.00     0.118 C 
HETATM    2  N   UNL     1     -42.047  59.000 -54.761  1.00  0.00    -0.365 N 
HETATM    3  C   UNL     1     -41.933  57.651 -54.933  1.00  0.00     0.138 A 
HETATM    4  N   UNL     1     -41.326  56.859 -53.986  1.00  0.00    -0.240 N 
HETATM    5  N   UNL     1     -41.188  55.578 -54.355  1.00  0.00    -0.181 NA
HETATM    6  C   UNL     1     -41.789  55.536 -55.546  1.00  0.00     0.160 A 
HETATM    7  C   UNL     1     -42.275  56.798 -55.969  1.00  0.00     0.096 A 
HETATM    8  C   UNL     1     -40.669  57.355 -52.791  1.00  0.00     0.221 C 
HETATM    9  C   UNL     1     -40.425  58.869 -52.912  1.00  0.00     0.066 C 
HETATM   10  H   UNL     1     -41.913  59.606 -55.571  1.00  0.00     0.161 HD
ENDROOT
BRANCH   7  11
HETATM   11  C   UNL     1     -42.940  57.068 -57.236  1.00  0.00     0.261 C 
HETATM   12  N   UNL     1     -43.586  55.973 -57.776  1.00  0.00    -0.323 N 
HETATM   13  H   UNL     1     -43.413  55.093 -57.304  1.00  0.00     0.169 HD
HETATM   14  O   UNL     1     -42.897  58.190 -57.729  1.00  0.00    -0.267 OA
BRANCH  12  15
HETATM   15  C   UNL     1     -44.445  55.940 -58.893  1.00  0.00     0.037 A 
HETATM   16  C   UNL     1     -44.217  55.160 -60.030  1.00  0.00     0.066 A 
HETATM   17  C   UNL     1     -45.105  55.218 -61.104  1.00  0.00     0.067 A 
HETATM   18  C   UNL     1     -46.215  56.052 -61.072  1.00  0.00     0.036 A 
HETATM   19  C   UNL     1     -46.452  56.831 -59.943  1.00  0.00     0.005 A 
HETATM   20  C   UNL     1     -45.575  56.771 -58.857  1.00  0.00     0.029 A 
BRANCH  17  21
HETATM   21  O   UNL     1     -44.912  54.462 -62.224  1.00  0.00    -0.361 OA
HETATM   22  H   UNL     1     -44.515  55.026 -62.910  1.00  0.00     0.217 HD
ENDBRANCH  17  21
ENDBRANCH  12  15
ENDBRANCH   7  11
BRANCH   1  23
HETATM   23  C   UNL     1     -42.760  59.882 -52.537  1.00  0.00    -0.035 A 
HETATM   24  C   UNL     1     -44.078  59.476 -52.793  1.00  0.00     0.012 A 
HETATM   25  C   UNL     1     -45.088  59.668 -51.842  1.00  0.00     0.037 A 
HETATM   26  C   UNL     1     -44.805  60.268 -50.617  1.00  0.00     0.068 A 
HETATM   27  C   UNL     1     -43.517  60.732 -50.370  1.00  0.00     0.037 A 
HETATM   28  C   UNL     1     -42.508  60.546 -51.322  1.00  0.00     0.012 A 
BRANCH  26  29
HETATM   29  O   UNL     1     -45.864  60.367 -49.756  1.00  0.00    -0.356 OA
HETATM   30  C   UNL     1     -45.602  61.032 -48.526  1.00  0.00     0.210 C 
ENDBRANCH  26  29
ENDBRANCH   1  23
BRANCH   8  31
HETATM   31  C   UNL     1     -41.430  56.928 -51.556  1.00  0.00     0.409 C 
HETATM   32  F   UNL     1     -42.759  56.822 -51.736  1.00  0.00    -0.169 F 
HETATM   33  F   UNL     1     -40.992  55.738 -51.081  1.00  0.00    -0.169 F 
HETATM   34  F   UNL     1     -41.231  57.826 -50.555  1.00  0.00    -0.169 F 
ENDBRANCH   8  31
TORSDOF 6
ENDMDL
MODEL 6
REMARK VINA RESULT:      -8.0      3.089      3.937
REMARK  6 active torsions:
REMARK  status: ('A' for Active; 'I' for Inactive)
REMARK    1  A    between atoms: O_2  and  C_3 
REMARK    2  A    between atoms: C_6  and  C_7 
REMARK    3  A    between atoms: C_13  and  C_14 
REMARK       I    between atoms: C_14  and  N_15 
REMARK    4  A    between atoms: N_15  and  C_16 
REMARK    5  A    between atoms: C_18  and  O_19 
REMARK    6  A    between atoms: C_24  and  C_25 
ROOT
HETATM    1  C   UNL     1     -43.469  55.929 -54.727  1.00  0.00     0.118 C 
HETATM    2  N   UNL     1     -43.068  56.972 -55.684  1.00  0.00    -0.365 N 
HETATM    3  C   UNL     1     -42.629  58.189 -55.249  1.00  0.00     0.138 A 
HETATM    4  N   UNL     1     -42.637  58.515 -53.913  1.00  0.00    -0.240 N 
HETATM    5  N   UNL     1     -42.287  59.785 -53.661  1.00  0.00    -0.181 NA
HETATM    6  C   UNL     1     -41.979  60.264 -54.868  1.00  0.00     0.160 A 
HETATM    7  C   UNL     1     -42.173  59.320 -55.907  1.00  0.00     0.096 A 
HETATM    8  C   UNL     1     -43.185  57.681 -52.861  1.00  0.00     0.221 C 
HETATM    9  C   UNL     1     -44.070  56.579 -53.468  1.00  0.00     0.066 C 
HETATM   10  H   UNL     1     -43.608  56.931 -56.549  1.00  0.00     0.161 HD
ENDROOT
BRANCH   7  11
HETATM   11  C   UNL     1     -41.958  59.566 -57.326  1.00  0.00     0.261 C 
HETATM   12  N   UNL     1     -41.678  60.884 -57.631  1.00  0.00    -0.323 N 
HETATM   13  H   UNL     1     -41.785  61.538 -56.863  1.00  0.00     0.169 HD
HETATM   14  O   UNL     1     -42.028  58.644 -58.130  1.00  0.00    -0.267 OA
BRANCH  12  15
HETATM   15  C   UNL     1     -41.267  61.416 -58.870  1.00  0.00     0.037 A 
HETATM   16  C   UNL     1     -41.775  61.000 -60.104  1.00  0.00     0.066 A 
HETATM   17  C   UNL     1     -41.282  61.558 -61.283  1.00  0.00     0.067 A 
HETATM   18  C   UNL     1     -40.281  62.520 -61.257  1.00  0.00     0.036 A 
HETATM   19  C   UNL     1     -39.770  62.942 -60.033  1.00  0.00     0.005 A 
HETATM   20  C   UNL     1     -40.265  62.397 -58.845  1.00  0.00     0.029 A 
BRANCH  17  21
HETATM   21  O   UNL     1     -41.764  61.177 -62.502  1.00  0.00    -0.361 OA
HETATM   22  H   UNL     1     -41.034  60.784 -63.012  1.00  0.00     0.217 HD
ENDBRANCH  17  21
ENDBRANCH  12  15
ENDBRANCH   7  11
BRANCH   1  23
HETATM   23  C   UNL     1     -42.366  54.919 -54.449  1.00  0.00    -0.035 A 
HETATM   24  C   UNL     1     -42.445  53.965 -53.423  1.00  0.00     0.012 A 
HETATM   25  C   UNL     1     -41.429  53.018 -53.242  1.00  0.00     0.037 A 
HETATM   26  C   UNL     1     -40.315  53.002 -54.078  1.00  0.00     0.068 A 
HETATM   27  C   UNL     1     -40.191  53.979 -55.062  1.00  0.00     0.037 A 
HETATM   28  C   UNL     1     -41.202  54.930 -55.240  1.00  0.00     0.012 A 
BRANCH  26  29
HETATM   29  O   UNL     1     -39.410  52.008 -53.827  1.00  0.00    -0.356 OA
HETATM   30  C   UNL     1     -39.417  51.483 -52.505  1.00  0.00     0.210 C 
ENDBRANCH  26  29
ENDBRANCH   1  23
BRANCH   8  31
HETATM   31  C   UNL     1     -42.084  57.186 -51.951  1.00  0.00     0.409 C 
HETATM   32  F   UNL     1     -42.386  56.059 -51.281  1.00  0.00    -0.169 F 
HETATM   33  F   UNL     1     -40.936  56.956 -52.630  1.00  0.00    -0.169 F 
HETATM   34  F   UNL     1     -41.786  58.136 -51.024  1.00  0.00    -0.169 F 
ENDBRANCH   8  31
TORSDOF 6
ENDMDL
MODEL 7
REMARK VINA RESULT:      -7.7      4.573      7.481
REMARK  6 active torsions:
REMARK  status: ('A' for Active; 'I' for Inactive)
REMARK    1  A    between atoms: O_2  and  C_3 
REMARK    2  A    between atoms: C_6  and  C_7 
REMARK    3  A    between atoms: C_13  and  C_14 
REMARK       I    between atoms: C_14  and  N_15 
REMARK    4  A    between atoms: N_15  and  C_16 
REMARK    5  A    between atoms: C_18  and  O_19 
REMARK    6  A    between atoms: C_24  and  C_25 
ROOT
HETATM    1  C   UNL     1     -40.693  56.016 -53.421  1.00  0.00     0.118 C 
HETATM    2  N   UNL     1     -41.271  57.159 -52.698  1.00  0.00    -0.365 N 
HETATM    3  C   UNL     1     -42.588  57.485 -52.841  1.00  0.00     0.138 A 
HETATM    4  N   UNL     1     -43.396  56.819 -53.734  1.00  0.00    -0.240 N 
HETATM    5  N   UNL     1     -44.629  57.334 -53.841  1.00  0.00    -0.181 NA
HETATM    6  C   UNL     1     -44.631  58.315 -52.936  1.00  0.00     0.160 A 
HETATM    7  C   UNL     1     -43.386  58.466 -52.276  1.00  0.00     0.096 A 
HETATM    8  C   UNL     1     -42.938  55.805 -54.666  1.00  0.00     0.221 C 
HETATM    9  C   UNL     1     -41.405  55.842 -54.775  1.00  0.00     0.066 C 
HETATM   10  H   UNL     1     -40.596  57.913 -52.564  1.00  0.00     0.161 HD
ENDROOT
BRANCH   7  11
HETATM   11  C   UNL     1     -43.078  59.473 -51.271  1.00  0.00     0.261 C 
HETATM   12  N   UNL     1     -44.046  60.450 -51.140  1.00  0.00    -0.323 N 
HETATM   13  H   UNL     1     -44.781  60.428 -51.838  1.00  0.00     0.169 HD
HETATM   14  O   UNL     1     -42.037  59.405 -50.627  1.00  0.00    -0.267 OA
BRANCH  12  15
HETATM   15  C   UNL     1     -44.127  61.460 -50.159  1.00  0.00     0.037 A 
HETATM   16  C   UNL     1     -44.761  61.299 -48.924  1.00  0.00     0.066 A 
HETATM   17  C   UNL     1     -44.824  62.367 -48.029  1.00  0.00     0.067 A 
HETATM   18  C   UNL     1     -44.272  63.602 -48.347  1.00  0.00     0.036 A 
HETATM   19  C   UNL     1     -43.637  63.771 -49.573  1.00  0.00     0.005 A 
HETATM   20  C   UNL     1     -43.559  62.704 -50.473  1.00  0.00     0.029 A 
BRANCH  17  21
HETATM   21  O   UNL     1     -45.430  62.237 -46.813  1.00  0.00    -0.361 OA
HETATM   22  H   UNL     1     -46.171  61.613 -46.905  1.00  0.00     0.217 HD
ENDBRANCH  17  21
ENDBRANCH  12  15
ENDBRANCH   7  11
BRANCH   1  23
HETATM   23  C   UNL     1     -40.624  54.751 -52.579  1.00  0.00    -0.035 A 
HETATM   24  C   UNL     1     -40.291  53.496 -53.112  1.00  0.00     0.012 A 
HETATM   25  C   UNL     1     -40.183  52.371 -52.287  1.00  0.00     0.037 A 
HETATM   26  C   UNL     1     -40.404  52.471 -50.915  1.00  0.00     0.068 A 
HETATM   27  C   UNL     1     -40.795  53.694 -50.378  1.00  0.00     0.037 A 
HETATM   28  C   UNL     1     -40.909  54.820 -51.203  1.00  0.00     0.012 A 
BRANCH  26  29
HETATM   29  O   UNL     1     -40.233  51.312 -50.209  1.00  0.00    -0.356 OA
HETATM   30  C   UNL     1     -39.631  50.236 -50.920  1.00  0.00     0.210 C 
ENDBRANCH  26  29
ENDBRANCH   1  23
BRANCH   8  31
HETATM   31  C   UNL     1     -43.521  54.457 -54.306  1.00  0.00     0.409 C 
HETATM   32  F   UNL     1     -43.558  54.208 -52.984  1.00  0.00    -0.169 F 
HETATM   33  F   UNL     1     -44.780  54.310 -54.778  1.00  0.00    -0.169 F 
HETATM   34  F   UNL     1     -42.787  53.467 -54.880  1.00  0.00    -0.169 F 
ENDBRANCH   8  31
TORSDOF 6
ENDMDL
MODEL 8
REMARK VINA RESULT:      -7.7      3.551      7.704
REMARK  6 active torsions:
REMARK  status: ('A' for Active; 'I' for Inactive)
REMARK    1  A    between atoms: O_2  and  C_3 
REMARK    2  A    between atoms: C_6  and  C_7 
REMARK    3  A    between atoms: C_13  and  C_14 
REMARK       I    between atoms: C_14  and  N_15 
REMARK    4  A    between atoms: N_15  and  C_16 
REMARK    5  A    between atoms: C_18  and  O_19 
REMARK    6  A    between atoms: C_24  and  C_25 
ROOT
HETATM    1  C   UNL     1     -45.283  57.915 -54.159  1.00  0.00     0.118 C 
HETATM    2  N   UNL     1     -44.485  56.690 -53.994  1.00  0.00    -0.365 N 
HETATM    3  C   UNL     1     -43.583  56.309 -54.945  1.00  0.00     0.138 A 
HETATM    4  N   UNL     1     -43.459  56.998 -56.129  1.00  0.00    -0.240 N 
HETATM    5  N   UNL     1     -42.617  56.429 -57.004  1.00  0.00    -0.181 NA
HETATM    6  C   UNL     1     -42.136  55.383 -56.330  1.00  0.00     0.160 A 
HETATM    7  C   UNL     1     -42.700  55.246 -55.037  1.00  0.00     0.096 A 
HETATM    8  C   UNL     1     -44.306  58.103 -56.535  1.00  0.00     0.221 C 
HETATM    9  C   UNL     1     -45.565  58.155 -55.653  1.00  0.00     0.066 C 
HETATM   10  H   UNL     1     -44.991  55.965 -53.485  1.00  0.00     0.161 HD
ENDROOT
BRANCH   7  11
HETATM   11  C   UNL     1     -42.398  54.182 -54.090  1.00  0.00     0.261 C 
HETATM   12  N   UNL     1     -41.246  53.478 -54.385  1.00  0.00    -0.323 N 
HETATM   13  H   UNL     1     -40.826  53.693 -55.282  1.00  0.00     0.169 HD
HETATM   14  O   UNL     1     -43.137  53.979 -53.133  1.00  0.00    -0.267 OA
BRANCH  12  15
HETATM   15  C   UNL     1     -40.599  52.509 -53.591  1.00  0.00     0.037 A 
HETATM   16  C   UNL     1     -40.275  51.225 -54.038  1.00  0.00     0.066 A 
HETATM   17  C   UNL     1     -39.667  50.319 -53.170  1.00  0.00     0.067 A 
HETATM   18  C   UNL     1     -39.381  50.666 -51.856  1.00  0.00     0.036 A 
HETATM   19  C   UNL     1     -39.697  51.943 -51.402  1.00  0.00     0.005 A 
HETATM   20  C   UNL     1     -40.298  52.862 -52.267  1.00  0.00     0.029 A 
BRANCH  17  21
HETATM   21  O   UNL     1     -39.333  49.060 -53.581  1.00  0.00    -0.361 OA
HETATM   22  H   UNL     1     -40.074  48.700 -54.098  1.00  0.00     0.217 HD
ENDBRANCH  17  21
ENDBRANCH  12  15
ENDBRANCH   7  11
BRANCH   1  23
HETATM   23  C   UNL     1     -44.696  59.113 -53.429  1.00  0.00    -0.035 A 
HETATM   24  C   UNL     1     -43.476  59.064 -52.738  1.00  0.00     0.012 A 
HETATM   25  C   UNL     1     -42.948  60.209 -52.130  1.00  0.00     0.037 A 
HETATM   26  C   UNL     1     -43.623  61.425 -52.197  1.00  0.00     0.068 A 
HETATM   27  C   UNL     1     -44.863  61.479 -52.825  1.00  0.00     0.037 A 
HETATM   28  C   UNL     1     -45.396  60.334 -53.429  1.00  0.00     0.012 A 
BRANCH  26  29
HETATM   29  O   UNL     1     -42.990  62.480 -51.598  1.00  0.00    -0.356 OA
HETATM   30  C   UNL     1     -43.343  63.771 -52.082  1.00  0.00     0.210 C 
ENDBRANCH  26  29
ENDBRANCH   1  23
BRANCH   8  31
HETATM   31  C   UNL     1     -43.509  59.387 -56.587  1.00  0.00     0.409 C 
HETATM   32  F   UNL     1     -42.504  59.448 -55.695  1.00  0.00    -0.169 F 
HETATM   33  F   UNL     1     -42.974  59.599 -57.812  1.00  0.00    -0.169 F 
HETATM   34  F   UNL     1     -44.324  60.448 -56.346  1.00  0.00    -0.169 F 
ENDBRANCH   8  31
TORSDOF 6
ENDMDL
MODEL 9
REMARK VINA RESULT:      -7.6     15.986     19.550
REMARK  6 active torsions:
REMARK  status: ('A' for Active; 'I' for Inactive)
REMARK    1  A    between atoms: O_2  and  C_3 
REMARK    2  A    between atoms: C_6  and  C_7 
REMARK    3  A    between atoms: C_13  and  C_14 
REMARK       I    between atoms: C_14  and  N_15 
REMARK    4  A    between atoms: N_15  and  C_16 
REMARK    5  A    between atoms: C_18  and  O_19 
REMARK    6  A    between atoms: C_24  and  C_25 
ROOT
HETATM    1  C   UNL     1     -34.440  40.129 -56.860  1.00  0.00     0.118 C 
HETATM    2  N   UNL     1     -34.121  39.948 -55.436  1.00  0.00    -0.365 N 
HETATM    3  C   UNL     1     -34.697  40.735 -54.482  1.00  0.00     0.138 A 
HETATM    4  N   UNL     1     -35.519  41.784 -54.824  1.00  0.00    -0.240 N 
HETATM    5  N   UNL     1     -35.910  42.531 -53.781  1.00  0.00    -0.181 NA
HETATM    6  C   UNL     1     -35.378  41.897 -52.734  1.00  0.00     0.160 A 
HETATM    7  C   UNL     1     -34.605  40.768 -53.101  1.00  0.00     0.096 A 
HETATM    8  C   UNL     1     -35.777  42.224 -56.182  1.00  0.00     0.221 C 
HETATM    9  C   UNL     1     -34.742  41.612 -57.141  1.00  0.00     0.066 C 
HETATM   10  H   UNL     1     -33.159  39.636 -55.292  1.00  0.00     0.161 HD
ENDROOT
BRANCH   7  11
HETATM   11  C   UNL     1     -33.875  39.906 -52.181  1.00  0.00     0.261 C 
HETATM   12  N   UNL     1     -33.723  40.439 -50.915  1.00  0.00    -0.323 N 
HETATM   13  H   UNL     1     -34.013  41.404 -50.814  1.00  0.00     0.169 HD
HETATM   14  O   UNL     1     -33.461  38.815 -52.554  1.00  0.00    -0.267 OA
BRANCH  12  15
HETATM   15  C   UNL     1     -33.215  39.800 -49.765  1.00  0.00     0.037 A 
HETATM   16  C   UNL     1     -31.929  40.011 -49.260  1.00  0.00     0.066 A 
HETATM   17  C   UNL     1     -31.499  39.308 -48.135  1.00  0.00     0.067 A 
HETATM   18  C   UNL     1     -32.326  38.386 -47.507  1.00  0.00     0.036 A 
HETATM   19  C   UNL     1     -33.609  38.170 -48.001  1.00  0.00     0.005 A 
HETATM   20  C   UNL     1     -34.054  38.879 -49.121  1.00  0.00     0.029 A 
BRANCH  17  21
HETATM   21  O   UNL     1     -30.251  39.498 -47.615  1.00  0.00    -0.361 OA
HETATM   22  H   UNL     1     -30.177  40.425 -47.328  1.00  0.00     0.217 HD
ENDBRANCH  17  21
ENDBRANCH  12  15
ENDBRANCH   7  11
BRANCH   1  23
HETATM   23  C   UNL     1     -35.505  39.165 -57.361  1.00  0.00    -0.035 A 
HETATM   24  C   UNL     1     -36.144  38.234 -56.528  1.00  0.00     0.012 A 
HETATM   25  C   UNL     1     -37.160  37.407 -57.022  1.00  0.00     0.037 A 
HETATM   26  C   UNL     1     -37.559  37.489 -58.354  1.00  0.00     0.068 A 
HETATM   27  C   UNL     1     -36.895  38.364 -59.209  1.00  0.00     0.037 A 
HETATM   28  C   UNL     1     -35.875  39.188 -58.718  1.00  0.00     0.012 A 
BRANCH  26  29
HETATM   29  O   UNL     1     -38.586  36.658 -58.710  1.00  0.00    -0.356 OA
HETATM   30  C   UNL     1     -39.563  37.217 -59.580  1.00  0.00     0.210 C 
ENDBRANCH  26  29
ENDBRANCH   1  23
BRANCH   8  31
HETATM   31  C   UNL     1     -37.220  41.969 -56.554  1.00  0.00     0.409 C 
HETATM   32  F   UNL     1     -37.425  41.776 -57.869  1.00  0.00    -0.169 F 
HETATM   33  F   UNL     1     -37.725  40.894 -55.906  1.00  0.00    -0.169 F 
HETATM   34  F   UNL     1     -37.989  43.027 -56.180  1.00  0.00    -0.169 F 
ENDBRANCH   8  31
TORSDOF 6
ENDMDL
MODEL 10
REMARK VINA RESULT:      -7.6      2.606      7.376
REMARK  6 active torsions:
REMARK  status: ('A' for Active; 'I' for Inactive)
REMARK    1  A    between atoms: O_2  and  C_3 
REMARK    2  A    between atoms: C_6  and  C_7 
REMARK    3  A    between atoms: C_13  and  C_14 
REMARK       I    between atoms: C_14  and  N_15 
REMARK    4  A    between atoms: N_15  and  C_16 
REMARK    5  A    between atoms: C_18  and  O_19 
REMARK    6  A    between atoms: C_24  and  C_25 
ROOT
HETATM    1  C   UNL     1     -41.738  58.936 -54.669  1.00  0.00     0.118 C 
HETATM    2  N   UNL     1     -41.514  57.767 -53.804  1.00  0.00    -0.365 N 
HETATM    3  C   UNL     1     -42.378  57.471 -52.789  1.00  0.00     0.138 A 
HETATM    4  N   UNL     1     -43.427  58.305 -52.479  1.00  0.00    -0.240 N 
HETATM    5  N   UNL     1     -44.110  57.936 -51.386  1.00  0.00    -0.181 NA
HETATM    6  C   UNL     1     -43.521  56.793 -51.028  1.00  0.00     0.160 A 
HETATM    7  C   UNL     1     -42.428  56.446 -51.860  1.00  0.00     0.096 A 
HETATM    8  C   UNL     1     -43.671  59.594 -53.099  1.00  0.00     0.221 C 
HETATM    9  C   UNL     1     -42.420  60.057 -53.863  1.00  0.00     0.066 C 
HETATM   10  H   UNL     1     -40.522  57.568 -53.671  1.00  0.00     0.161 HD
ENDROOT
BRANCH   7  11
HETATM   11  C   UNL     1     -41.574  55.278 -51.693  1.00  0.00     0.261 C 
HETATM   12  N   UNL     1     -41.792  54.284 -52.627  1.00  0.00    -0.323 N 
HETATM   13  H   UNL     1     -42.598  54.424 -53.227  1.00  0.00     0.169 HD
HETATM   14  O   UNL     1     -40.751  55.241 -50.786  1.00  0.00    -0.267 OA
BRANCH  12  15
HETATM   15  C   UNL     1     -41.034  53.115 -52.838  1.00  0.00     0.037 A 
HETATM   16  C   UNL     1     -40.452  52.367 -51.810  1.00  0.00     0.066 A 
HETATM   17  C   UNL     1     -39.686  51.242 -52.115  1.00  0.00     0.067 A 
HETATM   18  C   UNL     1     -39.481  50.850 -53.432  1.00  0.00     0.036 A 
HETATM   19  C   UNL     1     -40.059  51.587 -54.462  1.00  0.00     0.005 A 
HETATM   20  C   UNL     1     -40.836  52.710 -54.166  1.00  0.00     0.029 A 
BRANCH  17  21
HETATM   21  O   UNL     1     -39.112  50.489 -51.132  1.00  0.00    -0.361 OA
HETATM   22  H   UNL     1     -39.819  50.111 -50.582  1.00  0.00     0.217 HD
ENDBRANCH  17  21
ENDBRANCH  12  15
ENDBRANCH   7  11
BRANCH   1  23
HETATM   23  C   UNL     1     -42.433  58.588 -55.976  1.00  0.00    -0.035 A 
HETATM   24  C   UNL     1     -42.888  57.295 -56.278  1.00  0.00     0.012 A 
HETATM   25  C   UNL     1     -43.574  57.035 -57.470  1.00  0.00     0.037 A 
HETATM   26  C   UNL     1     -43.822  58.056 -58.385  1.00  0.00     0.068 A 
HETATM   27  C   UNL     1     -43.326  59.331 -58.130  1.00  0.00     0.037 A 
HETATM   28  C   UNL     1     -42.634  59.591 -56.941  1.00  0.00     0.012 A 
BRANCH  26  29
HETATM   29  O   UNL     1     -44.534  57.688 -59.493  1.00  0.00    -0.356 OA
HETATM   30  C   UNL     1     -43.882  56.781 -60.376  1.00  0.00     0.210 C 
ENDBRANCH  26  29
ENDBRANCH   1  23
BRANCH   8  31
HETATM   31  C   UNL     1     -44.941  59.553 -53.918  1.00  0.00     0.409 C 
HETATM   32  F   UNL     1     -44.935  60.372 -54.985  1.00  0.00    -0.169 F 
HETATM   33  F   UNL     1     -45.210  58.306 -54.369  1.00  0.00    -0.169 F 
HETATM   34  F   UNL     1     -46.002  59.909 -53.146  1.00  0.00    -0.169 F 
ENDBRANCH   8  31
TORSDOF 6
ENDMDL
