MODEL 1
REMARK VINA RESULT:      -8.4      0.000      0.000
REMARK  4 active torsions:
REMARK  status: ('A' for Active; 'I' for Inactive)
REMARK    1  A    between atoms: C_6  and  N_7 
REMARK       I    between atoms: N_7  and  C_8 
REMARK    2  A    between atoms: C_8  and  C_9 
REMARK    3  A    between atoms: C_10  and  C_11 
REMARK    4  A    between atoms: C_12  and  O_13 
ROOT
HETATM    1  C   UNL     1     -42.041  57.362 -52.579  1.00  0.00     0.063 C 
HETATM    2  C   UNL     1     -43.259  57.762 -53.406  1.00  0.00     0.205 C 
HETATM    3  N   UNL     1     -44.160  58.614 -52.615  1.00  0.00    -0.084 N 
HETATM    4  C   UNL     1     -43.832  59.155 -51.398  1.00  0.00     0.725 A 
HETATM    5  N   UNL     1     -42.631  58.879 -50.852  1.00  0.00    -0.192 N 
HETATM    6  N   UNL     1     -45.437  58.902 -52.947  1.00  0.00    -0.149 NA
HETATM    7  C   UNL     1     -45.787  59.687 -51.921  1.00  0.00     0.275 A 
HETATM    8  N   UNL     1     -44.837  59.863 -50.950  1.00  0.00    -0.054 NA
HETATM    9  C   UNL     1     -41.756  57.939 -51.385  1.00  0.00     0.037 C 
HETATM   10  C   UNL     1     -40.529  57.638 -50.564  1.00  0.00     0.070 C 
HETATM   11  H   UNL     1     -42.420  59.256 -49.933  1.00  0.00     0.184 HD
ENDROOT
BRANCH   1  12
HETATM   12  C   UNL     1     -41.226  56.257 -53.141  1.00  0.00     0.256 C 
HETATM   13  N   UNL     1     -41.572  55.038 -52.591  1.00  0.00    -0.323 N 
HETATM   14  H   UNL     1     -42.282  55.055 -51.872  1.00  0.00     0.169 HD
HETATM   15  O   UNL     1     -40.375  56.492 -53.984  1.00  0.00    -0.267 OA
BRANCH  13  16
HETATM   16  C   UNL     1     -41.046  53.763 -52.911  1.00  0.00     0.041 A 
HETATM   17  C   UNL     1     -40.246  53.098 -51.956  1.00  0.00    -0.035 A 
HETATM   18  C   UNL     1     -39.738  51.818 -52.249  1.00  0.00     0.015 A 
HETATM   19  C   UNL     1     -39.907  53.707 -50.621  1.00  0.00     0.050 C 
HETATM   20  C   UNL     1     -39.997  51.197 -53.475  1.00  0.00    -0.061 A 
HETATM   21  C   UNL     1     -39.485  49.817 -53.757  1.00  0.00     0.048 C 
HETATM   22  C   UNL     1     -40.795  51.859 -54.408  1.00  0.00     0.009 A 
HETATM   23  C   UNL     1     -41.307  53.131 -54.130  1.00  0.00     0.030 A 
ENDBRANCH  13  16
ENDBRANCH   1  12
BRANCH   2  24
HETATM   24  C   UNL     1     -42.904  58.473 -54.709  1.00  0.00     0.005 A 
HETATM   25  C   UNL     1     -43.062  57.825 -55.951  1.00  0.00     0.076 A 
HETATM   26  C   UNL     1     -42.726  58.498 -57.131  1.00  0.00     0.037 A 
HETATM   27  C   UNL     1     -42.248  59.810 -57.091  1.00  0.00     0.003 A 
HETATM   28  C   UNL     1     -42.099  60.460 -55.872  1.00  0.00     0.001 A 
HETATM   29  C   UNL     1     -42.424  59.800 -54.690  1.00  0.00     0.012 A 
BRANCH  25  30
HETATM   30  O   UNL     1     -43.531  56.538 -55.903  1.00  0.00    -0.355 OA
HETATM   31  C   UNL     1     -42.750  55.536 -56.544  1.00  0.00     0.210 C 
ENDBRANCH  25  30
ENDBRANCH   2  24
TORSDOF 4
ENDMDL
MODEL 2
REMARK VINA RESULT:      -8.2      2.547      5.985
REMARK  4 active torsions:
REMARK  status: ('A' for Active; 'I' for Inactive)
REMARK    1  A    between atoms: C_6  and  N_7 
REMARK       I    between atoms: N_7  and  C_8 
REMARK    2  A    between atoms: C_8  and  C_9 
REMARK    3  A    between atoms: C_10  and  C_11 
REMARK    4  A    between atoms: C_12  and  O_13 
ROOT
HETATM    1  C   UNL     1     -41.987  54.686 -53.189  1.00  0.00     0.063 C 
HETATM    2  C   UNL     1     -42.275  55.479 -51.919  1.00  0.00     0.205 C 
HETATM    3  N   UNL     1     -41.496  54.945 -50.792  1.00  0.00    -0.084 N 
HETATM    4  C   UNL     1     -40.487  54.026 -50.924  1.00  0.00     0.725 A 
HETATM    5  N   UNL     1     -40.192  53.536 -52.145  1.00  0.00    -0.192 N 
HETATM    6  N   UNL     1     -41.724  55.232 -49.492  1.00  0.00    -0.149 NA
HETATM    7  C   UNL     1     -40.762  54.509 -48.907  1.00  0.00     0.275 A 
HETATM    8  N   UNL     1     -39.987  53.753 -49.747  1.00  0.00    -0.054 NA
HETATM    9  C   UNL     1     -40.967  53.796 -53.271  1.00  0.00     0.037 C 
HETATM   10  C   UNL     1     -40.589  53.043 -54.520  1.00  0.00     0.070 C 
HETATM   11  H   UNL     1     -39.469  52.827 -52.220  1.00  0.00     0.184 HD
ENDROOT
BRANCH   1  12
HETATM   12  C   UNL     1     -42.936  54.911 -54.308  1.00  0.00     0.256 C 
HETATM   13  N   UNL     1     -42.441  55.822 -55.220  1.00  0.00    -0.323 N 
HETATM   14  H   UNL     1     -41.547  56.238 -55.000  1.00  0.00     0.169 HD
HETATM   15  O   UNL     1     -44.002  54.317 -54.335  1.00  0.00    -0.267 OA
BRANCH  13  16
HETATM   16  C   UNL     1     -43.041  56.251 -56.428  1.00  0.00     0.041 A 
HETATM   17  C   UNL     1     -43.694  57.503 -56.457  1.00  0.00    -0.035 A 
HETATM   18  C   UNL     1     -44.272  57.955 -57.659  1.00  0.00     0.015 A 
HETATM   19  C   UNL     1     -43.801  58.386 -55.242  1.00  0.00     0.050 C 
HETATM   20  C   UNL     1     -44.226  57.181 -58.823  1.00  0.00    -0.061 A 
HETATM   21  C   UNL     1     -44.809  57.693 -60.106  1.00  0.00     0.048 C 
HETATM   22  C   UNL     1     -43.573  55.950 -58.785  1.00  0.00     0.009 A 
HETATM   23  C   UNL     1     -42.993  55.488 -57.599  1.00  0.00     0.030 A 
ENDBRANCH  13  16
ENDBRANCH   1  12
BRANCH   2  24
HETATM   24  C   UNL     1     -42.006  56.975 -52.059  1.00  0.00     0.005 A 
HETATM   25  C   UNL     1     -42.938  57.923 -51.592  1.00  0.00     0.076 A 
HETATM   26  C   UNL     1     -42.668  59.289 -51.735  1.00  0.00     0.037 A 
HETATM   27  C   UNL     1     -41.478  59.720 -52.326  1.00  0.00     0.003 A 
HETATM   28  C   UNL     1     -40.548  58.793 -52.781  1.00  0.00     0.001 A 
HETATM   29  C   UNL     1     -40.808  57.431 -52.649  1.00  0.00     0.012 A 
BRANCH  25  30
HETATM   30  O   UNL     1     -44.082  57.418 -51.031  1.00  0.00    -0.355 OA
HETATM   31  C   UNL     1     -45.295  58.118 -51.281  1.00  0.00     0.210 C 
ENDBRANCH  25  30
ENDBRANCH   2  24
TORSDOF 4
ENDMDL
MODEL 3
REMARK VINA RESULT:      -8.1      2.818      4.892
REMARK  4 active torsions:
REMARK  status: ('A' for Active; 'I' for Inactive)
REMARK    1  A    between atoms: C_6  and  N_7 
REMARK       I    between atoms: N_7  and  C_8 
REMARK    2  A    between atoms: C_8  and  C_9 
REMARK    3  A    between atoms: C_10  and  C_11 
REMARK    4  A    between atoms: C_12  and  O_13 
ROOT
HETATM    1  C   UNL     1     -42.652  56.753 -57.044  1.00  0.00     0.063 C 
HETATM    2  C   UNL     1     -42.141  58.057 -56.440  1.00  0.00     0.205 C 
HETATM    3  N   UNL     1     -41.974  59.077 -57.485  1.00  0.00    -0.084 N 
HETATM    4  C   UNL     1     -42.434  58.942 -58.770  1.00  0.00     0.725 A 
HETATM    5  N   UNL     1     -43.051  57.801 -59.136  1.00  0.00    -0.192 N 
HETATM    6  N   UNL     1     -41.285  60.230 -57.335  1.00  0.00    -0.149 NA
HETATM    7  C   UNL     1     -41.443  60.772 -58.548  1.00  0.00     0.275 A 
HETATM    8  N   UNL     1     -42.135  60.014 -59.457  1.00  0.00    -0.054 NA
HETATM    9  C   UNL     1     -43.109  56.677 -58.318  1.00  0.00     0.037 C 
HETATM   10  C   UNL     1     -43.695  55.437 -58.942  1.00  0.00     0.070 C 
HETATM   11  H   UNL     1     -43.351  57.701 -60.101  1.00  0.00     0.184 HD
ENDROOT
BRANCH   1  12
HETATM   12  C   UNL     1     -42.557  55.564 -56.162  1.00  0.00     0.256 C 
HETATM   13  N   UNL     1     -41.319  55.476 -55.557  1.00  0.00    -0.323 N 
HETATM   14  H   UNL     1     -40.643  56.182 -55.812  1.00  0.00     0.169 HD
HETATM   15  O   UNL     1     -43.511  54.809 -56.048  1.00  0.00    -0.267 OA
BRANCH  13  16
HETATM   16  C   UNL     1     -40.878  54.507 -54.624  1.00  0.00     0.041 A 
HETATM   17  C   UNL     1     -41.158  54.704 -53.254  1.00  0.00    -0.035 A 
HETATM   18  C   UNL     1     -40.749  53.736 -52.317  1.00  0.00     0.015 A 
HETATM   19  C   UNL     1     -41.884  55.921 -52.745  1.00  0.00     0.050 C 
HETATM   20  C   UNL     1     -40.056  52.588 -52.715  1.00  0.00    -0.061 A 
HETATM   21  C   UNL     1     -39.664  51.545 -51.711  1.00  0.00     0.048 C 
HETATM   22  C   UNL     1     -39.791  52.400 -54.070  1.00  0.00     0.009 A 
HETATM   23  C   UNL     1     -40.192  53.352 -55.013  1.00  0.00     0.030 A 
ENDBRANCH  13  16
ENDBRANCH   1  12
BRANCH   2  24
HETATM   24  C   UNL     1     -43.035  58.608 -55.332  1.00  0.00     0.005 A 
HETATM   25  C   UNL     1     -42.478  59.186 -54.174  1.00  0.00     0.076 A 
HETATM   26  C   UNL     1     -43.320  59.681 -53.172  1.00  0.00     0.037 A 
HETATM   27  C   UNL     1     -44.709  59.618 -53.315  1.00  0.00     0.003 A 
HETATM   28  C   UNL     1     -45.268  59.058 -54.457  1.00  0.00     0.001 A 
HETATM   29  C   UNL     1     -44.440  58.557 -55.459  1.00  0.00     0.012 A 
BRANCH  25  30
HETATM   30  O   UNL     1     -41.109  59.204 -54.109  1.00  0.00    -0.355 OA
HETATM   31  C   UNL     1     -40.518  59.182 -52.815  1.00  0.00     0.210 C 
ENDBRANCH  25  30
ENDBRANCH   2  24
TORSDOF 4
ENDMDL
MODEL 4
REMARK VINA RESULT:      -8.1      2.593      4.745
REMARK  4 active torsions:
REMARK  status: ('A' for Active; 'I' for Inactive)
REMARK    1  A    between atoms: C_6  and  N_7 
REMARK       I    between atoms: N_7  and  C_8 
REMARK    2  A    between atoms: C_8  and  C_9 
REMARK    3  A    between atoms: C_10  and  C_11 
REMARK    4  A    between atoms: C_12  and  O_13 
ROOT
HETATM    1  C   UNL     1     -42.280  56.242 -55.381  1.00  0.00     0.063 C 
HETATM    2  C   UNL     1     -42.258  57.734 -55.699  1.00  0.00     0.205 C 
HETATM    3  N   UNL     1     -42.892  57.990 -57.000  1.00  0.00    -0.084 N 
HETATM    4  C   UNL     1     -43.604  57.054 -57.705  1.00  0.00     0.725 A 
HETATM    5  N   UNL     1     -43.717  55.802 -57.217  1.00  0.00    -0.192 N 
HETATM    6  N   UNL     1     -42.789  59.145 -57.694  1.00  0.00    -0.149 NA
HETATM    7  C   UNL     1     -43.531  58.854 -58.768  1.00  0.00     0.275 A 
HETATM    8  N   UNL     1     -44.043  57.584 -58.817  1.00  0.00    -0.054 NA
HETATM    9  C   UNL     1     -43.012  55.359 -56.103  1.00  0.00     0.037 C 
HETATM   10  C   UNL     1     -43.131  53.890 -55.788  1.00  0.00     0.070 C 
HETATM   11  H   UNL     1     -44.214  55.111 -57.770  1.00  0.00     0.184 HD
ENDROOT
BRANCH   1  12
HETATM   12  C   UNL     1     -41.398  55.817 -54.265  1.00  0.00     0.256 C 
HETATM   13  N   UNL     1     -42.109  55.631 -53.096  1.00  0.00    -0.323 N 
HETATM   14  H   UNL     1     -43.097  55.839 -53.133  1.00  0.00     0.169 HD
HETATM   15  O   UNL     1     -40.200  55.676 -54.452  1.00  0.00    -0.267 OA
BRANCH  13  16
HETATM   16  C   UNL     1     -41.618  55.189 -51.844  1.00  0.00     0.041 A 
HETATM   17  C   UNL     1     -41.852  55.984 -50.701  1.00  0.00    -0.035 A 
HETATM   18  C   UNL     1     -41.393  55.543 -49.445  1.00  0.00     0.015 A 
HETATM   19  C   UNL     1     -42.580  57.301 -50.768  1.00  0.00     0.050 C 
HETATM   20  C   UNL     1     -40.694  54.340 -49.309  1.00  0.00    -0.061 A 
HETATM   21  C   UNL     1     -40.248  53.862 -47.959  1.00  0.00     0.048 C 
HETATM   22  C   UNL     1     -40.475  53.559 -50.443  1.00  0.00     0.009 A 
HETATM   23  C   UNL     1     -40.926  53.983 -51.697  1.00  0.00     0.030 A 
ENDBRANCH  13  16
ENDBRANCH   1  12
BRANCH   2  24
HETATM   24  C   UNL     1     -42.925  58.596 -54.630  1.00  0.00     0.005 A 
HETATM   25  C   UNL     1     -42.157  59.419 -53.784  1.00  0.00     0.076 A 
HETATM   26  C   UNL     1     -42.793  60.198 -52.810  1.00  0.00     0.037 A 
HETATM   27  C   UNL     1     -44.184  60.174 -52.678  1.00  0.00     0.003 A 
HETATM   28  C   UNL     1     -44.951  59.373 -53.515  1.00  0.00     0.001 A 
HETATM   29  C   UNL     1     -44.329  58.589 -54.484  1.00  0.00     0.012 A 
BRANCH  25  30
HETATM   30  O   UNL     1     -40.800  59.380 -53.974  1.00  0.00    -0.355 OA
HETATM   31  C   UNL     1     -40.003  58.918 -52.890  1.00  0.00     0.210 C 
ENDBRANCH  25  30
ENDBRANCH   2  24
TORSDOF 4
ENDMDL
MODEL 5
REMARK VINA RESULT:      -7.9      2.234      4.194
REMARK  4 active torsions:
REMARK  status: ('A' for Active; 'I' for Inactive)
REMARK    1  A    between atoms: C_6  and  N_7 
REMARK       I    between atoms: N_7  and  C_8 
REMARK    2  A    between atoms: C_8  and  C_9 
REMARK    3  A    between atoms: C_10  and  C_11 
REMARK    4  A    between atoms: C_12  and  O_13 
ROOT
HETATM    1  C   UNL     1     -41.702  56.267 -55.193  1.00  0.00     0.063 C 
HETATM    2  C   UNL     1     -41.406  57.696 -54.748  1.00  0.00     0.205 C 
HETATM    3  N   UNL     1     -42.168  58.655 -55.562  1.00  0.00    -0.084 N 
HETATM    4  C   UNL     1     -43.169  58.300 -56.429  1.00  0.00     0.725 A 
HETATM    5  N   UNL     1     -43.473  56.997 -56.594  1.00  0.00    -0.192 N 
HETATM    6  N   UNL     1     -41.927  59.983 -55.615  1.00  0.00    -0.149 NA
HETATM    7  C   UNL     1     -42.874  60.372 -56.475  1.00  0.00     0.275 A 
HETATM    8  N   UNL     1     -43.652  59.373 -57.001  1.00  0.00    -0.054 NA
HETATM    9  C   UNL     1     -42.714  55.969 -56.045  1.00  0.00     0.037 C 
HETATM   10  C   UNL     1     -43.099  54.572 -56.457  1.00  0.00     0.070 C 
HETATM   11  H   UNL     1     -44.190  56.749 -57.269  1.00  0.00     0.184 HD
ENDROOT
BRANCH   1  12
HETATM   12  C   UNL     1     -40.769  55.235 -54.677  1.00  0.00     0.256 C 
HETATM   13  N   UNL     1     -41.380  54.413 -53.750  1.00  0.00    -0.323 N 
HETATM   14  H   UNL     1     -42.337  54.634 -53.516  1.00  0.00     0.169 HD
HETATM   15  O   UNL     1     -39.617  55.194 -55.081  1.00  0.00    -0.267 OA
BRANCH  13  16
HETATM   16  C   UNL     1     -40.821  53.298 -53.080  1.00  0.00     0.041 A 
HETATM   17  C   UNL     1     -40.706  53.337 -51.673  1.00  0.00    -0.035 A 
HETATM   18  C   UNL     1     -40.177  52.225 -50.991  1.00  0.00     0.015 A 
HETATM   19  C   UNL     1     -41.128  54.533 -50.861  1.00  0.00     0.050 C 
HETATM   20  C   UNL     1     -39.749  51.086 -51.680  1.00  0.00    -0.061 A 
HETATM   21  C   UNL     1     -39.227  49.893 -50.937  1.00  0.00     0.048 C 
HETATM   22  C   UNL     1     -39.874  51.055 -53.068  1.00  0.00     0.009 A 
HETATM   23  C   UNL     1     -40.398  52.152 -53.760  1.00  0.00     0.030 A 
ENDBRANCH  13  16
ENDBRANCH   1  12
BRANCH   2  24
HETATM   24  C   UNL     1     -41.692  57.946 -53.269  1.00  0.00     0.005 A 
HETATM   25  C   UNL     1     -40.760  58.622 -52.458  1.00  0.00     0.076 A 
HETATM   26  C   UNL     1     -41.045  58.837 -51.105  1.00  0.00     0.037 A 
HETATM   27  C   UNL     1     -42.251  58.396 -50.554  1.00  0.00     0.003 A 
HETATM   28  C   UNL     1     -43.181  57.736 -51.348  1.00  0.00     0.001 A 
HETATM   29  C   UNL     1     -42.906  57.512 -52.695  1.00  0.00     0.012 A 
BRANCH  25  30
HETATM   30  O   UNL     1     -39.600  59.017 -53.074  1.00  0.00    -0.355 OA
HETATM   31  C   UNL     1     -38.458  59.211 -52.248  1.00  0.00     0.210 C 
ENDBRANCH  25  30
ENDBRANCH   2  24
TORSDOF 4
ENDMDL
MODEL 6
REMARK VINA RESULT:      -7.8      2.094      5.923
REMARK  4 active torsions:
REMARK  status: ('A' for Active; 'I' for Inactive)
REMARK    1  A    between atoms: C_6  and  N_7 
REMARK       I    between atoms: N_7  and  C_8 
REMARK    2  A    between atoms: C_8  and  C_9 
REMARK    3  A    between atoms: C_10  and  C_11 
REMARK    4  A    between atoms: C_12  and  O_13 
ROOT
HETATM    1  C   UNL     1     -43.151  57.782 -52.945  1.00  0.00     0.063 C 
HETATM    2  C   UNL     1     -41.705  57.441 -52.600  1.00  0.00     0.205 C 
HETATM    3  N   UNL     1     -41.153  58.432 -51.665  1.00  0.00    -0.084 N 
HETATM    4  C   UNL     1     -41.904  59.381 -51.020  1.00  0.00     0.725 A 
HETATM    5  N   UNL     1     -43.227  59.458 -51.266  1.00  0.00    -0.192 N 
HETATM    6  N   UNL     1     -39.840  58.579 -51.385  1.00  0.00    -0.149 NA
HETATM    7  C   UNL     1     -39.886  59.585 -50.504  1.00  0.00     0.275 A 
HETATM    8  N   UNL     1     -41.129  60.108 -50.257  1.00  0.00    -0.054 NA
HETATM    9  C   UNL     1     -43.854  58.723 -52.267  1.00  0.00     0.037 C 
HETATM   10  C   UNL     1     -45.305  59.047 -52.513  1.00  0.00     0.070 C 
HETATM   11  H   UNL     1     -43.762  60.192 -50.811  1.00  0.00     0.184 HD
ENDROOT
BRANCH   1  12
HETATM   12  C   UNL     1     -43.715  57.058 -54.111  1.00  0.00     0.256 C 
HETATM   13  N   UNL     1     -43.305  57.618 -55.305  1.00  0.00    -0.323 N 
HETATM   14  H   UNL     1     -42.727  58.444 -55.239  1.00  0.00     0.169 HD
HETATM   15  O   UNL     1     -44.445  56.094 -53.938  1.00  0.00    -0.267 OA
BRANCH  13  16
HETATM   16  C   UNL     1     -43.602  57.175 -56.616  1.00  0.00     0.041 A 
HETATM   17  C   UNL     1     -44.617  57.835 -57.344  1.00  0.00    -0.035 A 
HETATM   18  C   UNL     1     -44.905  57.423 -58.659  1.00  0.00     0.015 A 
HETATM   19  C   UNL     1     -45.415  58.974 -56.766  1.00  0.00     0.050 C 
HETATM   20  C   UNL     1     -44.217  56.361 -59.255  1.00  0.00    -0.061 A 
HETATM   21  C   UNL     1     -44.506  55.961 -60.671  1.00  0.00     0.048 C 
HETATM   22  C   UNL     1     -43.213  55.721 -58.531  1.00  0.00     0.009 A 
HETATM   23  C   UNL     1     -42.914  56.120 -57.223  1.00  0.00     0.030 A 
ENDBRANCH  13  16
ENDBRANCH   1  12
BRANCH   2  24
HETATM   24  C   UNL     1     -41.531  56.041 -52.018  1.00  0.00     0.005 A 
HETATM   25  C   UNL     1     -40.962  55.005 -52.786  1.00  0.00     0.076 A 
HETATM   26  C   UNL     1     -40.816  53.729 -52.229  1.00  0.00     0.037 A 
HETATM   27  C   UNL     1     -41.218  53.477 -50.915  1.00  0.00     0.003 A 
HETATM   28  C   UNL     1     -41.772  54.494 -50.147  1.00  0.00     0.001 A 
HETATM   29  C   UNL     1     -41.927  55.766 -50.692  1.00  0.00     0.012 A 
BRANCH  25  30
HETATM   30  O   UNL     1     -40.599  55.334 -54.066  1.00  0.00    -0.355 OA
HETATM   31  C   UNL     1     -40.220  54.269 -54.929  1.00  0.00     0.210 C 
ENDBRANCH  25  30
ENDBRANCH   2  24
TORSDOF 4
ENDMDL
MODEL 7
REMARK VINA RESULT:      -7.4      3.058      5.128
REMARK  4 active torsions:
REMARK  status: ('A' for Active; 'I' for Inactive)
REMARK    1  A    between atoms: C_6  and  N_7 
REMARK       I    between atoms: N_7  and  C_8 
REMARK    2  A    between atoms: C_8  and  C_9 
REMARK    3  A    between atoms: C_10  and  C_11 
REMARK    4  A    between atoms: C_12  and  O_13 
ROOT
HETATM    1  C   UNL     1     -42.665  57.691 -56.625  1.00  0.00     0.063 C 
HETATM    2  C   UNL     1     -42.314  59.140 -56.303  1.00  0.00     0.205 C 
HETATM    3  N   UNL     1     -41.892  59.848 -57.520  1.00  0.00    -0.084 N 
HETATM    4  C   UNL     1     -42.025  59.342 -58.788  1.00  0.00     0.725 A 
HETATM    5  N   UNL     1     -42.537  58.106 -58.958  1.00  0.00    -0.192 N 
HETATM    6  N   UNL     1     -41.258  61.040 -57.537  1.00  0.00    -0.149 NA
HETATM    7  C   UNL     1     -41.112  61.224 -58.855  1.00  0.00     0.275 A 
HETATM    8  N   UNL     1     -41.563  60.206 -59.654  1.00  0.00    -0.054 NA
HETATM    9  C   UNL     1     -42.796  57.244 -57.898  1.00  0.00     0.037 C 
HETATM   10  C   UNL     1     -43.215  55.846 -58.273  1.00  0.00     0.070 C 
HETATM   11  H   UNL     1     -42.591  57.731 -59.900  1.00  0.00     0.184 HD
ENDROOT
BRANCH   1  12
HETATM   12  C   UNL     1     -42.794  56.792 -55.451  1.00  0.00     0.256 C 
HETATM   13  N   UNL     1     -41.559  56.438 -54.943  1.00  0.00    -0.323 N 
HETATM   14  H   UNL     1     -40.752  56.789 -55.439  1.00  0.00     0.169 HD
HETATM   15  O   UNL     1     -43.899  56.458 -55.054  1.00  0.00    -0.267 OA
BRANCH  13  16
HETATM   16  C   UNL     1     -41.287  55.635 -53.809  1.00  0.00     0.041 A 
HETATM   17  C   UNL     1     -40.654  54.386 -53.995  1.00  0.00    -0.035 A 
HETATM   18  C   UNL     1     -40.353  53.589 -52.875  1.00  0.00     0.015 A 
HETATM   19  C   UNL     1     -40.285  53.863 -55.358  1.00  0.00     0.050 C 
HETATM   20  C   UNL     1     -40.682  54.002 -51.580  1.00  0.00    -0.061 A 
HETATM   21  C   UNL     1     -40.317  53.162 -50.392  1.00  0.00     0.048 C 
HETATM   22  C   UNL     1     -41.299  55.240 -51.406  1.00  0.00     0.009 A 
HETATM   23  C   UNL     1     -41.604  56.044 -52.510  1.00  0.00     0.030 A 
ENDBRANCH  13  16
ENDBRANCH   1  12
BRANCH   2  24
HETATM   24  C   UNL     1     -43.451  59.909 -55.636  1.00  0.00     0.005 A 
HETATM   25  C   UNL     1     -43.263  60.535 -54.387  1.00  0.00     0.076 A 
HETATM   26  C   UNL     1     -44.323  61.233 -53.796  1.00  0.00     0.037 A 
HETATM   27  C   UNL     1     -45.561  61.323 -54.437  1.00  0.00     0.003 A 
HETATM   28  C   UNL     1     -45.752  60.717 -55.673  1.00  0.00     0.001 A 
HETATM   29  C   UNL     1     -44.707  60.016 -56.270  1.00  0.00     0.012 A 
BRANCH  25  30
HETATM   30  O   UNL     1     -42.022  60.394 -53.822  1.00  0.00    -0.355 OA
HETATM   31  C   UNL     1     -41.945  59.691 -52.588  1.00  0.00     0.210 C 
ENDBRANCH  25  30
ENDBRANCH   2  24
TORSDOF 4
ENDMDL
MODEL 8
REMARK VINA RESULT:      -7.3      2.373      6.307
REMARK  4 active torsions:
REMARK  status: ('A' for Active; 'I' for Inactive)
REMARK    1  A    between atoms: C_6  and  N_7 
REMARK       I    between atoms: N_7  and  C_8 
REMARK    2  A    between atoms: C_8  and  C_9 
REMARK    3  A    between atoms: C_10  and  C_11 
REMARK    4  A    between atoms: C_12  and  O_13 
ROOT
HETATM    1  C   UNL     1     -43.280  57.539 -53.120  1.00  0.00     0.063 C 
HETATM    2  C   UNL     1     -41.784  57.476 -53.407  1.00  0.00     0.205 C 
HETATM    3  N   UNL     1     -41.032  58.213 -52.380  1.00  0.00    -0.084 N 
HETATM    4  C   UNL     1     -41.583  58.683 -51.216  1.00  0.00     0.725 A 
HETATM    5  N   UNL     1     -42.899  58.505 -50.986  1.00  0.00    -0.192 N 
HETATM    6  N   UNL     1     -39.738  58.583 -52.490  1.00  0.00    -0.149 NA
HETATM    7  C   UNL     1     -39.559  59.203 -51.318  1.00  0.00     0.275 A 
HETATM    8  N   UNL     1     -40.664  59.291 -50.512  1.00  0.00    -0.054 NA
HETATM    9  C   UNL     1     -43.772  58.003 -51.945  1.00  0.00     0.037 C 
HETATM   10  C   UNL     1     -45.234  58.018 -51.578  1.00  0.00     0.070 C 
HETATM   11  H   UNL     1     -43.299  58.894 -50.137  1.00  0.00     0.184 HD
ENDROOT
BRANCH   1  12
HETATM   12  C   UNL     1     -44.160  57.117 -54.238  1.00  0.00     0.256 C 
HETATM   13  N   UNL     1     -44.189  58.059 -55.247  1.00  0.00    -0.323 N 
HETATM   14  H   UNL     1     -43.661  58.905 -55.088  1.00  0.00     0.169 HD
HETATM   15  O   UNL     1     -44.748  56.048 -54.183  1.00  0.00    -0.267 OA
BRANCH  13  16
HETATM   16  C   UNL     1     -44.879  57.985 -56.481  1.00  0.00     0.041 A 
HETATM   17  C   UNL     1     -44.180  57.542 -57.627  1.00  0.00    -0.035 A 
HETATM   18  C   UNL     1     -44.860  57.438 -58.855  1.00  0.00     0.015 A 
HETATM   19  C   UNL     1     -42.720  57.174 -57.589  1.00  0.00     0.050 C 
HETATM   20  C   UNL     1     -46.211  57.779 -58.969  1.00  0.00    -0.061 A 
HETATM   21  C   UNL     1     -46.933  57.623 -60.274  1.00  0.00     0.048 C 
HETATM   22  C   UNL     1     -46.893  58.208 -57.831  1.00  0.00     0.009 A 
HETATM   23  C   UNL     1     -46.232  58.316 -56.603  1.00  0.00     0.030 A 
ENDBRANCH  13  16
ENDBRANCH   1  12
BRANCH   2  24
HETATM   24  C   UNL     1     -41.242  56.052 -53.507  1.00  0.00     0.005 A 
HETATM   25  C   UNL     1     -41.266  55.190 -52.393  1.00  0.00     0.076 A 
HETATM   26  C   UNL     1     -40.760  53.890 -52.511  1.00  0.00     0.037 A 
HETATM   27  C   UNL     1     -40.243  53.436 -53.727  1.00  0.00     0.003 A 
HETATM   28  C   UNL     1     -40.224  54.276 -54.834  1.00  0.00     0.001 A 
HETATM   29  C   UNL     1     -40.719  55.573 -54.728  1.00  0.00     0.012 A 
BRANCH  25  30
HETATM   30  O   UNL     1     -41.784  55.714 -51.237  1.00  0.00    -0.355 OA
HETATM   31  C   UNL     1     -42.482  54.824 -50.375  1.00  0.00     0.210 C 
ENDBRANCH  25  30
ENDBRANCH   2  24
TORSDOF 4
ENDMDL
MODEL 9
REMARK VINA RESULT:      -7.0      3.016      5.080
REMARK  4 active torsions:
REMARK  status: ('A' for Active; 'I' for Inactive)
REMARK    1  A    between atoms: C_6  and  N_7 
REMARK       I    between atoms: N_7  and  C_8 
REMARK    2  A    between atoms: C_8  and  C_9 
REMARK    3  A    between atoms: C_10  and  C_11 
REMARK    4  A    between atoms: C_12  and  O_13 
ROOT
HETATM    1  C   UNL     1     -42.401  56.277 -55.975  1.00  0.00     0.063 C 
HETATM    2  C   UNL     1     -42.323  57.553 -56.807  1.00  0.00     0.205 C 
HETATM    3  N   UNL     1     -42.670  57.274 -58.208  1.00  0.00    -0.084 N 
HETATM    4  C   UNL     1     -43.210  56.092 -58.644  1.00  0.00     0.725 A 
HETATM    5  N   UNL     1     -43.414  55.092 -57.763  1.00  0.00    -0.192 N 
HETATM    6  N   UNL     1     -42.431  58.110 -59.242  1.00  0.00    -0.149 NA
HETATM    7  C   UNL     1     -42.926  57.394 -60.257  1.00  0.00     0.275 A 
HETATM    8  N   UNL     1     -43.408  56.151 -59.936  1.00  0.00    -0.054 NA
HETATM    9  C   UNL     1     -42.957  55.136 -56.451  1.00  0.00     0.037 C 
HETATM   10  C   UNL     1     -43.130  53.872 -55.649  1.00  0.00     0.070 C 
HETATM   11  H   UNL     1     -43.778  54.209 -58.110  1.00  0.00     0.184 HD
ENDROOT
BRANCH   1  12
HETATM   12  C   UNL     1     -41.772  56.354 -54.633  1.00  0.00     0.256 C 
HETATM   13  N   UNL     1     -42.279  55.396 -53.777  1.00  0.00    -0.323 N 
HETATM   14  H   UNL     1     -43.016  54.811 -54.143  1.00  0.00     0.169 HD
HETATM   15  O   UNL     1     -40.918  57.196 -54.404  1.00  0.00    -0.267 OA
BRANCH  13  16
HETATM   16  C   UNL     1     -41.894  55.139 -52.439  1.00  0.00     0.041 A 
HETATM   17  C   UNL     1     -41.016  54.063 -52.178  1.00  0.00    -0.035 A 
HETATM   18  C   UNL     1     -40.603  53.812 -50.856  1.00  0.00     0.015 A 
HETATM   19  C   UNL     1     -40.498  53.161 -53.267  1.00  0.00     0.050 C 
HETATM   20  C   UNL     1     -41.057  54.597 -49.792  1.00  0.00    -0.061 A 
HETATM   21  C   UNL     1     -40.576  54.344 -48.394  1.00  0.00     0.048 C 
HETATM   22  C   UNL     1     -41.917  55.660 -50.061  1.00  0.00     0.009 A 
HETATM   23  C   UNL     1     -42.336  55.923 -51.369  1.00  0.00     0.030 A 
ENDBRANCH  13  16
ENDBRANCH   1  12
BRANCH   2  24
HETATM   24  C   UNL     1     -43.207  58.680 -56.280  1.00  0.00     0.005 A 
HETATM   25  C   UNL     1     -42.749  60.013 -56.269  1.00  0.00     0.076 A 
HETATM   26  C   UNL     1     -43.579  61.027 -55.778  1.00  0.00     0.037 A 
HETATM   27  C   UNL     1     -44.861  60.732 -55.309  1.00  0.00     0.003 A 
HETATM   28  C   UNL     1     -45.326  59.422 -55.324  1.00  0.00     0.001 A 
HETATM   29  C   UNL     1     -44.507  58.403 -55.805  1.00  0.00     0.012 A 
BRANCH  25  30
HETATM   30  O   UNL     1     -41.478  60.217 -56.741  1.00  0.00    -0.355 OA
HETATM   31  C   UNL     1     -41.321  61.142 -57.810  1.00  0.00     0.210 C 
ENDBRANCH  25  30
ENDBRANCH   2  24
TORSDOF 4
ENDMDL
MODEL 10
REMARK VINA RESULT:      -7.0      2.155      2.996
REMARK  4 active torsions:
REMARK  status: ('A' for Active; 'I' for Inactive)
REMARK    1  A    between atoms: C_6  and  N_7 
REMARK       I    between atoms: N_7  and  C_8 
REMARK    2  A    between atoms: C_8  and  C_9 
REMARK    3  A    between atoms: C_10  and  C_11 
REMARK    4  A    between atoms: C_12  and  O_13 
ROOT
HETATM    1  C   UNL     1     -43.179  58.758 -53.547  1.00  0.00     0.063 C 
HETATM    2  C   UNL     1     -44.183  59.167 -54.621  1.00  0.00     0.205 C 
HETATM    3  N   UNL     1     -44.436  60.614 -54.563  1.00  0.00    -0.084 N 
HETATM    4  C   UNL     1     -43.700  61.492 -53.811  1.00  0.00     0.725 A 
HETATM    5  N   UNL     1     -42.698  61.026 -53.038  1.00  0.00    -0.192 N 
HETATM    6  N   UNL     1     -45.463  61.241 -55.176  1.00  0.00    -0.149 NA
HETATM    7  C   UNL     1     -45.232  62.507 -54.811  1.00  0.00     0.275 A 
HETATM    8  N   UNL     1     -44.167  62.704 -53.971  1.00  0.00    -0.054 NA
HETATM    9  C   UNL     1     -42.467  59.669 -52.839  1.00  0.00     0.037 C 
HETATM   10  C   UNL     1     -41.410  59.322 -51.823  1.00  0.00     0.070 C 
HETATM   11  H   UNL     1     -42.189  61.684 -52.457  1.00  0.00     0.184 HD
ENDROOT
BRANCH   1  12
HETATM   12  C   UNL     1     -43.082  57.300 -53.290  1.00  0.00     0.256 C 
HETATM   13  N   UNL     1     -41.941  56.759 -53.850  1.00  0.00    -0.323 N 
HETATM   14  H   UNL     1     -41.357  57.391 -54.379  1.00  0.00     0.169 HD
HETATM   15  O   UNL     1     -43.954  56.732 -52.651  1.00  0.00    -0.267 OA
BRANCH  13  16
HETATM   16  C   UNL     1     -41.492  55.419 -53.776  1.00  0.00     0.041 A 
HETATM   17  C   UNL     1     -41.604  54.599 -54.921  1.00  0.00    -0.035 A 
HETATM   18  C   UNL     1     -41.137  53.272 -54.870  1.00  0.00     0.015 A 
HETATM   19  C   UNL     1     -42.211  55.089 -56.209  1.00  0.00     0.050 C 
HETATM   20  C   UNL     1     -40.577  52.743 -53.703  1.00  0.00    -0.061 A 
HETATM   21  C   UNL     1     -40.046  51.341 -53.676  1.00  0.00     0.048 C 
HETATM   22  C   UNL     1     -40.465  53.562 -52.581  1.00  0.00     0.009 A 
HETATM   23  C   UNL     1     -40.924  54.884 -52.616  1.00  0.00     0.030 A 
ENDBRANCH  13  16
ENDBRANCH   1  12
BRANCH   2  24
HETATM   24  C   UNL     1     -43.753  58.783 -56.035  1.00  0.00     0.005 A 
HETATM   25  C   UNL     1     -44.675  58.226 -56.943  1.00  0.00     0.076 A 
HETATM   26  C   UNL     1     -44.255  57.881 -58.233  1.00  0.00     0.037 A 
HETATM   27  C   UNL     1     -42.933  58.094 -58.631  1.00  0.00     0.003 A 
HETATM   28  C   UNL     1     -42.019  58.651 -57.745  1.00  0.00     0.001 A 
HETATM   29  C   UNL     1     -42.423  58.994 -56.457  1.00  0.00     0.012 A 
BRANCH  25  30
HETATM   30  O   UNL     1     -45.950  58.045 -56.473  1.00  0.00    -0.355 OA
HETATM   31  C   UNL     1     -47.010  58.125 -57.419  1.00  0.00     0.210 C 
ENDBRANCH  25  30
ENDBRANCH   2  24
TORSDOF 4
ENDMDL
