MODEL 1
REMARK VINA RESULT:      -8.5      0.000      0.000
REMARK  9 active torsions:
REMARK  status: ('A' for Active; 'I' for Inactive)
REMARK    1  A    between atoms: O_2  and  C_3 
REMARK    2  A    between atoms: C_4  and  O_5 
REMARK    3  A    between atoms: C_8  and  C_9 
REMARK    4  A    between atoms: C_9  and  N_10 
REMARK    5  A    between atoms: C_14  and  O_15 
REMARK    6  A    between atoms: C_14  and  C_16 
REMARK    7  A    between atoms: C_21  and  C_22 
REMARK       I    between atoms: C_22  and  N_23 
REMARK    8  A    between atoms: N_23  and  C_24 
REMARK    9  A    between atoms: C_24  and  C_25 
ROOT
HETATM    1  N   UNL     1     -41.752  56.557 -52.241  1.00  0.00    -0.067 N 
HETATM    2  H   UNL     1     -41.195  56.362 -53.081  1.00  0.00     0.280 HD
HETATM    3  C   UNL     1     -43.182  56.743 -52.700  1.00  0.00     0.238 C 
HETATM    4  C   UNL     1     -43.292  57.984 -53.574  1.00  0.00     0.071 C 
HETATM    5  C   UNL     1     -42.833  59.253 -52.831  1.00  0.00     0.088 C 
HETATM    6  C   UNL     1     -41.354  59.007 -52.470  1.00  0.00     0.071 C 
HETATM    7  C   UNL     1     -41.179  57.790 -51.579  1.00  0.00     0.238 C 
ENDROOT
BRANCH   5   8
HETATM    8  O   UNL     1     -42.851  60.317 -53.782  1.00  0.00    -0.385 OA
HETATM    9  H   UNL     1     -42.002  60.345 -54.261  1.00  0.00     0.211 HD
ENDBRANCH   5   8
BRANCH   5  10
HETATM   10  C   UNL     1     -43.726  59.652 -51.645  1.00  0.00    -0.023 A 
HETATM   11  C   UNL     1     -43.321  60.658 -50.736  1.00  0.00     0.024 A 
HETATM   12  C   UNL     1     -44.193  61.087 -49.717  1.00  0.00     0.001 A 
HETATM   13  C   UNL     1     -45.422  60.462 -49.590  1.00  0.00     0.086 A 
HETATM   14  C   UNL     1     -44.154  62.076 -48.703  1.00  0.00     0.057 A 
HETATM   15  O   UNL     1     -46.143  61.028 -48.586  1.00  0.00    -0.304 OA
HETATM   16  C   UNL     1     -45.836  59.405 -50.390  1.00  0.00     0.039 A 
HETATM   17  C   UNL     1     -45.371  62.027 -48.048  1.00  0.00     0.144 A 
HETATM   18  C   UNL     1     -44.959  59.008 -51.411  1.00  0.00     0.013 A 
BRANCH  17  19
HETATM   19  C   UNL     1     -45.901  62.850 -46.981  1.00  0.00     0.275 C 
HETATM   20  N   UNL     1     -44.943  63.547 -46.285  1.00  0.00    -0.353 N 
HETATM   21  H   UNL     1     -43.971  63.372 -46.513  1.00  0.00     0.162 HD
HETATM   22  O   UNL     1     -47.094  62.889 -46.697  1.00  0.00    -0.265 OA
BRANCH  20  23
HETATM   23  C   UNL     1     -45.220  64.303 -45.079  1.00  0.00     0.155 C 
BRANCH  23  24
HETATM   24  C   UNL     1     -45.238  63.431 -43.812  1.00  0.00     0.139 C 
HETATM   25  O   UNL     1     -45.295  64.284 -42.646  1.00  0.00    -0.384 OA
HETATM   26  C   UNL     1     -44.297  63.841 -41.721  1.00  0.00     0.168 C 
HETATM   27  C   UNL     1     -43.224  63.182 -42.555  1.00  0.00     0.029 C 
HETATM   28  C   UNL     1     -44.033  62.513 -43.638  1.00  0.00     0.035 C 
ENDBRANCH  23  24
ENDBRANCH  20  23
ENDBRANCH  17  19
ENDBRANCH   5  10
BRANCH   1  29
HETATM   29  C   UNL     1     -41.577  55.351 -51.327  1.00  0.00     0.273 C 
BRANCH  29  30
HETATM   30  C   UNL     1     -40.986  54.143 -52.002  1.00  0.00    -0.030 A 
HETATM   31  C   UNL     1     -40.384  53.115 -51.255  1.00  0.00     0.048 A 
HETATM   32  C   UNL     1     -39.776  52.012 -51.882  1.00  0.00     0.102 A 
HETATM   33  C   UNL     1     -39.785  51.939 -53.287  1.00  0.00     0.101 A 
HETATM   34  C   UNL     1     -40.396  52.962 -54.024  1.00  0.00     0.040 A 
HETATM   35  C   UNL     1     -40.991  54.053 -53.396  1.00  0.00     0.012 A 
BRANCH  32  36
HETATM   36  O   UNL     1     -39.154  51.011 -51.190  1.00  0.00    -0.353 OA
HETATM   37  C   UNL     1     -39.934  49.962 -50.633  1.00  0.00     0.210 C 
ENDBRANCH  32  36
BRANCH  33  38
HETATM   38  O   UNL     1     -39.249  50.980 -54.103  1.00  0.00    -0.353 OA
HETATM   39  C   UNL     1     -40.019  49.836 -54.434  1.00  0.00     0.210 C 
ENDBRANCH  33  38
ENDBRANCH  29  30
ENDBRANCH   1  29
TORSDOF 9
ENDMDL
MODEL 2
REMARK VINA RESULT:      -8.2      5.025     10.088
REMARK  9 active torsions:
REMARK  status: ('A' for Active; 'I' for Inactive)
REMARK    1  A    between atoms: O_2  and  C_3 
REMARK    2  A    between atoms: C_4  and  O_5 
REMARK    3  A    between atoms: C_8  and  C_9 
REMARK    4  A    between atoms: C_9  and  N_10 
REMARK    5  A    between atoms: C_14  and  O_15 
REMARK    6  A    between atoms: C_14  and  C_16 
REMARK    7  A    between atoms: C_21  and  C_22 
REMARK       I    between atoms: C_22  and  N_23 
REMARK    8  A    between atoms: N_23  and  C_24 
REMARK    9  A    between atoms: C_24  and  C_25 
ROOT
HETATM    1  N   UNL     1     -42.418  56.107 -50.236  1.00  0.00    -0.067 N 
HETATM    2  H   UNL     1     -42.437  56.517 -49.294  1.00  0.00     0.280 HD
HETATM    3  C   UNL     1     -41.289  56.783 -50.982  1.00  0.00     0.238 C 
HETATM    4  C   UNL     1     -41.600  58.260 -51.173  1.00  0.00     0.071 C 
HETATM    5  C   UNL     1     -42.914  58.475 -51.948  1.00  0.00     0.088 C 
HETATM    6  C   UNL     1     -44.014  57.825 -51.083  1.00  0.00     0.071 C 
HETATM    7  C   UNL     1     -43.769  56.341 -50.872  1.00  0.00     0.238 C 
ENDROOT
BRANCH   5   8
HETATM    8  O   UNL     1     -43.170  59.879 -51.947  1.00  0.00    -0.385 OA
HETATM    9  H   UNL     1     -44.085  60.047 -51.654  1.00  0.00     0.211 HD
ENDBRANCH   5   8
BRANCH   5  10
HETATM   10  C   UNL     1     -42.876  57.994 -53.407  1.00  0.00    -0.023 A 
HETATM   11  C   UNL     1     -44.027  58.071 -54.228  1.00  0.00     0.024 A 
HETATM   12  C   UNL     1     -43.950  57.726 -55.591  1.00  0.00     0.001 A 
HETATM   13  C   UNL     1     -42.748  57.254 -56.090  1.00  0.00     0.086 A 
HETATM   14  C   UNL     1     -44.847  57.738 -56.689  1.00  0.00     0.057 A 
HETATM   15  O   UNL     1     -42.847  57.010 -57.423  1.00  0.00    -0.304 OA
HETATM   16  C   UNL     1     -41.612  57.066 -55.313  1.00  0.00     0.039 A 
HETATM   17  C   UNL     1     -44.131  57.318 -57.796  1.00  0.00     0.144 A 
HETATM   18  C   UNL     1     -41.705  57.436 -53.962  1.00  0.00     0.013 A 
BRANCH  17  19
HETATM   19  C   UNL     1     -44.524  57.204 -59.185  1.00  0.00     0.275 C 
HETATM   20  N   UNL     1     -45.655  56.451 -59.386  1.00  0.00    -0.353 N 
HETATM   21  H   UNL     1     -46.061  55.983 -58.583  1.00  0.00     0.162 HD
HETATM   22  O   UNL     1     -43.881  57.702 -60.104  1.00  0.00    -0.265 OA
BRANCH  20  23
HETATM   23  C   UNL     1     -46.139  56.066 -60.697  1.00  0.00     0.155 C 
BRANCH  23  24
HETATM   24  C   UNL     1     -47.577  56.537 -60.970  1.00  0.00     0.139 C 
HETATM   25  O   UNL     1     -47.930  56.227 -62.337  1.00  0.00    -0.384 OA
HETATM   26  C   UNL     1     -48.506  57.399 -62.925  1.00  0.00     0.168 C 
HETATM   27  C   UNL     1     -47.916  58.570 -62.175  1.00  0.00     0.029 C 
HETATM   28  C   UNL     1     -47.822  58.029 -60.770  1.00  0.00     0.035 C 
ENDBRANCH  23  24
ENDBRANCH  20  23
ENDBRANCH  17  19
ENDBRANCH   5  10
BRANCH   1  29
HETATM   29  C   UNL     1     -42.189  54.614 -50.043  1.00  0.00     0.273 C 
BRANCH  29  30
HETATM   30  C   UNL     1     -41.584  53.921 -51.233  1.00  0.00    -0.030 A 
HETATM   31  C   UNL     1     -42.111  54.099 -52.524  1.00  0.00     0.048 A 
HETATM   32  C   UNL     1     -41.588  53.407 -53.632  1.00  0.00     0.102 A 
HETATM   33  C   UNL     1     -40.507  52.528 -53.436  1.00  0.00     0.101 A 
HETATM   34  C   UNL     1     -39.980  52.364 -52.148  1.00  0.00     0.040 A 
HETATM   35  C   UNL     1     -40.506  53.049 -51.056  1.00  0.00     0.012 A 
BRANCH  32  36
HETATM   36  O   UNL     1     -42.096  53.531 -54.895  1.00  0.00    -0.353 OA
HETATM   37  C   UNL     1     -43.451  53.920 -55.064  1.00  0.00     0.210 C 
ENDBRANCH  32  36
BRANCH  33  38
HETATM   38  O   UNL     1     -39.855  51.749 -54.352  1.00  0.00    -0.353 OA
HETATM   39  C   UNL     1     -39.815  50.342 -54.169  1.00  0.00     0.210 C 
ENDBRANCH  33  38
ENDBRANCH  29  30
ENDBRANCH   1  29
TORSDOF 9
ENDMDL
MODEL 3
REMARK VINA RESULT:      -8.2      5.443      9.435
REMARK  9 active torsions:
REMARK  status: ('A' for Active; 'I' for Inactive)
REMARK    1  A    between atoms: O_2  and  C_3 
REMARK    2  A    between atoms: C_4  and  O_5 
REMARK    3  A    between atoms: C_8  and  C_9 
REMARK    4  A    between atoms: C_9  and  N_10 
REMARK    5  A    between atoms: C_14  and  O_15 
REMARK    6  A    between atoms: C_14  and  C_16 
REMARK    7  A    between atoms: C_21  and  C_22 
REMARK       I    between atoms: C_22  and  N_23 
REMARK    8  A    between atoms: N_23  and  C_24 
REMARK    9  A    between atoms: C_24  and  C_25 
ROOT
HETATM    1  N   UNL     1     -41.434  55.251 -49.938  1.00  0.00    -0.067 N 
HETATM    2  H   UNL     1     -41.580  55.572 -48.973  1.00  0.00     0.280 HD
HETATM    3  C   UNL     1     -41.321  56.491 -50.797  1.00  0.00     0.238 C 
HETATM    4  C   UNL     1     -42.642  57.246 -50.801  1.00  0.00     0.071 C 
HETATM    5  C   UNL     1     -43.799  56.375 -51.326  1.00  0.00     0.088 C 
HETATM    6  C   UNL     1     -43.891  55.181 -50.353  1.00  0.00     0.071 C 
HETATM    7  C   UNL     1     -42.605  54.374 -50.318  1.00  0.00     0.238 C 
ENDROOT
BRANCH   5   8
HETATM    8  O   UNL     1     -44.997  57.133 -51.156  1.00  0.00    -0.385 OA
HETATM    9  H   UNL     1     -45.269  57.114 -50.220  1.00  0.00     0.211 HD
ENDBRANCH   5   8
BRANCH   5  10
HETATM   10  C   UNL     1     -43.681  55.988 -52.808  1.00  0.00    -0.023 A 
HETATM   11  C   UNL     1     -43.672  56.977 -53.820  1.00  0.00     0.024 A 
HETATM   12  C   UNL     1     -43.457  56.616 -55.164  1.00  0.00     0.001 A 
HETATM   13  C   UNL     1     -43.319  55.275 -55.476  1.00  0.00     0.086 A 
HETATM   14  C   UNL     1     -43.326  57.315 -56.390  1.00  0.00     0.057 A 
HETATM   15  O   UNL     1     -43.081  55.116 -56.805  1.00  0.00    -0.304 OA
HETATM   16  C   UNL     1     -43.415  54.252 -54.542  1.00  0.00     0.039 A 
HETATM   17  C   UNL     1     -43.072  56.368 -57.366  1.00  0.00     0.144 A 
HETATM   18  C   UNL     1     -43.609  54.636 -53.206  1.00  0.00     0.013 A 
BRANCH  17  19
HETATM   19  C   UNL     1     -42.790  56.522 -58.777  1.00  0.00     0.275 C 
HETATM   20  N   UNL     1     -41.956  57.574 -59.069  1.00  0.00    -0.353 N 
HETATM   21  H   UNL     1     -41.681  58.186 -58.308  1.00  0.00     0.162 HD
HETATM   22  O   UNL     1     -43.283  55.803 -59.640  1.00  0.00    -0.265 OA
BRANCH  20  23
HETATM   23  C   UNL     1     -41.666  58.018 -60.419  1.00  0.00     0.155 C 
BRANCH  23  24
HETATM   24  C   UNL     1     -42.232  59.414 -60.728  1.00  0.00     0.139 C 
HETATM   25  O   UNL     1     -41.856  60.327 -59.672  1.00  0.00    -0.384 OA
HETATM   26  C   UNL     1     -43.026  61.046 -59.268  1.00  0.00     0.168 C 
HETATM   27  C   UNL     1     -44.196  60.142 -59.583  1.00  0.00     0.029 C 
HETATM   28  C   UNL     1     -43.749  59.485 -60.865  1.00  0.00     0.035 C 
ENDBRANCH  23  24
ENDBRANCH  20  23
ENDBRANCH  17  19
ENDBRANCH   5  10
BRANCH   1  29
HETATM   29  C   UNL     1     -40.154  54.425 -49.920  1.00  0.00     0.273 C 
BRANCH  29  30
HETATM   30  C   UNL     1     -40.104  53.337 -50.957  1.00  0.00    -0.030 A 
HETATM   31  C   UNL     1     -40.235  53.630 -52.326  1.00  0.00     0.048 A 
HETATM   32  C   UNL     1     -40.250  52.611 -53.296  1.00  0.00     0.102 A 
HETATM   33  C   UNL     1     -40.118  51.274 -52.879  1.00  0.00     0.101 A 
HETATM   34  C   UNL     1     -39.976  50.990 -51.514  1.00  0.00     0.040 A 
HETATM   35  C   UNL     1     -39.968  52.004 -50.560  1.00  0.00     0.012 A 
BRANCH  32  36
HETATM   36  O   UNL     1     -40.409  52.856 -54.631  1.00  0.00    -0.353 OA
HETATM   37  C   UNL     1     -39.927  54.076 -55.176  1.00  0.00     0.210 C 
ENDBRANCH  32  36
BRANCH  33  38
HETATM   38  O   UNL     1     -40.120  50.133 -53.634  1.00  0.00    -0.353 OA
HETATM   39  C   UNL     1     -39.018  49.858 -54.485  1.00  0.00     0.210 C 
ENDBRANCH  33  38
ENDBRANCH  29  30
ENDBRANCH   1  29
TORSDOF 9
ENDMDL
MODEL 4
REMARK VINA RESULT:      -8.1      5.566     10.457
REMARK  9 active torsions:
REMARK  status: ('A' for Active; 'I' for Inactive)
REMARK    1  A    between atoms: O_2  and  C_3 
REMARK    2  A    between atoms: C_4  and  O_5 
REMARK    3  A    between atoms: C_8  and  C_9 
REMARK    4  A    between atoms: C_9  and  N_10 
REMARK    5  A    between atoms: C_14  and  O_15 
REMARK    6  A    between atoms: C_14  and  C_16 
REMARK    7  A    between atoms: C_21  and  C_22 
REMARK       I    between atoms: C_22  and  N_23 
REMARK    8  A    between atoms: N_23  and  C_24 
REMARK    9  A    between atoms: C_24  and  C_25 
ROOT
HETATM    1  N   UNL     1     -41.996  56.433 -52.037  1.00  0.00    -0.067 N 
HETATM    2  H   UNL     1     -41.352  56.668 -51.271  1.00  0.00     0.280 HD
HETATM    3  C   UNL     1     -41.193  56.502 -53.317  1.00  0.00     0.238 C 
HETATM    4  C   UNL     1     -40.742  57.933 -53.574  1.00  0.00     0.071 C 
HETATM    5  C   UNL     1     -41.936  58.902 -53.674  1.00  0.00     0.088 C 
HETATM    6  C   UNL     1     -42.648  58.823 -52.308  1.00  0.00     0.071 C 
HETATM    7  C   UNL     1     -43.140  57.420 -52.002  1.00  0.00     0.238 C 
ENDROOT
BRANCH   5   8
HETATM    8  O   UNL     1     -41.392  60.218 -53.776  1.00  0.00    -0.385 OA
HETATM    9  H   UNL     1     -41.749  60.779 -53.062  1.00  0.00     0.211 HD
ENDBRANCH   5   8
BRANCH   5  10
HETATM   10  C   UNL     1     -42.847  58.663 -54.888  1.00  0.00    -0.023 A 
HETATM   11  C   UNL     1     -42.338  58.092 -56.079  1.00  0.00     0.024 A 
HETATM   12  C   UNL     1     -43.205  57.781 -57.144  1.00  0.00     0.001 A 
HETATM   13  C   UNL     1     -44.546  58.103 -57.023  1.00  0.00     0.086 A 
HETATM   14  C   UNL     1     -43.066  57.168 -58.415  1.00  0.00     0.057 A 
HETATM   15  O   UNL     1     -45.235  57.698 -58.123  1.00  0.00    -0.304 OA
HETATM   16  C   UNL     1     -45.087  58.751 -55.920  1.00  0.00     0.039 A 
HETATM   17  C   UNL     1     -44.331  57.113 -58.973  1.00  0.00     0.144 A 
HETATM   18  C   UNL     1     -44.209  59.032 -54.863  1.00  0.00     0.013 A 
BRANCH  17  19
HETATM   19  C   UNL     1     -44.786  56.534 -60.219  1.00  0.00     0.275 C 
HETATM   20  N   UNL     1     -46.105  56.790 -60.506  1.00  0.00    -0.353 N 
HETATM   21  H   UNL     1     -46.656  57.276 -59.807  1.00  0.00     0.162 HD
HETATM   22  O   UNL     1     -44.070  55.842 -60.936  1.00  0.00    -0.265 OA
BRANCH  20  23
HETATM   23  C   UNL     1     -46.818  56.180 -61.611  1.00  0.00     0.155 C 
BRANCH  23  24
HETATM   24  C   UNL     1     -48.198  56.812 -61.860  1.00  0.00     0.139 C 
HETATM   25  O   UNL     1     -48.640  56.483 -63.197  1.00  0.00    -0.384 OA
HETATM   26  C   UNL     1     -49.091  57.687 -63.825  1.00  0.00     0.168 C 
HETATM   27  C   UNL     1     -48.333  58.811 -63.158  1.00  0.00     0.029 C 
HETATM   28  C   UNL     1     -48.250  58.330 -61.731  1.00  0.00     0.035 C 
ENDBRANCH  23  24
ENDBRANCH  20  23
ENDBRANCH  17  19
ENDBRANCH   5  10
BRANCH   1  29
HETATM   29  C   UNL     1     -42.513  55.031 -51.738  1.00  0.00     0.273 C 
BRANCH  29  30
HETATM   30  C   UNL     1     -41.690  53.926 -52.341  1.00  0.00    -0.030 A 
HETATM   31  C   UNL     1     -40.828  53.146 -51.549  1.00  0.00     0.048 A 
HETATM   32  C   UNL     1     -40.010  52.151 -52.116  1.00  0.00     0.102 A 
HETATM   33  C   UNL     1     -40.072  51.930 -53.504  1.00  0.00     0.101 A 
HETATM   34  C   UNL     1     -40.941  52.704 -54.285  1.00  0.00     0.040 A 
HETATM   35  C   UNL     1     -41.743  53.690 -53.717  1.00  0.00     0.012 A 
BRANCH  32  36
HETATM   36  O   UNL     1     -39.139  51.397 -51.382  1.00  0.00    -0.353 OA
HETATM   37  C   UNL     1     -39.556  50.131 -50.891  1.00  0.00     0.210 C 
ENDBRANCH  32  36
BRANCH  33  38
HETATM   38  O   UNL     1     -39.367  51.038 -54.265  1.00  0.00    -0.353 OA
HETATM   39  C   UNL     1     -39.933  49.770 -54.557  1.00  0.00     0.210 C 
ENDBRANCH  33  38
ENDBRANCH  29  30
ENDBRANCH   1  29
TORSDOF 9
ENDMDL
MODEL 5
REMARK VINA RESULT:      -8.0      2.757      6.641
REMARK  9 active torsions:
REMARK  status: ('A' for Active; 'I' for Inactive)
REMARK    1  A    between atoms: O_2  and  C_3 
REMARK    2  A    between atoms: C_4  and  O_5 
REMARK    3  A    between atoms: C_8  and  C_9 
REMARK    4  A    between atoms: C_9  and  N_10 
REMARK    5  A    between atoms: C_14  and  O_15 
REMARK    6  A    between atoms: C_14  and  C_16 
REMARK    7  A    between atoms: C_21  and  C_22 
REMARK       I    between atoms: C_22  and  N_23 
REMARK    8  A    between atoms: N_23  and  C_24 
REMARK    9  A    between atoms: C_24  and  C_25 
ROOT
HETATM    1  N   UNL     1     -42.049  54.956 -56.284  1.00  0.00    -0.067 N 
HETATM    2  H   UNL     1     -41.426  54.351 -56.834  1.00  0.00     0.280 HD
HETATM    3  C   UNL     1     -41.168  55.739 -55.335  1.00  0.00     0.238 C 
HETATM    4  C   UNL     1     -40.510  54.797 -54.337  1.00  0.00     0.071 C 
HETATM    5  C   UNL     1     -41.551  54.005 -53.522  1.00  0.00     0.088 C 
HETATM    6  C   UNL     1     -42.348  53.184 -54.557  1.00  0.00     0.071 C 
HETATM    7  C   UNL     1     -43.046  54.072 -55.572  1.00  0.00     0.238 C 
ENDROOT
BRANCH   5   8
HETATM    8  O   UNL     1     -40.825  53.067 -52.727  1.00  0.00    -0.385 OA
HETATM    9  H   UNL     1     -40.155  52.619 -53.275  1.00  0.00     0.211 HD
ENDBRANCH   5   8
BRANCH   5  10
HETATM   10  C   UNL     1     -42.411  54.866 -52.584  1.00  0.00    -0.023 A 
HETATM   11  C   UNL     1     -42.439  56.276 -52.712  1.00  0.00     0.024 A 
HETATM   12  C   UNL     1     -43.311  57.044 -51.917  1.00  0.00     0.001 A 
HETATM   13  C   UNL     1     -44.089  56.397 -50.972  1.00  0.00     0.086 A 
HETATM   14  C   UNL     1     -43.644  58.418 -51.818  1.00  0.00     0.057 A 
HETATM   15  O   UNL     1     -44.894  57.284 -50.328  1.00  0.00    -0.304 OA
HETATM   16  C   UNL     1     -44.035  55.030 -50.733  1.00  0.00     0.039 A 
HETATM   17  C   UNL     1     -44.631  58.523 -50.854  1.00  0.00     0.144 A 
HETATM   18  C   UNL     1     -43.174  54.282 -51.551  1.00  0.00     0.013 A 
BRANCH  17  19
HETATM   19  C   UNL     1     -45.381  59.673 -50.396  1.00  0.00     0.275 C 
HETATM   20  N   UNL     1     -44.681  60.493 -49.543  1.00  0.00    -0.353 N 
HETATM   21  H   UNL     1     -43.758  60.193 -49.249  1.00  0.00     0.162 HD
HETATM   22  O   UNL     1     -46.550  59.877 -50.707  1.00  0.00    -0.265 OA
BRANCH  20  23
HETATM   23  C   UNL     1     -45.277  61.607 -48.833  1.00  0.00     0.155 C 
BRANCH  23  24
HETATM   24  C   UNL     1     -45.878  61.206 -47.476  1.00  0.00     0.139 C 
HETATM   25  O   UNL     1     -47.146  61.877 -47.297  1.00  0.00    -0.384 OA
HETATM   26  C   UNL     1     -47.158  62.467 -45.993  1.00  0.00     0.168 C 
HETATM   27  C   UNL     1     -45.711  62.729 -45.645  1.00  0.00     0.029 C 
HETATM   28  C   UNL     1     -45.019  61.539 -46.261  1.00  0.00     0.035 C 
ENDBRANCH  23  24
ENDBRANCH  20  23
ENDBRANCH  17  19
ENDBRANCH   5  10
BRANCH   1  29
HETATM   29  C   UNL     1     -42.771  55.845 -57.289  1.00  0.00     0.273 C 
BRANCH  29  30
HETATM   30  C   UNL     1     -42.878  57.287 -56.876  1.00  0.00    -0.030 A 
HETATM   31  C   UNL     1     -42.013  58.262 -57.406  1.00  0.00     0.048 A 
HETATM   32  C   UNL     1     -42.068  59.601 -56.979  1.00  0.00     0.102 A 
HETATM   33  C   UNL     1     -43.020  59.967 -56.010  1.00  0.00     0.101 A 
HETATM   34  C   UNL     1     -43.886  58.992 -55.495  1.00  0.00     0.040 A 
HETATM   35  C   UNL     1     -43.822  57.668 -55.919  1.00  0.00     0.012 A 
BRANCH  32  36
HETATM   36  O   UNL     1     -41.223  60.567 -57.447  1.00  0.00    -0.353 OA
HETATM   37  C   UNL     1     -41.586  61.307 -58.604  1.00  0.00     0.210 C 
ENDBRANCH  32  36
BRANCH  33  38
HETATM   38  O   UNL     1     -43.243  61.192 -55.442  1.00  0.00    -0.353 OA
HETATM   39  C   UNL     1     -43.051  61.359 -54.046  1.00  0.00     0.210 C 
ENDBRANCH  33  38
ENDBRANCH  29  30
ENDBRANCH   1  29
TORSDOF 9
ENDMDL
MODEL 6
REMARK VINA RESULT:      -8.0      1.434      2.103
REMARK  9 active torsions:
REMARK  status: ('A' for Active; 'I' for Inactive)
REMARK    1  A    between atoms: O_2  and  C_3 
REMARK    2  A    between atoms: C_4  and  O_5 
REMARK    3  A    between atoms: C_8  and  C_9 
REMARK    4  A    between atoms: C_9  and  N_10 
REMARK    5  A    between atoms: C_14  and  O_15 
REMARK    6  A    between atoms: C_14  and  C_16 
REMARK    7  A    between atoms: C_21  and  C_22 
REMARK       I    between atoms: C_22  and  N_23 
REMARK    8  A    between atoms: N_23  and  C_24 
REMARK    9  A    between atoms: C_24  and  C_25 
ROOT
HETATM    1  N   UNL     1     -42.057  56.318 -52.989  1.00  0.00    -0.067 N 
HETATM    2  H   UNL     1     -41.218  56.029 -53.508  1.00  0.00     0.280 HD
HETATM    3  C   UNL     1     -42.985  56.970 -53.990  1.00  0.00     0.238 C 
HETATM    4  C   UNL     1     -42.361  58.251 -54.524  1.00  0.00     0.071 C 
HETATM    5  C   UNL     1     -42.053  59.254 -53.396  1.00  0.00     0.088 C 
HETATM    6  C   UNL     1     -41.048  58.537 -52.470  1.00  0.00     0.071 C 
HETATM    7  C   UNL     1     -41.621  57.258 -51.888  1.00  0.00     0.238 C 
ENDROOT
BRANCH   5   8
HETATM    8  O   UNL     1     -41.353  60.345 -53.993  1.00  0.00    -0.385 OA
HETATM    9  H   UNL     1     -40.402  60.280 -53.785  1.00  0.00     0.211 HD
ENDBRANCH   5   8
BRANCH   5  10
HETATM   10  C   UNL     1     -43.296  59.811 -52.685  1.00  0.00    -0.023 A 
HETATM   11  C   UNL     1     -43.189  60.452 -51.428  1.00  0.00     0.024 A 
HETATM   12  C   UNL     1     -44.318  61.051 -50.838  1.00  0.00     0.001 A 
HETATM   13  C   UNL     1     -45.539  60.943 -51.482  1.00  0.00     0.086 A 
HETATM   14  C   UNL     1     -44.565  61.806 -49.664  1.00  0.00     0.057 A 
HETATM   15  O   UNL     1     -46.503  61.609 -50.793  1.00  0.00    -0.304 OA
HETATM   16  C   UNL     1     -45.726  60.244 -52.668  1.00  0.00     0.039 A 
HETATM   17  C   UNL     1     -45.905  62.150 -49.683  1.00  0.00     0.144 A 
HETATM   18  C   UNL     1     -44.582  59.673 -53.248  1.00  0.00     0.013 A 
BRANCH  17  19
HETATM   19  C   UNL     1     -46.681  62.967 -48.775  1.00  0.00     0.275 C 
HETATM   20  N   UNL     1     -45.929  63.841 -48.027  1.00  0.00    -0.353 N 
HETATM   21  H   UNL     1     -44.919  63.786 -48.109  1.00  0.00     0.162 HD
HETATM   22  O   UNL     1     -47.897  62.862 -48.653  1.00  0.00    -0.265 OA
BRANCH  20  23
HETATM   23  C   UNL     1     -46.467  64.638 -46.942  1.00  0.00     0.155 C 
BRANCH  23  24
HETATM   24  C   UNL     1     -46.526  63.877 -45.607  1.00  0.00     0.139 C 
HETATM   25  O   UNL     1     -47.273  64.657 -44.646  1.00  0.00    -0.384 OA
HETATM   26  C   UNL     1     -46.518  64.706 -43.430  1.00  0.00     0.168 C 
HETATM   27  C   UNL     1     -45.072  64.543 -43.835  1.00  0.00     0.029 C 
HETATM   28  C   UNL     1     -45.174  63.563 -44.977  1.00  0.00     0.035 C 
ENDBRANCH  23  24
ENDBRANCH  20  23
ENDBRANCH  17  19
ENDBRANCH   5  10
BRANCH   1  29
HETATM   29  C   UNL     1     -42.638  55.047 -52.384  1.00  0.00     0.273 C 
BRANCH  29  30
HETATM   30  C   UNL     1     -41.634  53.947 -52.168  1.00  0.00    -0.030 A 
HETATM   31  C   UNL     1     -41.072  53.253 -53.254  1.00  0.00     0.048 A 
HETATM   32  C   UNL     1     -40.179  52.184 -53.058  1.00  0.00     0.102 A 
HETATM   33  C   UNL     1     -39.838  51.816 -51.743  1.00  0.00     0.101 A 
HETATM   34  C   UNL     1     -40.394  52.520 -50.667  1.00  0.00     0.040 A 
HETATM   35  C   UNL     1     -41.281  53.573 -50.870  1.00  0.00     0.012 A 
BRANCH  32  36
HETATM   36  O   UNL     1     -39.638  51.466 -54.087  1.00  0.00    -0.353 OA
HETATM   37  C   UNL     1     -40.218  50.220 -54.447  1.00  0.00     0.210 C 
ENDBRANCH  32  36
BRANCH  33  38
HETATM   38  O   UNL     1     -39.012  50.811 -51.318  1.00  0.00    -0.353 OA
HETATM   39  C   UNL     1     -39.576  49.608 -50.819  1.00  0.00     0.210 C 
ENDBRANCH  33  38
ENDBRANCH  29  30
ENDBRANCH   1  29
TORSDOF 9
ENDMDL
MODEL 7
REMARK VINA RESULT:      -8.0      2.048      2.947
REMARK  9 active torsions:
REMARK  status: ('A' for Active; 'I' for Inactive)
REMARK    1  A    between atoms: O_2  and  C_3 
REMARK    2  A    between atoms: C_4  and  O_5 
REMARK    3  A    between atoms: C_8  and  C_9 
REMARK    4  A    between atoms: C_9  and  N_10 
REMARK    5  A    between atoms: C_14  and  O_15 
REMARK    6  A    between atoms: C_14  and  C_16 
REMARK    7  A    between atoms: C_21  and  C_22 
REMARK       I    between atoms: C_22  and  N_23 
REMARK    8  A    between atoms: N_23  and  C_24 
REMARK    9  A    between atoms: C_24  and  C_25 
ROOT
HETATM    1  N   UNL     1     -42.354  56.248 -54.659  1.00  0.00    -0.067 N 
HETATM    2  H   UNL     1     -42.511  55.445 -55.281  1.00  0.00     0.280 HD
HETATM    3  C   UNL     1     -43.493  56.255 -53.662  1.00  0.00     0.238 C 
HETATM    4  C   UNL     1     -44.810  56.526 -54.375  1.00  0.00     0.071 C 
HETATM    5  C   UNL     1     -44.790  57.871 -55.126  1.00  0.00     0.088 C 
HETATM    6  C   UNL     1     -43.657  57.746 -56.166  1.00  0.00     0.071 C 
HETATM    7  C   UNL     1     -42.310  57.494 -55.513  1.00  0.00     0.238 C 
ENDROOT
BRANCH   5   8
HETATM    8  O   UNL     1     -46.012  57.952 -55.860  1.00  0.00    -0.385 OA
HETATM    9  H   UNL     1     -45.934  58.631 -56.556  1.00  0.00     0.211 HD
ENDBRANCH   5   8
BRANCH   5  10
HETATM   10  C   UNL     1     -44.693  59.105 -54.215  1.00  0.00    -0.023 A 
HETATM   11  C   UNL     1     -45.439  59.183 -53.015  1.00  0.00     0.024 A 
HETATM   12  C   UNL     1     -45.262  60.271 -52.139  1.00  0.00     0.001 A 
HETATM   13  C   UNL     1     -44.392  61.284 -52.507  1.00  0.00     0.086 A 
HETATM   14  C   UNL     1     -45.770  60.639 -50.868  1.00  0.00     0.057 A 
HETATM   15  O   UNL     1     -44.316  62.226 -51.530  1.00  0.00    -0.304 OA
HETATM   16  C   UNL     1     -43.706  61.310 -53.714  1.00  0.00     0.039 A 
HETATM   17  C   UNL     1     -45.151  61.826 -50.518  1.00  0.00     0.144 A 
HETATM   18  C   UNL     1     -43.883  60.206 -54.563  1.00  0.00     0.013 A 
BRANCH  17  19
HETATM   19  C   UNL     1     -45.241  62.613 -49.306  1.00  0.00     0.275 C 
HETATM   20  N   UNL     1     -46.434  62.477 -48.638  1.00  0.00    -0.353 N 
HETATM   21  H   UNL     1     -47.160  61.920 -49.075  1.00  0.00     0.162 HD
HETATM   22  O   UNL     1     -44.349  63.367 -48.930  1.00  0.00    -0.265 OA
BRANCH  20  23
HETATM   23  C   UNL     1     -46.811  63.287 -47.497  1.00  0.00     0.155 C 
BRANCH  23  24
HETATM   24  C   UNL     1     -46.678  62.542 -46.158  1.00  0.00     0.139 C 
HETATM   25  O   UNL     1     -45.647  63.171 -45.363  1.00  0.00    -0.384 OA
HETATM   26  C   UNL     1     -44.779  62.145 -44.869  1.00  0.00     0.168 C 
HETATM   27  C   UNL     1     -44.869  61.012 -45.865  1.00  0.00     0.029 C 
HETATM   28  C   UNL     1     -46.321  61.064 -46.269  1.00  0.00     0.035 C 
ENDBRANCH  23  24
ENDBRANCH  20  23
ENDBRANCH  17  19
ENDBRANCH   5  10
BRANCH   1  29
HETATM   29  C   UNL     1     -40.998  56.019 -54.006  1.00  0.00     0.273 C 
BRANCH  29  30
HETATM   30  C   UNL     1     -40.697  54.580 -53.688  1.00  0.00    -0.030 A 
HETATM   31  C   UNL     1     -40.632  54.127 -52.359  1.00  0.00     0.048 A 
HETATM   32  C   UNL     1     -40.291  52.796 -52.053  1.00  0.00     0.102 A 
HETATM   33  C   UNL     1     -40.024  51.904 -53.107  1.00  0.00     0.101 A 
HETATM   34  C   UNL     1     -40.102  52.360 -54.430  1.00  0.00     0.040 A 
HETATM   35  C   UNL     1     -40.434  53.680 -54.724  1.00  0.00     0.012 A 
BRANCH  32  36
HETATM   36  O   UNL     1     -40.187  52.330 -50.773  1.00  0.00    -0.353 OA
HETATM   37  C   UNL     1     -40.372  53.228 -49.688  1.00  0.00     0.210 C 
ENDBRANCH  32  36
BRANCH  33  38
HETATM   38  O   UNL     1     -39.663  50.585 -53.048  1.00  0.00    -0.353 OA
HETATM   39  C   UNL     1     -39.501  49.852 -54.251  1.00  0.00     0.210 C 
ENDBRANCH  33  38
ENDBRANCH  29  30
ENDBRANCH   1  29
TORSDOF 9
ENDMDL
MODEL 8
REMARK VINA RESULT:      -7.9     19.262     22.631
REMARK  9 active torsions:
REMARK  status: ('A' for Active; 'I' for Inactive)
REMARK    1  A    between atoms: O_2  and  C_3 
REMARK    2  A    between atoms: C_4  and  O_5 
REMARK    3  A    between atoms: C_8  and  C_9 
REMARK    4  A    between atoms: C_9  and  N_10 
REMARK    5  A    between atoms: C_14  and  O_15 
REMARK    6  A    between atoms: C_14  and  C_16 
REMARK    7  A    between atoms: C_21  and  C_22 
REMARK       I    between atoms: C_22  and  N_23 
REMARK    8  A    between atoms: N_23  and  C_24 
REMARK    9  A    between atoms: C_24  and  C_25 
ROOT
HETATM    1  N   UNL     1     -33.750  39.498 -50.702  1.00  0.00    -0.067 N 
HETATM    2  H   UNL     1     -33.918  39.211 -49.729  1.00  0.00     0.280 HD
HETATM    3  C   UNL     1     -34.169  40.948 -50.807  1.00  0.00     0.238 C 
HETATM    4  C   UNL     1     -35.669  41.075 -50.586  1.00  0.00     0.071 C 
HETATM    5  C   UNL     1     -36.472  40.244 -51.604  1.00  0.00     0.088 C 
HETATM    6  C   UNL     1     -36.040  38.781 -51.375  1.00  0.00     0.071 C 
HETATM    7  C   UNL     1     -34.551  38.585 -51.601  1.00  0.00     0.238 C 
ENDROOT
BRANCH   5   8
HETATM    8  O   UNL     1     -37.844  40.330 -51.217  1.00  0.00    -0.385 OA
HETATM    9  H   UNL     1     -37.913  40.752 -50.341  1.00  0.00     0.211 HD
ENDBRANCH   5   8
BRANCH   5  10
HETATM   10  C   UNL     1     -36.351  40.729 -53.057  1.00  0.00    -0.023 A 
HETATM   11  C   UNL     1     -36.790  39.922 -54.133  1.00  0.00     0.024 A 
HETATM   12  C   UNL     1     -36.770  40.420 -55.449  1.00  0.00     0.001 A 
HETATM   13  C   UNL     1     -36.256  41.687 -55.671  1.00  0.00     0.086 A 
HETATM   14  C   UNL     1     -37.176  39.939 -56.719  1.00  0.00     0.057 A 
HETATM   15  O   UNL     1     -36.352  42.017 -56.986  1.00  0.00    -0.304 OA
HETATM   16  C   UNL     1     -35.721  42.488 -54.670  1.00  0.00     0.039 A 
HETATM   17  C   UNL     1     -36.927  40.951 -57.629  1.00  0.00     0.144 A 
HETATM   18  C   UNL     1     -35.770  41.978 -53.363  1.00  0.00     0.013 A 
BRANCH  17  19
HETATM   19  C   UNL     1     -37.206  41.032 -59.048  1.00  0.00     0.275 C 
HETATM   20  N   UNL     1     -37.406  39.813 -59.648  1.00  0.00    -0.353 N 
HETATM   21  H   UNL     1     -37.266  38.980 -59.087  1.00  0.00     0.162 HD
HETATM   22  O   UNL     1     -37.221  42.091 -59.667  1.00  0.00    -0.265 OA
BRANCH  20  23
HETATM   23  C   UNL     1     -37.538  39.637 -61.082  1.00  0.00     0.155 C 
BRANCH  23  24
HETATM   24  C   UNL     1     -38.079  38.252 -61.472  1.00  0.00     0.139 C 
HETATM   25  O   UNL     1     -38.481  38.270 -62.860  1.00  0.00    -0.384 OA
HETATM   26  C   UNL     1     -39.789  37.695 -62.952  1.00  0.00     0.168 C 
HETATM   27  C   UNL     1     -40.441  37.934 -61.611  1.00  0.00     0.029 C 
HETATM   28  C   UNL     1     -39.279  37.771 -60.663  1.00  0.00     0.035 C 
ENDBRANCH  23  24
ENDBRANCH  20  23
ENDBRANCH  17  19
ENDBRANCH   5  10
BRANCH   1  29
HETATM   29  C   UNL     1     -32.261  39.293 -50.951  1.00  0.00     0.273 C 
BRANCH  29  30
HETATM   30  C   UNL     1     -31.914  38.936 -52.371  1.00  0.00    -0.030 A 
HETATM   31  C   UNL     1     -31.981  39.893 -53.399  1.00  0.00     0.048 A 
HETATM   32  C   UNL     1     -31.717  39.551 -54.738  1.00  0.00     0.102 A 
HETATM   33  C   UNL     1     -31.366  38.223 -55.043  1.00  0.00     0.101 A 
HETATM   34  C   UNL     1     -31.290  37.278 -54.012  1.00  0.00     0.040 A 
HETATM   35  C   UNL     1     -31.558  37.623 -52.690  1.00  0.00     0.012 A 
BRANCH  32  36
HETATM   36  O   UNL     1     -31.804  40.446 -55.766  1.00  0.00    -0.353 OA
HETATM   37  C   UNL     1     -32.972  40.465 -56.575  1.00  0.00     0.210 C 
ENDBRANCH  32  36
BRANCH  33  38
HETATM   38  O   UNL     1     -31.084  37.666 -56.261  1.00  0.00    -0.353 OA
HETATM   39  C   UNL     1     -29.744  37.325 -56.578  1.00  0.00     0.210 C 
ENDBRANCH  33  38
ENDBRANCH  29  30
ENDBRANCH   1  29
TORSDOF 9
ENDMDL
MODEL 9
REMARK VINA RESULT:      -7.9      5.305     10.825
REMARK  9 active torsions:
REMARK  status: ('A' for Active; 'I' for Inactive)
REMARK    1  A    between atoms: O_2  and  C_3 
REMARK    2  A    between atoms: C_4  and  O_5 
REMARK    3  A    between atoms: C_8  and  C_9 
REMARK    4  A    between atoms: C_9  and  N_10 
REMARK    5  A    between atoms: C_14  and  O_15 
REMARK    6  A    between atoms: C_14  and  C_16 
REMARK    7  A    between atoms: C_21  and  C_22 
REMARK       I    between atoms: C_22  and  N_23 
REMARK    8  A    between atoms: N_23  and  C_24 
REMARK    9  A    between atoms: C_24  and  C_25 
ROOT
HETATM    1  N   UNL     1     -42.244  57.882 -50.539  1.00  0.00    -0.067 N 
HETATM    2  H   UNL     1     -42.446  57.910 -49.532  1.00  0.00     0.280 HD
HETATM    3  C   UNL     1     -43.579  57.813 -51.248  1.00  0.00     0.238 C 
HETATM    4  C   UNL     1     -44.276  56.500 -50.923  1.00  0.00     0.071 C 
HETATM    5  C   UNL     1     -43.425  55.282 -51.331  1.00  0.00     0.088 C 
HETATM    6  C   UNL     1     -42.124  55.393 -50.509  1.00  0.00     0.071 C 
HETATM    7  C   UNL     1     -41.371  56.678 -50.805  1.00  0.00     0.238 C 
ENDROOT
BRANCH   5   8
HETATM    8  O   UNL     1     -44.110  54.122 -50.858  1.00  0.00    -0.385 OA
HETATM    9  H   UNL     1     -43.662  53.776 -50.064  1.00  0.00     0.211 HD
ENDBRANCH   5   8
BRANCH   5  10
HETATM   10  C   UNL     1     -43.216  55.133 -52.846  1.00  0.00    -0.023 A 
HETATM   11  C   UNL     1     -43.692  56.115 -53.746  1.00  0.00     0.024 A 
HETATM   12  C   UNL     1     -43.402  56.019 -55.121  1.00  0.00     0.001 A 
HETATM   13  C   UNL     1     -42.699  54.916 -55.575  1.00  0.00     0.086 A 
HETATM   14  C   UNL     1     -43.650  56.818 -56.265  1.00  0.00     0.057 A 
HETATM   15  O   UNL     1     -42.477  55.009 -56.912  1.00  0.00    -0.304 OA
HETATM   16  C   UNL     1     -42.289  53.872 -54.755  1.00  0.00     0.039 A 
HETATM   17  C   UNL     1     -43.049  56.181 -57.336  1.00  0.00     0.144 A 
HETATM   18  C   UNL     1     -42.572  53.999 -53.386  1.00  0.00     0.013 A 
BRANCH  17  19
HETATM   19  C   UNL     1     -42.929  56.580 -58.723  1.00  0.00     0.275 C 
HETATM   20  N   UNL     1     -43.127  57.923 -58.937  1.00  0.00    -0.353 N 
HETATM   21  H   UNL     1     -43.412  58.491 -58.148  1.00  0.00     0.162 HD
HETATM   22  O   UNL     1     -42.710  55.785 -59.631  1.00  0.00    -0.265 OA
BRANCH  20  23
HETATM   23  C   UNL     1     -43.217  58.519 -60.256  1.00  0.00     0.155 C 
BRANCH  23  24
HETATM   24  C   UNL     1     -42.045  59.463 -60.572  1.00  0.00     0.139 C 
HETATM   25  O   UNL     1     -41.712  60.224 -59.388  1.00  0.00    -0.384 OA
HETATM   26  C   UNL     1     -41.607  61.602 -59.761  1.00  0.00     0.168 C 
HETATM   27  C   UNL     1     -42.498  61.773 -60.969  1.00  0.00     0.029 C 
HETATM   28  C   UNL     1     -42.300  60.464 -61.693  1.00  0.00     0.035 C 
ENDBRANCH  23  24
ENDBRANCH  20  23
ENDBRANCH  17  19
ENDBRANCH   5  10
BRANCH   1  29
HETATM   29  C   UNL     1     -41.474  59.158 -50.852  1.00  0.00     0.273 C 
BRANCH  29  30
HETATM   30  C   UNL     1     -41.812  59.776 -52.181  1.00  0.00    -0.030 A 
HETATM   31  C   UNL     1     -42.622  60.923 -52.265  1.00  0.00     0.048 A 
HETATM   32  C   UNL     1     -42.992  61.470 -53.507  1.00  0.00     0.102 A 
HETATM   33  C   UNL     1     -42.527  60.858 -54.685  1.00  0.00     0.101 A 
HETATM   34  C   UNL     1     -41.710  59.722 -54.593  1.00  0.00     0.040 A 
HETATM   35  C   UNL     1     -41.353  59.184 -53.360  1.00  0.00     0.012 A 
BRANCH  32  36
HETATM   36  O   UNL     1     -43.803  62.563 -53.627  1.00  0.00    -0.353 OA
HETATM   37  C   UNL     1     -45.208  62.405 -53.491  1.00  0.00     0.210 C 
ENDBRANCH  32  36
BRANCH  33  38
HETATM   38  O   UNL     1     -42.767  61.203 -55.987  1.00  0.00    -0.353 OA
HETATM   39  C   UNL     1     -43.928  60.710 -56.637  1.00  0.00     0.210 C 
ENDBRANCH  33  38
ENDBRANCH  29  30
ENDBRANCH   1  29
TORSDOF 9
ENDMDL
MODEL 10
REMARK VINA RESULT:      -7.8      4.725      6.720
REMARK  9 active torsions:
REMARK  status: ('A' for Active; 'I' for Inactive)
REMARK    1  A    between atoms: O_2  and  C_3 
REMARK    2  A    between atoms: C_4  and  O_5 
REMARK    3  A    between atoms: C_8  and  C_9 
REMARK    4  A    between atoms: C_9  and  N_10 
REMARK    5  A    between atoms: C_14  and  O_15 
REMARK    6  A    between atoms: C_14  and  C_16 
REMARK    7  A    between atoms: C_21  and  C_22 
REMARK       I    between atoms: C_22  and  N_23 
REMARK    8  A    between atoms: N_23  and  C_24 
REMARK    9  A    between atoms: C_24  and  C_25 
ROOT
HETATM    1  N   UNL     1     -42.407  56.196 -54.494  1.00  0.00    -0.067 N 
HETATM    2  H   UNL     1     -41.586  55.926 -55.050  1.00  0.00     0.280 HD
HETATM    3  C   UNL     1     -43.336  56.944 -55.425  1.00  0.00     0.238 C 
HETATM    4  C   UNL     1     -42.687  58.245 -55.875  1.00  0.00     0.071 C 
HETATM    5  C   UNL     1     -42.332  59.153 -54.682  1.00  0.00     0.088 C 
HETATM    6  C   UNL     1     -41.329  58.345 -53.833  1.00  0.00     0.071 C 
HETATM    7  C   UNL     1     -41.926  57.040 -53.335  1.00  0.00     0.238 C 
ENDROOT
BRANCH   5   8
HETATM    8  O   UNL     1     -41.614  60.268 -55.212  1.00  0.00    -0.385 OA
HETATM    9  H   UNL     1     -41.485  60.938 -54.514  1.00  0.00     0.211 HD
ENDBRANCH   5   8
BRANCH   5  10
HETATM   10  C   UNL     1     -43.547  59.687 -53.907  1.00  0.00    -0.023 A 
HETATM   11  C   UNL     1     -44.438  60.613 -54.500  1.00  0.00     0.024 A 
HETATM   12  C   UNL     1     -45.603  61.013 -53.817  1.00  0.00     0.001 A 
HETATM   13  C   UNL     1     -45.822  60.530 -52.538  1.00  0.00     0.086 A 
HETATM   14  C   UNL     1     -46.714  61.842 -54.113  1.00  0.00     0.057 A 
HETATM   15  O   UNL     1     -47.006  60.986 -52.052  1.00  0.00    -0.304 OA
HETATM   16  C   UNL     1     -44.936  59.696 -51.868  1.00  0.00     0.039 A 
HETATM   17  C   UNL     1     -47.561  61.782 -53.021  1.00  0.00     0.144 A 
HETATM   18  C   UNL     1     -43.792  59.295 -52.574  1.00  0.00     0.013 A 
BRANCH  17  19
HETATM   19  C   UNL     1     -48.864  62.375 -52.806  1.00  0.00     0.275 C 
HETATM   20  N   UNL     1     -49.911  61.593 -53.229  1.00  0.00    -0.353 N 
HETATM   21  H   UNL     1     -49.692  60.730 -53.715  1.00  0.00     0.162 HD
HETATM   22  O   UNL     1     -49.018  63.494 -52.326  1.00  0.00    -0.265 OA
BRANCH  20  23
HETATM   23  C   UNL     1     -51.288  62.046 -53.264  1.00  0.00     0.155 C 
BRANCH  23  24
HETATM   24  C   UNL     1     -51.839  62.188 -54.692  1.00  0.00     0.139 C 
HETATM   25  O   UNL     1     -53.154  61.590 -54.758  1.00  0.00    -0.384 OA
HETATM   26  C   UNL     1     -53.196  60.734 -55.905  1.00  0.00     0.168 C 
HETATM   27  C   UNL     1     -51.771  60.297 -56.148  1.00  0.00     0.029 C 
HETATM   28  C   UNL     1     -50.995  61.538 -55.783  1.00  0.00     0.035 C 
ENDBRANCH  23  24
ENDBRANCH  20  23
ENDBRANCH  17  19
ENDBRANCH   5  10
BRANCH   1  29
HETATM   29  C   UNL     1     -43.010  54.899 -53.973  1.00  0.00     0.273 C 
BRANCH  29  30
HETATM   30  C   UNL     1     -42.017  53.961 -53.343  1.00  0.00    -0.030 A 
HETATM   31  C   UNL     1     -41.784  53.973 -51.956  1.00  0.00     0.048 A 
HETATM   32  C   UNL     1     -40.812  53.142 -51.369  1.00  0.00     0.102 A 
HETATM   33  C   UNL     1     -40.072  52.275 -52.192  1.00  0.00     0.101 A 
HETATM   34  C   UNL     1     -40.317  52.261 -53.572  1.00  0.00     0.040 A 
HETATM   35  C   UNL     1     -41.277  53.090 -54.146  1.00  0.00     0.012 A 
BRANCH  32  36
HETATM   36  O   UNL     1     -40.537  53.150 -50.030  1.00  0.00    -0.353 OA
HETATM   37  C   UNL     1     -39.751  54.201 -49.488  1.00  0.00     0.210 C 
ENDBRANCH  32  36
BRANCH  33  38
HETATM   38  O   UNL     1     -39.079  51.399 -51.847  1.00  0.00    -0.353 OA
HETATM   39  C   UNL     1     -39.423  50.126 -51.323  1.00  0.00     0.210 C 
ENDBRANCH  33  38
ENDBRANCH  29  30
ENDBRANCH   1  29
TORSDOF 9
ENDMDL
