MODEL 1
REMARK VINA RESULT:      -6.9      0.000      0.000
REMARK  5 active torsions:
REMARK  status: ('A' for Active; 'I' for Inactive)
REMARK    1  A    between atoms: C_2  and  C_3 
REMARK    2  A    between atoms: C_3  and  N_4 
REMARK       I    between atoms: N_4  and  C_5 
REMARK    3  A    between atoms: C_5  and  C_6 
REMARK    4  A    between atoms: C_7  and  O_8 
REMARK    5  A    between atoms: O_8  and  C_9 
ROOT
HETATM    1  C   UNL     1     -43.068  58.702 -52.158  1.00  0.00     0.121 C 
HETATM    2  C   UNL     1     -44.211  58.094 -51.412  1.00  0.00     0.091 C 
HETATM    3  N   UNL     1     -45.108  57.600 -50.863  1.00  0.00    -0.195 NA
HETATM    4  C   UNL     1     -43.236  60.234 -52.078  1.00  0.00     0.055 C 
ENDROOT
BRANCH   1   5
HETATM    5  C   UNL     1     -41.708  58.235 -51.524  1.00  0.00     0.020 C 
HETATM    6  C   UNL     1     -41.791  56.833 -50.899  1.00  0.00     0.013 C 
HETATM    7  C   UNL     1     -41.138  59.213 -50.484  1.00  0.00     0.013 C 
ENDBRANCH   1   5
BRANCH   1   8
HETATM    8  N   UNL     1     -43.170  58.266 -53.571  1.00  0.00    -0.335 N 
HETATM    9  C   UNL     1     -42.255  58.560 -54.554  1.00  0.00     0.257 C 
HETATM   10  O   UNL     1     -41.257  59.243 -54.343  1.00  0.00    -0.267 OA
HETATM   11  H   UNL     1     -43.971  57.690 -53.811  1.00  0.00     0.164 HD
BRANCH   9  12
HETATM   12  C   UNL     1     -42.474  57.998 -55.917  1.00  0.00     0.085 A 
HETATM   13  C   UNL     1     -43.006  56.739 -56.197  1.00  0.00     0.185 A 
HETATM   14  N   UNL     1     -43.153  56.252 -57.459  1.00  0.00    -0.236 NA
HETATM   15  C   UNL     1     -42.793  57.053 -58.482  1.00  0.00     0.119 A 
HETATM   16  C   UNL     1     -42.281  58.324 -58.312  1.00  0.00     0.020 A 
HETATM   17  C   UNL     1     -42.120  58.799 -57.012  1.00  0.00     0.023 A 
BRANCH  13  18
HETATM   18  O   UNL     1     -43.360  55.918 -55.132  1.00  0.00    -0.291 OA
BRANCH  18  19
HETATM   19  C   UNL     1     -42.426  55.026 -54.662  1.00  0.00     0.078 A 
HETATM   20  C   UNL     1     -42.685  54.422 -53.430  1.00  0.00     0.039 A 
HETATM   21  C   UNL     1     -41.802  53.466 -52.924  1.00  0.00     0.026 A 
HETATM   22  C   UNL     1     -40.673  53.108 -53.661  1.00  0.00     0.034 A 
HETATM   23 CL   UNL     1     -39.582  51.935 -53.036  1.00  0.00    -0.084 Cl
HETATM   24  C   UNL     1     -40.426  53.690 -54.905  1.00  0.00     0.026 A 
HETATM   25  C   UNL     1     -41.311  54.643 -55.414  1.00  0.00     0.039 A 
ENDBRANCH  18  19
ENDBRANCH  13  18
ENDBRANCH   9  12
ENDBRANCH   1   8
TORSDOF 5
ENDMDL
MODEL 2
REMARK VINA RESULT:      -6.9      1.668      5.130
REMARK  5 active torsions:
REMARK  status: ('A' for Active; 'I' for Inactive)
REMARK    1  A    between atoms: C_2  and  C_3 
REMARK    2  A    between atoms: C_3  and  N_4 
REMARK       I    between atoms: N_4  and  C_5 
REMARK    3  A    between atoms: C_5  and  C_6 
REMARK    4  A    between atoms: C_7  and  O_8 
REMARK    5  A    between atoms: O_8  and  C_9 
ROOT
HETATM    1  C   UNL     1     -43.019  57.256 -57.438  1.00  0.00     0.121 C 
HETATM    2  C   UNL     1     -44.414  57.684 -57.760  1.00  0.00     0.091 C 
HETATM    3  N   UNL     1     -45.501  58.035 -57.975  1.00  0.00    -0.195 NA
HETATM    4  C   UNL     1     -42.974  55.719 -57.566  1.00  0.00     0.055 C 
ENDROOT
BRANCH   1   5
HETATM    5  C   UNL     1     -42.008  57.949 -58.422  1.00  0.00     0.020 C 
HETATM    6  C   UNL     1     -42.155  59.479 -58.448  1.00  0.00     0.013 C 
HETATM    7  C   UNL     1     -42.077  57.416 -59.862  1.00  0.00     0.013 C 
ENDBRANCH   1   5
BRANCH   1   8
HETATM    8  N   UNL     1     -42.742  57.645 -56.035  1.00  0.00    -0.335 N 
HETATM    9  C   UNL     1     -43.418  57.166 -54.938  1.00  0.00     0.257 C 
HETATM   10  O   UNL     1     -44.345  56.367 -55.031  1.00  0.00    -0.267 OA
HETATM   11  H   UNL     1     -41.979  58.298 -55.887  1.00  0.00     0.164 HD
BRANCH   9  12
HETATM   12  C   UNL     1     -42.980  57.613 -53.585  1.00  0.00     0.085 A 
HETATM   13  C   UNL     1     -41.695  57.465 -53.061  1.00  0.00     0.185 A 
HETATM   14  N   UNL     1     -41.350  57.856 -51.804  1.00  0.00    -0.236 NA
HETATM   15  C   UNL     1     -42.301  58.445 -51.050  1.00  0.00     0.119 A 
HETATM   16  C   UNL     1     -43.594  58.661 -51.485  1.00  0.00     0.020 A 
HETATM   17  C   UNL     1     -43.934  58.237 -52.769  1.00  0.00     0.023 A 
BRANCH  13  18
HETATM   18  O   UNL     1     -40.728  56.843 -53.842  1.00  0.00    -0.291 OA
BRANCH  18  19
HETATM   19  C   UNL     1     -40.699  55.470 -53.869  1.00  0.00     0.078 A 
HETATM   20  C   UNL     1     -40.313  54.864 -55.066  1.00  0.00     0.039 A 
HETATM   21  C   UNL     1     -40.211  53.473 -55.139  1.00  0.00     0.026 A 
HETATM   22  C   UNL     1     -40.480  52.698 -54.011  1.00  0.00     0.034 A 
HETATM   23 CL   UNL     1     -40.360  50.984 -54.103  1.00  0.00    -0.084 Cl
HETATM   24  C   UNL     1     -40.839  53.303 -52.806  1.00  0.00     0.026 A 
HETATM   25  C   UNL     1     -40.938  54.694 -52.730  1.00  0.00     0.039 A 
ENDBRANCH  18  19
ENDBRANCH  13  18
ENDBRANCH   9  12
ENDBRANCH   1   8
TORSDOF 5
ENDMDL
MODEL 3
REMARK VINA RESULT:      -6.8      1.603      2.367
REMARK  5 active torsions:
REMARK  status: ('A' for Active; 'I' for Inactive)
REMARK    1  A    between atoms: C_2  and  C_3 
REMARK    2  A    between atoms: C_3  and  N_4 
REMARK       I    between atoms: N_4  and  C_5 
REMARK    3  A    between atoms: C_5  and  C_6 
REMARK    4  A    between atoms: C_7  and  O_8 
REMARK    5  A    between atoms: O_8  and  C_9 
ROOT
HETATM    1  C   UNL     1     -41.655  58.531 -52.058  1.00  0.00     0.121 C 
HETATM    2  C   UNL     1     -40.239  58.984 -51.913  1.00  0.00     0.091 C 
HETATM    3  N   UNL     1     -39.131  59.328 -51.837  1.00  0.00    -0.195 NA
HETATM    4  C   UNL     1     -41.906  57.466 -50.969  1.00  0.00     0.055 C 
ENDROOT
BRANCH   1   5
HETATM    5  C   UNL     1     -42.626  59.756 -51.904  1.00  0.00     0.020 C 
HETATM    6  C   UNL     1     -42.491  60.773 -53.049  1.00  0.00     0.013 C 
HETATM    7  C   UNL     1     -42.490  60.493 -50.561  1.00  0.00     0.013 C 
ENDBRANCH   1   5
BRANCH   1   8
HETATM    8  N   UNL     1     -41.794  57.911 -53.397  1.00  0.00    -0.335 N 
HETATM    9  C   UNL     1     -42.976  57.462 -53.938  1.00  0.00     0.257 C 
HETATM   10  O   UNL     1     -44.042  57.521 -53.334  1.00  0.00    -0.267 OA
HETATM   11  H   UNL     1     -40.948  57.839 -53.954  1.00  0.00     0.164 HD
BRANCH   9  12
HETATM   12  C   UNL     1     -42.957  56.913 -55.324  1.00  0.00     0.085 A 
HETATM   13  C   UNL     1     -43.205  55.585 -55.671  1.00  0.00     0.185 A 
HETATM   14  N   UNL     1     -43.139  55.120 -56.948  1.00  0.00    -0.236 NA
HETATM   15  C   UNL     1     -42.851  56.009 -57.922  1.00  0.00     0.119 A 
HETATM   16  C   UNL     1     -42.615  57.349 -57.685  1.00  0.00     0.020 A 
HETATM   17  C   UNL     1     -42.668  57.802 -56.369  1.00  0.00     0.023 A 
BRANCH  13  18
HETATM   18  O   UNL     1     -43.487  54.676 -54.657  1.00  0.00    -0.291 OA
BRANCH  18  19
HETATM   19  C   UNL     1     -42.432  54.059 -54.027  1.00  0.00     0.078 A 
HETATM   20  C   UNL     1     -42.379  54.154 -52.635  1.00  0.00     0.039 A 
HETATM   21  C   UNL     1     -41.363  53.501 -51.933  1.00  0.00     0.026 A 
HETATM   22  C   UNL     1     -40.417  52.746 -52.626  1.00  0.00     0.034 A 
HETATM   23 CL   UNL     1     -39.162  51.947 -51.762  1.00  0.00    -0.084 Cl
HETATM   24  C   UNL     1     -40.485  52.627 -54.014  1.00  0.00     0.026 A 
HETATM   25  C   UNL     1     -41.503  53.276 -54.718  1.00  0.00     0.039 A 
ENDBRANCH  18  19
ENDBRANCH  13  18
ENDBRANCH   9  12
ENDBRANCH   1   8
TORSDOF 5
ENDMDL
MODEL 4
REMARK VINA RESULT:      -6.8      3.135      6.777
REMARK  5 active torsions:
REMARK  status: ('A' for Active; 'I' for Inactive)
REMARK    1  A    between atoms: C_2  and  C_3 
REMARK    2  A    between atoms: C_3  and  N_4 
REMARK       I    between atoms: N_4  and  C_5 
REMARK    3  A    between atoms: C_5  and  C_6 
REMARK    4  A    between atoms: C_7  and  O_8 
REMARK    5  A    between atoms: O_8  and  C_9 
ROOT
HETATM    1  C   UNL     1     -43.942  55.996 -58.846  1.00  0.00     0.121 C 
HETATM    2  C   UNL     1     -42.748  56.315 -59.687  1.00  0.00     0.091 C 
HETATM    3  N   UNL     1     -41.798  56.543 -60.316  1.00  0.00    -0.195 NA
HETATM    4  C   UNL     1     -44.615  57.337 -58.486  1.00  0.00     0.055 C 
ENDROOT
BRANCH   1   5
HETATM    5  C   UNL     1     -44.917  55.053 -59.638  1.00  0.00     0.020 C 
HETATM    6  C   UNL     1     -44.574  53.563 -59.471  1.00  0.00     0.013 C 
HETATM    7  C   UNL     1     -45.014  55.378 -61.138  1.00  0.00     0.013 C 
ENDBRANCH   1   5
BRANCH   1   8
HETATM    8  N   UNL     1     -43.457  55.337 -57.610  1.00  0.00    -0.335 N 
HETATM    9  C   UNL     1     -42.612  55.914 -56.691  1.00  0.00     0.257 C 
HETATM   10  O   UNL     1     -42.161  57.047 -56.828  1.00  0.00    -0.267 OA
HETATM   11  H   UNL     1     -43.799  54.399 -57.432  1.00  0.00     0.164 HD
BRANCH   9  12
HETATM   12  C   UNL     1     -42.262  55.137 -55.467  1.00  0.00     0.085 A 
HETATM   13  C   UNL     1     -43.082  54.974 -54.350  1.00  0.00     0.185 A 
HETATM   14  N   UNL     1     -42.704  54.287 -53.238  1.00  0.00    -0.236 NA
HETATM   15  C   UNL     1     -41.484  53.712 -53.244  1.00  0.00     0.119 A 
HETATM   16  C   UNL     1     -40.608  53.793 -54.309  1.00  0.00     0.020 A 
HETATM   17  C   UNL     1     -41.005  54.516 -55.432  1.00  0.00     0.023 A 
BRANCH  13  18
HETATM   18  O   UNL     1     -44.332  55.584 -54.351  1.00  0.00    -0.291 OA
BRANCH  18  19
HETATM   19  C   UNL     1     -44.420  56.884 -53.913  1.00  0.00     0.078 A 
HETATM   20  C   UNL     1     -44.967  57.817 -54.796  1.00  0.00     0.039 A 
HETATM   21  C   UNL     1     -45.134  59.143 -54.390  1.00  0.00     0.026 A 
HETATM   22  C   UNL     1     -44.768  59.523 -53.098  1.00  0.00     0.034 A 
HETATM   23 CL   UNL     1     -44.968  61.157 -52.600  1.00  0.00    -0.084 Cl
HETATM   24  C   UNL     1     -44.247  58.586 -52.206  1.00  0.00     0.026 A 
HETATM   25  C   UNL     1     -44.083  57.259 -52.609  1.00  0.00     0.039 A 
ENDBRANCH  18  19
ENDBRANCH  13  18
ENDBRANCH   9  12
ENDBRANCH   1   8
TORSDOF 5
ENDMDL
MODEL 5
REMARK VINA RESULT:      -6.7      1.537      2.104
REMARK  5 active torsions:
REMARK  status: ('A' for Active; 'I' for Inactive)
REMARK    1  A    between atoms: C_2  and  C_3 
REMARK    2  A    between atoms: C_3  and  N_4 
REMARK       I    between atoms: N_4  and  C_5 
REMARK    3  A    between atoms: C_5  and  C_6 
REMARK    4  A    between atoms: C_7  and  O_8 
REMARK    5  A    between atoms: O_8  and  C_9 
ROOT
HETATM    1  C   UNL     1     -43.218  57.327 -51.526  1.00  0.00     0.121 C 
HETATM    2  C   UNL     1     -44.578  57.670 -51.010  1.00  0.00     0.091 C 
HETATM    3  N   UNL     1     -45.650  57.928 -50.644  1.00  0.00    -0.195 NA
HETATM    4  C   UNL     1     -42.309  58.544 -51.253  1.00  0.00     0.055 C 
ENDROOT
BRANCH   1   5
HETATM    5  C   UNL     1     -42.686  56.034 -50.810  1.00  0.00     0.020 C 
HETATM    6  C   UNL     1     -41.367  55.519 -51.410  1.00  0.00     0.013 C 
HETATM    7  C   UNL     1     -43.701  54.881 -50.772  1.00  0.00     0.013 C 
ENDBRANCH   1   5
BRANCH   1   8
HETATM    8  N   UNL     1     -43.333  57.112 -52.988  1.00  0.00    -0.335 N 
HETATM    9  C   UNL     1     -43.753  58.060 -53.892  1.00  0.00     0.257 C 
HETATM   10  O   UNL     1     -44.095  59.189 -53.553  1.00  0.00    -0.267 OA
HETATM   11  H   UNL     1     -43.058  56.200 -53.336  1.00  0.00     0.164 HD
BRANCH   9  12
HETATM   12  C   UNL     1     -43.759  57.704 -55.340  1.00  0.00     0.085 A 
HETATM   13  C   UNL     1     -42.750  57.009 -56.006  1.00  0.00     0.185 A 
HETATM   14  N   UNL     1     -42.781  56.740 -57.339  1.00  0.00    -0.236 NA
HETATM   15  C   UNL     1     -43.866  57.141 -58.032  1.00  0.00     0.119 A 
HETATM   16  C   UNL     1     -44.930  57.812 -57.461  1.00  0.00     0.020 A 
HETATM   17  C   UNL     1     -44.872  58.096 -56.098  1.00  0.00     0.023 A 
BRANCH  13  18
HETATM   18  O   UNL     1     -41.629  56.613 -55.283  1.00  0.00    -0.291 OA
BRANCH  18  19
HETATM   19  C   UNL     1     -41.440  55.270 -55.064  1.00  0.00     0.078 A 
HETATM   20  C   UNL     1     -40.122  54.823 -54.949  1.00  0.00     0.039 A 
HETATM   21  C   UNL     1     -39.865  53.479 -54.671  1.00  0.00     0.026 A 
HETATM   22  C   UNL     1     -40.928  52.593 -54.494  1.00  0.00     0.034 A 
HETATM   23 CL   UNL     1     -40.612  50.936 -54.158  1.00  0.00    -0.084 Cl
HETATM   24  C   UNL     1     -42.246  53.043 -54.581  1.00  0.00     0.026 A 
HETATM   25  C   UNL     1     -42.504  54.388 -54.855  1.00  0.00     0.039 A 
ENDBRANCH  18  19
ENDBRANCH  13  18
ENDBRANCH   9  12
ENDBRANCH   1   8
TORSDOF 5
ENDMDL
MODEL 6
REMARK VINA RESULT:      -6.6      2.101      5.405
REMARK  5 active torsions:
REMARK  status: ('A' for Active; 'I' for Inactive)
REMARK    1  A    between atoms: C_2  and  C_3 
REMARK    2  A    between atoms: C_3  and  N_4 
REMARK       I    between atoms: N_4  and  C_5 
REMARK    3  A    between atoms: C_5  and  C_6 
REMARK    4  A    between atoms: C_7  and  O_8 
REMARK    5  A    between atoms: O_8  and  C_9 
ROOT
HETATM    1  C   UNL     1     -44.867  57.308 -58.933  1.00  0.00     0.121 C 
HETATM    2  C   UNL     1     -44.324  55.978 -59.343  1.00  0.00     0.091 C 
HETATM    3  N   UNL     1     -43.887  54.939 -59.626  1.00  0.00    -0.195 NA
HETATM    4  C   UNL     1     -44.333  58.347 -59.941  1.00  0.00     0.055 C 
ENDROOT
BRANCH   1   5
HETATM    5  C   UNL     1     -46.437  57.263 -58.923  1.00  0.00     0.020 C 
HETATM    6  C   UNL     1     -47.039  57.118 -60.330  1.00  0.00     0.013 C 
HETATM    7  C   UNL     1     -47.089  58.467 -58.222  1.00  0.00     0.013 C 
ENDBRANCH   1   5
BRANCH   1   8
HETATM    8  N   UNL     1     -44.337  57.612 -57.582  1.00  0.00    -0.335 N 
HETATM    9  C   UNL     1     -43.012  57.825 -57.286  1.00  0.00     0.257 C 
HETATM   10  O   UNL     1     -42.128  57.764 -58.135  1.00  0.00    -0.267 OA
HETATM   11  H   UNL     1     -45.019  57.685 -56.833  1.00  0.00     0.164 HD
BRANCH   9  12
HETATM   12  C   UNL     1     -42.647  58.177 -55.883  1.00  0.00     0.085 A 
HETATM   13  C   UNL     1     -42.708  57.313 -54.791  1.00  0.00     0.185 A 
HETATM   14  N   UNL     1     -42.401  57.689 -53.520  1.00  0.00    -0.236 NA
HETATM   15  C   UNL     1     -41.985  58.958 -53.329  1.00  0.00     0.119 A 
HETATM   16  C   UNL     1     -41.865  59.883 -54.347  1.00  0.00     0.020 A 
HETATM   17  C   UNL     1     -42.202  59.484 -55.639  1.00  0.00     0.023 A 
BRANCH  13  18
HETATM   18  O   UNL     1     -43.153  56.011 -54.999  1.00  0.00    -0.291 OA
BRANCH  18  19
HETATM   19  C   UNL     1     -42.316  54.977 -54.656  1.00  0.00     0.078 A 
HETATM   20  C   UNL     1     -41.185  54.782 -55.452  1.00  0.00     0.039 A 
HETATM   21  C   UNL     1     -40.268  53.782 -55.122  1.00  0.00     0.026 A 
HETATM   22  C   UNL     1     -40.478  52.994 -53.990  1.00  0.00     0.034 A 
HETATM   23 CL   UNL     1     -39.351  51.759 -53.588  1.00  0.00    -0.084 Cl
HETATM   24  C   UNL     1     -41.593  53.206 -53.179  1.00  0.00     0.026 A 
HETATM   25  C   UNL     1     -42.510  54.208 -53.505  1.00  0.00     0.039 A 
ENDBRANCH  18  19
ENDBRANCH  13  18
ENDBRANCH   9  12
ENDBRANCH   1   8
TORSDOF 5
ENDMDL
MODEL 7
REMARK VINA RESULT:      -6.6      1.209      1.874
REMARK  5 active torsions:
REMARK  status: ('A' for Active; 'I' for Inactive)
REMARK    1  A    between atoms: C_2  and  C_3 
REMARK    2  A    between atoms: C_3  and  N_4 
REMARK       I    between atoms: N_4  and  C_5 
REMARK    3  A    between atoms: C_5  and  C_6 
REMARK    4  A    between atoms: C_7  and  O_8 
REMARK    5  A    between atoms: O_8  and  C_9 
ROOT
HETATM    1  C   UNL     1     -43.419  58.213 -51.889  1.00  0.00     0.121 C 
HETATM    2  C   UNL     1     -42.254  57.592 -51.189  1.00  0.00     0.091 C 
HETATM    3  N   UNL     1     -41.338  57.093 -50.678  1.00  0.00    -0.195 NA
HETATM    4  C   UNL     1     -44.687  57.810 -51.107  1.00  0.00     0.055 C 
ENDROOT
BRANCH   1   5
HETATM    5  C   UNL     1     -43.242  59.773 -51.940  1.00  0.00     0.020 C 
HETATM    6  C   UNL     1     -43.040  60.397 -50.548  1.00  0.00     0.013 C 
HETATM    7  C   UNL     1     -44.389  60.507 -52.654  1.00  0.00     0.013 C 
ENDBRANCH   1   5
BRANCH   1   8
HETATM    8  N   UNL     1     -43.478  57.643 -53.256  1.00  0.00    -0.335 N 
HETATM    9  C   UNL     1     -42.480  57.748 -54.196  1.00  0.00     0.257 C 
HETATM   10  O   UNL     1     -41.434  58.353 -53.984  1.00  0.00    -0.267 OA
HETATM   11  H   UNL     1     -44.315  57.122 -53.494  1.00  0.00     0.164 HD
BRANCH   9  12
HETATM   12  C   UNL     1     -42.670  57.068 -55.510  1.00  0.00     0.085 A 
HETATM   13  C   UNL     1     -43.101  55.753 -55.685  1.00  0.00     0.185 A 
HETATM   14  N   UNL     1     -43.224  55.162 -56.904  1.00  0.00    -0.236 NA
HETATM   15  C   UNL     1     -42.943  55.910 -57.991  1.00  0.00     0.119 A 
HETATM   16  C   UNL     1     -42.534  57.227 -57.926  1.00  0.00     0.020 A 
HETATM   17  C   UNL     1     -42.396  57.810 -56.668  1.00  0.00     0.023 A 
BRANCH  13  18
HETATM   18  O   UNL     1     -43.374  54.989 -54.556  1.00  0.00    -0.291 OA
BRANCH  18  19
HETATM   19  C   UNL     1     -42.346  54.267 -53.997  1.00  0.00     0.078 A 
HETATM   20  C   UNL     1     -42.294  54.209 -52.603  1.00  0.00     0.039 A 
HETATM   21  C   UNL     1     -41.307  53.446 -51.976  1.00  0.00     0.026 A 
HETATM   22  C   UNL     1     -40.388  52.734 -52.747  1.00  0.00     0.034 A 
HETATM   23 CL   UNL     1     -39.168  51.799 -51.974  1.00  0.00    -0.084 Cl
HETATM   24  C   UNL     1     -40.455  52.769 -54.140  1.00  0.00     0.026 A 
HETATM   25  C   UNL     1     -41.445  53.528 -54.768  1.00  0.00     0.039 A 
ENDBRANCH  18  19
ENDBRANCH  13  18
ENDBRANCH   9  12
ENDBRANCH   1   8
TORSDOF 5
ENDMDL
MODEL 8
REMARK VINA RESULT:      -6.6      2.742      4.937
REMARK  5 active torsions:
REMARK  status: ('A' for Active; 'I' for Inactive)
REMARK    1  A    between atoms: C_2  and  C_3 
REMARK    2  A    between atoms: C_3  and  N_4 
REMARK       I    between atoms: N_4  and  C_5 
REMARK    3  A    between atoms: C_5  and  C_6 
REMARK    4  A    between atoms: C_7  and  O_8 
REMARK    5  A    between atoms: O_8  and  C_9 
ROOT
HETATM    1  C   UNL     1     -41.544  54.325 -52.175  1.00  0.00     0.121 C 
HETATM    2  C   UNL     1     -41.037  53.180 -52.990  1.00  0.00     0.091 C 
HETATM    3  N   UNL     1     -40.636  52.314 -53.653  1.00  0.00    -0.195 NA
HETATM    4  C   UNL     1     -42.967  53.955 -51.706  1.00  0.00     0.055 C 
ENDROOT
BRANCH   1   5
HETATM    5  C   UNL     1     -40.582  54.582 -50.960  1.00  0.00     0.020 C 
HETATM    6  C   UNL     1     -40.280  53.306 -50.157  1.00  0.00     0.013 C 
HETATM    7  C   UNL     1     -41.076  55.674 -49.996  1.00  0.00     0.013 C 
ENDBRANCH   1   5
BRANCH   1   8
HETATM    8  N   UNL     1     -41.608  55.513 -53.060  1.00  0.00    -0.335 N 
HETATM    9  C   UNL     1     -42.525  55.694 -54.068  1.00  0.00     0.257 C 
HETATM   10  O   UNL     1     -43.381  54.858 -54.340  1.00  0.00    -0.267 OA
HETATM   11  H   UNL     1     -40.930  56.247 -52.882  1.00  0.00     0.164 HD
BRANCH   9  12
HETATM   12  C   UNL     1     -42.491  56.973 -54.834  1.00  0.00     0.085 A 
HETATM   13  C   UNL     1     -42.542  58.251 -54.276  1.00  0.00     0.185 A 
HETATM   14  N   UNL     1     -42.547  59.391 -55.018  1.00  0.00    -0.236 NA
HETATM   15  C   UNL     1     -42.465  59.265 -56.358  1.00  0.00     0.119 A 
HETATM   16  C   UNL     1     -42.384  58.047 -57.005  1.00  0.00     0.020 A 
HETATM   17  C   UNL     1     -42.399  56.890 -56.230  1.00  0.00     0.023 A 
BRANCH  13  18
HETATM   18  O   UNL     1     -42.641  58.368 -52.894  1.00  0.00    -0.291 OA
BRANCH  18  19
HETATM   19  C   UNL     1     -41.534  58.788 -52.197  1.00  0.00     0.078 A 
HETATM   20  C   UNL     1     -41.732  59.205 -50.879  1.00  0.00     0.039 A 
HETATM   21  C   UNL     1     -40.639  59.591 -50.101  1.00  0.00     0.026 A 
HETATM   22  C   UNL     1     -39.353  59.542 -50.640  1.00  0.00     0.034 A 
HETATM   23 CL   UNL     1     -38.007  60.024 -49.683  1.00  0.00    -0.084 Cl
HETATM   24  C   UNL     1     -39.150  59.100 -51.947  1.00  0.00     0.026 A 
HETATM   25  C   UNL     1     -40.242  58.710 -52.726  1.00  0.00     0.039 A 
ENDBRANCH  18  19
ENDBRANCH  13  18
ENDBRANCH   9  12
ENDBRANCH   1   8
TORSDOF 5
ENDMDL
MODEL 9
REMARK VINA RESULT:      -6.2      3.120      5.469
REMARK  5 active torsions:
REMARK  status: ('A' for Active; 'I' for Inactive)
REMARK    1  A    between atoms: C_2  and  C_3 
REMARK    2  A    between atoms: C_3  and  N_4 
REMARK       I    between atoms: N_4  and  C_5 
REMARK    3  A    between atoms: C_5  and  C_6 
REMARK    4  A    between atoms: C_7  and  O_8 
REMARK    5  A    between atoms: O_8  and  C_9 
ROOT
HETATM    1  C   UNL     1     -41.418  54.373 -52.071  1.00  0.00     0.121 C 
HETATM    2  C   UNL     1     -40.774  53.254 -52.822  1.00  0.00     0.091 C 
HETATM    3  N   UNL     1     -40.263  52.409 -53.435  1.00  0.00    -0.195 NA
HETATM    4  C   UNL     1     -42.876  53.953 -51.791  1.00  0.00     0.055 C 
ENDROOT
BRANCH   1   5
HETATM    5  C   UNL     1     -40.629  54.647 -50.740  1.00  0.00     0.020 C 
HETATM    6  C   UNL     1     -40.503  53.397 -49.853  1.00  0.00     0.013 C 
HETATM    7  C   UNL     1     -41.205  55.799 -49.901  1.00  0.00     0.013 C 
ENDBRANCH   1   5
BRANCH   1   8
HETATM    8  N   UNL     1     -41.407  55.569 -52.947  1.00  0.00    -0.335 N 
HETATM    9  C   UNL     1     -42.264  55.779 -54.001  1.00  0.00     0.257 C 
HETATM   10  O   UNL     1     -43.124  54.966 -54.325  1.00  0.00    -0.267 OA
HETATM   11  H   UNL     1     -40.723  56.285 -52.729  1.00  0.00     0.164 HD
BRANCH   9  12
HETATM   12  C   UNL     1     -42.161  57.063 -54.753  1.00  0.00     0.085 A 
HETATM   13  C   UNL     1     -41.803  58.294 -54.205  1.00  0.00     0.185 A 
HETATM   14  N   UNL     1     -41.758  59.449 -54.923  1.00  0.00    -0.236 NA
HETATM   15  C   UNL     1     -42.044  59.377 -56.239  1.00  0.00     0.119 A 
HETATM   16  C   UNL     1     -42.384  58.202 -56.882  1.00  0.00     0.020 A 
HETATM   17  C   UNL     1     -42.443  57.033 -56.126  1.00  0.00     0.023 A 
BRANCH  13  18
HETATM   18  O   UNL     1     -41.524  58.358 -52.844  1.00  0.00    -0.291 OA
BRANCH  18  19
HETATM   19  C   UNL     1     -42.382  59.068 -52.038  1.00  0.00     0.078 A 
HETATM   20  C   UNL     1     -43.698  58.609 -51.949  1.00  0.00     0.039 A 
HETATM   21  C   UNL     1     -44.603  59.254 -51.104  1.00  0.00     0.026 A 
HETATM   22  C   UNL     1     -44.183  60.343 -50.341  1.00  0.00     0.034 A 
HETATM   23 CL   UNL     1     -45.300  61.142 -49.305  1.00  0.00    -0.084 Cl
HETATM   24  C   UNL     1     -42.862  60.786 -50.407  1.00  0.00     0.026 A 
HETATM   25  C   UNL     1     -41.954  60.140 -51.249  1.00  0.00     0.039 A 
ENDBRANCH  18  19
ENDBRANCH  13  18
ENDBRANCH   9  12
ENDBRANCH   1   8
TORSDOF 5
ENDMDL
MODEL 10
REMARK VINA RESULT:      -6.2      1.220      2.085
REMARK  5 active torsions:
REMARK  status: ('A' for Active; 'I' for Inactive)
REMARK    1  A    between atoms: C_2  and  C_3 
REMARK    2  A    between atoms: C_3  and  N_4 
REMARK       I    between atoms: N_4  and  C_5 
REMARK    3  A    between atoms: C_5  and  C_6 
REMARK    4  A    between atoms: C_7  and  O_8 
REMARK    5  A    between atoms: O_8  and  C_9 
ROOT
HETATM    1  C   UNL     1     -43.343  59.614 -52.586  1.00  0.00     0.121 C 
HETATM    2  C   UNL     1     -43.193  61.075 -52.859  1.00  0.00     0.091 C 
HETATM    3  N   UNL     1     -43.082  62.205 -53.109  1.00  0.00    -0.195 NA
HETATM    4  C   UNL     1     -42.089  59.166 -51.806  1.00  0.00     0.055 C 
ENDROOT
BRANCH   1   5
HETATM    5  C   UNL     1     -44.657  59.355 -51.765  1.00  0.00     0.020 C 
HETATM    6  C   UNL     1     -44.738  60.203 -50.484  1.00  0.00     0.013 C 
HETATM    7  C   UNL     1     -44.884  57.879 -51.403  1.00  0.00     0.013 C 
ENDBRANCH   1   5
BRANCH   1   8
HETATM    8  N   UNL     1     -43.389  58.915 -53.892  1.00  0.00    -0.335 N 
HETATM    9  C   UNL     1     -42.368  58.901 -54.813  1.00  0.00     0.257 C 
HETATM   10  O   UNL     1     -41.310  59.496 -54.635  1.00  0.00    -0.267 OA
HETATM   11  H   UNL     1     -44.236  58.396 -54.100  1.00  0.00     0.164 HD
BRANCH   9  12
HETATM   12  C   UNL     1     -42.549  58.102 -56.059  1.00  0.00     0.085 A 
HETATM   13  C   UNL     1     -43.059  56.805 -56.121  1.00  0.00     0.185 A 
HETATM   14  N   UNL     1     -43.171  56.100 -57.279  1.00  0.00    -0.236 NA
HETATM   15  C   UNL     1     -42.798  56.712 -58.422  1.00  0.00     0.119 A 
HETATM   16  C   UNL     1     -42.305  58.001 -58.470  1.00  0.00     0.020 A 
HETATM   17  C   UNL     1     -42.180  58.701 -57.272  1.00  0.00     0.023 A 
BRANCH  13  18
HETATM   18  O   UNL     1     -43.428  56.180 -54.935  1.00  0.00    -0.291 OA
BRANCH  18  19
HETATM   19  C   UNL     1     -42.558  55.270 -54.384  1.00  0.00     0.078 A 
HETATM   20  C   UNL     1     -41.883  55.655 -53.225  1.00  0.00     0.039 A 
HETATM   21  C   UNL     1     -41.028  54.754 -52.586  1.00  0.00     0.026 A 
HETATM   22  C   UNL     1     -40.866  53.468 -53.102  1.00  0.00     0.034 A 
HETATM   23 CL   UNL     1     -39.808  52.361 -52.319  1.00  0.00    -0.084 Cl
HETATM   24  C   UNL     1     -41.561  53.072 -54.245  1.00  0.00     0.026 A 
HETATM   25  C   UNL     1     -42.420  53.971 -54.882  1.00  0.00     0.039 A 
ENDBRANCH  18  19
ENDBRANCH  13  18
ENDBRANCH   9  12
ENDBRANCH   1   8
TORSDOF 5
ENDMDL
