MODEL 1
REMARK VINA RESULT:      -8.5      0.000      0.000
REMARK  9 active torsions:
REMARK  status: ('A' for Active; 'I' for Inactive)
REMARK    1  A    between atoms: C_5  and  C_6 
REMARK    2  A    between atoms: C_6  and  N_7 
REMARK       I    between atoms: N_7  and  C_8 
REMARK    3  A    between atoms: C_8  and  C_9 
REMARK    4  A    between atoms: C_10  and  S_11 
REMARK    5  A    between atoms: S_11  and  C_12 
REMARK    6  A    between atoms: C_12  and  C_13 
REMARK       I    between atoms: C_13  and  N_14 
REMARK    7  A    between atoms: N_14  and  C_15 
REMARK    8  A    between atoms: C_16  and  O_17 
REMARK    9  A    between atoms: C_20  and  O_21 
ROOT
HETATM    1  C   UNL     1     -42.787  57.205 -51.622  1.00  0.00     0.067 A 
HETATM    2  C   UNL     1     -42.687  57.967 -52.788  1.00  0.00     0.109 A 
HETATM    3  N   UNL     1     -43.741  58.687 -53.273  1.00  0.00    -0.253 NA
HETATM    4  C   UNL     1     -44.921  58.607 -52.616  1.00  0.00     0.118 A 
HETATM    5  C   UNL     1     -45.112  57.861 -51.470  1.00  0.00     0.020 A 
HETATM    6  C   UNL     1     -44.028  57.154 -50.964  1.00  0.00     0.021 A 
ENDROOT
BRANCH   2   7
HETATM    7  S   UNL     1     -41.228  58.120 -53.797  1.00  0.00    -0.100 SA
BRANCH   7   8
HETATM    8  C   UNL     1     -41.311  56.548 -54.698  1.00  0.00     0.184 C 
BRANCH   8   9
HETATM    9  C   UNL     1     -42.515  56.371 -55.617  1.00  0.00     0.231 C 
HETATM   10  N   UNL     1     -42.366  56.862 -56.902  1.00  0.00    -0.324 N 
HETATM   11  H   UNL     1     -41.405  57.075 -57.171  1.00  0.00     0.169 HD
HETATM   12  O   UNL     1     -43.460  55.686 -55.223  1.00  0.00    -0.272 OA
BRANCH  10  13
HETATM   13  C   UNL     1     -43.299  56.719 -57.955  1.00  0.00     0.068 A 
HETATM   14  C   UNL     1     -44.426  57.541 -58.146  1.00  0.00     0.097 A 
HETATM   15  C   UNL     1     -45.342  57.228 -59.165  1.00  0.00     0.075 A 
HETATM   16  C   UNL     1     -45.127  56.131 -60.005  1.00  0.00     0.070 A 
HETATM   17  C   UNL     1     -43.960  55.383 -59.870  1.00  0.00     0.039 A 
HETATM   18  C   UNL     1     -43.049  55.680 -58.859  1.00  0.00     0.035 A 
BRANCH  14  19
HETATM   19  O   UNL     1     -44.496  58.688 -57.398  1.00  0.00    -0.354 OA
HETATM   20  C   UNL     1     -45.504  58.769 -56.401  1.00  0.00     0.210 C 
ENDBRANCH  14  19
BRANCH  16  21
HETATM   21  O   UNL     1     -45.956  55.722 -61.014  1.00  0.00    -0.356 OA
HETATM   22  C   UNL     1     -47.247  56.318 -61.050  1.00  0.00     0.210 C 
ENDBRANCH  16  21
ENDBRANCH  10  13
ENDBRANCH   8   9
ENDBRANCH   7   8
ENDBRANCH   2   7
BRANCH   1  23
HETATM   23  C   UNL     1     -41.659  56.430 -51.051  1.00  0.00     0.254 C 
HETATM   24  N   UNL     1     -41.632  55.093 -51.394  1.00  0.00    -0.353 N 
HETATM   25  H   UNL     1     -42.430  54.664 -51.845  1.00  0.00     0.163 HD
HETATM   26  O   UNL     1     -40.809  56.961 -50.353  1.00  0.00    -0.268 OA
BRANCH  24  27
HETATM   27  C   UNL     1     -40.600  54.209 -50.900  1.00  0.00     0.161 C 
BRANCH  27  28
HETATM   28  C   UNL     1     -40.365  53.072 -51.861  1.00  0.00    -0.041 A 
HETATM   29  C   UNL     1     -40.727  53.202 -53.209  1.00  0.00     0.009 A 
HETATM   30  C   UNL     1     -40.498  52.163 -54.113  1.00  0.00     0.007 A 
HETATM   31  C   UNL     1     -39.907  50.970 -53.684  1.00  0.00    -0.062 A 
HETATM   32  C   UNL     1     -39.611  49.866 -54.658  1.00  0.00     0.048 C 
HETATM   33  C   UNL     1     -39.540  50.838 -52.340  1.00  0.00     0.007 A 
HETATM   34  C   UNL     1     -39.772  51.877 -51.435  1.00  0.00     0.009 A 
ENDBRANCH  27  28
ENDBRANCH  24  27
ENDBRANCH   1  23
TORSDOF 9
ENDMDL
MODEL 2
REMARK VINA RESULT:      -8.3      1.947      2.892
REMARK  9 active torsions:
REMARK  status: ('A' for Active; 'I' for Inactive)
REMARK    1  A    between atoms: C_5  and  C_6 
REMARK    2  A    between atoms: C_6  and  N_7 
REMARK       I    between atoms: N_7  and  C_8 
REMARK    3  A    between atoms: C_8  and  C_9 
REMARK    4  A    between atoms: C_10  and  S_11 
REMARK    5  A    between atoms: S_11  and  C_12 
REMARK    6  A    between atoms: C_12  and  C_13 
REMARK       I    between atoms: C_13  and  N_14 
REMARK    7  A    between atoms: N_14  and  C_15 
REMARK    8  A    between atoms: C_16  and  O_17 
REMARK    9  A    between atoms: C_20  and  O_21 
ROOT
HETATM    1  C   UNL     1     -42.227  57.531 -52.400  1.00  0.00     0.067 A 
HETATM    2  C   UNL     1     -43.233  57.677 -53.358  1.00  0.00     0.109 A 
HETATM    3  N   UNL     1     -43.303  58.772 -54.170  1.00  0.00    -0.253 NA
HETATM    4  C   UNL     1     -42.390  59.754 -53.993  1.00  0.00     0.118 A 
HETATM    5  C   UNL     1     -41.378  59.700 -53.056  1.00  0.00     0.020 A 
HETATM    6  C   UNL     1     -41.293  58.570 -52.252  1.00  0.00     0.021 A 
ENDROOT
BRANCH   2   7
HETATM    7  S   UNL     1     -44.540  56.507 -53.666  1.00  0.00    -0.100 SA
BRANCH   7   8
HETATM    8  C   UNL     1     -43.588  55.188 -54.467  1.00  0.00     0.184 C 
BRANCH   8   9
HETATM    9  C   UNL     1     -42.973  55.537 -55.818  1.00  0.00     0.231 C 
HETATM   10  N   UNL     1     -43.657  56.480 -56.564  1.00  0.00    -0.324 N 
HETATM   11  H   UNL     1     -44.359  57.009 -56.046  1.00  0.00     0.169 HD
HETATM   12  O   UNL     1     -41.857  55.089 -56.089  1.00  0.00    -0.272 OA
BRANCH  10  13
HETATM   13  C   UNL     1     -43.226  57.035 -57.791  1.00  0.00     0.068 A 
HETATM   14  C   UNL     1     -43.343  56.404 -59.043  1.00  0.00     0.097 A 
HETATM   15  C   UNL     1     -42.774  57.011 -60.176  1.00  0.00     0.075 A 
HETATM   16  C   UNL     1     -42.123  58.244 -60.073  1.00  0.00     0.070 A 
HETATM   17  C   UNL     1     -42.098  58.906 -58.848  1.00  0.00     0.039 A 
HETATM   18  C   UNL     1     -42.653  58.310 -57.717  1.00  0.00     0.035 A 
BRANCH  14  19
HETATM   19  O   UNL     1     -44.128  55.282 -59.106  1.00  0.00    -0.354 OA
HETATM   20  C   UNL     1     -44.679  54.928 -60.366  1.00  0.00     0.210 C 
ENDBRANCH  14  19
BRANCH  16  21
HETATM   21  O   UNL     1     -41.518  58.917 -61.100  1.00  0.00    -0.356 OA
HETATM   22  C   UNL     1     -42.052  60.196 -61.416  1.00  0.00     0.210 C 
ENDBRANCH  16  21
ENDBRANCH  10  13
ENDBRANCH   8   9
ENDBRANCH   7   8
ENDBRANCH   2   7
BRANCH   1  23
HETATM   23  C   UNL     1     -42.104  56.346 -51.516  1.00  0.00     0.254 C 
HETATM   24  N   UNL     1     -41.063  55.492 -51.820  1.00  0.00    -0.353 N 
HETATM   25  H   UNL     1     -40.558  55.590 -52.690  1.00  0.00     0.163 HD
HETATM   26  O   UNL     1     -42.861  56.173 -50.573  1.00  0.00    -0.268 OA
BRANCH  24  27
HETATM   27  C   UNL     1     -40.828  54.289 -51.053  1.00  0.00     0.161 C 
BRANCH  27  28
HETATM   28  C   UNL     1     -40.475  53.138 -51.959  1.00  0.00    -0.041 A 
HETATM   29  C   UNL     1     -39.830  52.005 -51.441  1.00  0.00     0.009 A 
HETATM   30  C   UNL     1     -39.514  50.924 -52.267  1.00  0.00     0.007 A 
HETATM   31  C   UNL     1     -39.831  50.957 -53.628  1.00  0.00    -0.062 A 
HETATM   32  C   UNL     1     -39.541  49.780 -54.513  1.00  0.00     0.048 C 
HETATM   33  C   UNL     1     -40.479  52.084 -54.148  1.00  0.00     0.007 A 
HETATM   34  C   UNL     1     -40.793  53.167 -53.323  1.00  0.00     0.009 A 
ENDBRANCH  27  28
ENDBRANCH  24  27
ENDBRANCH   1  23
TORSDOF 9
ENDMDL
MODEL 3
REMARK VINA RESULT:      -8.3      1.206      2.129
REMARK  9 active torsions:
REMARK  status: ('A' for Active; 'I' for Inactive)
REMARK    1  A    between atoms: C_5  and  C_6 
REMARK    2  A    between atoms: C_6  and  N_7 
REMARK       I    between atoms: N_7  and  C_8 
REMARK    3  A    between atoms: C_8  and  C_9 
REMARK    4  A    between atoms: C_10  and  S_11 
REMARK    5  A    between atoms: S_11  and  C_12 
REMARK    6  A    between atoms: C_12  and  C_13 
REMARK       I    between atoms: C_13  and  N_14 
REMARK    7  A    between atoms: N_14  and  C_15 
REMARK    8  A    between atoms: C_16  and  O_17 
REMARK    9  A    between atoms: C_20  and  O_21 
ROOT
HETATM    1  C   UNL     1     -42.751  57.414 -51.537  1.00  0.00     0.067 A 
HETATM    2  C   UNL     1     -42.683  58.410 -52.513  1.00  0.00     0.109 A 
HETATM    3  N   UNL     1     -43.791  59.094 -52.924  1.00  0.00    -0.253 NA
HETATM    4  C   UNL     1     -44.985  58.748 -52.393  1.00  0.00     0.118 A 
HETATM    5  C   UNL     1     -45.145  57.761 -51.441  1.00  0.00     0.020 A 
HETATM    6  C   UNL     1     -44.010  57.088 -51.004  1.00  0.00     0.021 A 
ENDROOT
BRANCH   2   7
HETATM    7  S   UNL     1     -41.202  58.933 -53.350  1.00  0.00    -0.100 SA
BRANCH   7   8
HETATM    8  C   UNL     1     -41.932  59.955 -54.658  1.00  0.00     0.184 C 
BRANCH   8   9
HETATM    9  C   UNL     1     -42.237  59.239 -55.970  1.00  0.00     0.231 C 
HETATM   10  N   UNL     1     -43.327  58.388 -55.950  1.00  0.00    -0.324 N 
HETATM   11  H   UNL     1     -43.946  58.502 -55.146  1.00  0.00     0.169 HD
HETATM   12  O   UNL     1     -41.610  59.569 -56.979  1.00  0.00    -0.272 OA
BRANCH  10  13
HETATM   13  C   UNL     1     -43.861  57.702 -57.065  1.00  0.00     0.068 A 
HETATM   14  C   UNL     1     -43.334  56.514 -57.606  1.00  0.00     0.097 A 
HETATM   15  C   UNL     1     -43.888  55.990 -58.787  1.00  0.00     0.075 A 
HETATM   16  C   UNL     1     -44.971  56.619 -59.406  1.00  0.00     0.070 A 
HETATM   17  C   UNL     1     -45.547  57.738 -58.811  1.00  0.00     0.039 A 
HETATM   18  C   UNL     1     -45.002  58.271 -57.644  1.00  0.00     0.035 A 
BRANCH  14  19
HETATM   19  O   UNL     1     -42.382  55.861 -56.867  1.00  0.00    -0.354 OA
HETATM   20  C   UNL     1     -42.805  54.786 -56.042  1.00  0.00     0.210 C 
ENDBRANCH  14  19
BRANCH  16  21
HETATM   21  O   UNL     1     -45.577  56.211 -60.564  1.00  0.00    -0.356 OA
HETATM   22  C   UNL     1     -45.014  55.073 -61.204  1.00  0.00     0.210 C 
ENDBRANCH  16  21
ENDBRANCH  10  13
ENDBRANCH   8   9
ENDBRANCH   7   8
ENDBRANCH   2   7
BRANCH   1  23
HETATM   23  C   UNL     1     -41.568  56.665 -51.047  1.00  0.00     0.254 C 
HETATM   24  N   UNL     1     -41.554  55.321 -51.356  1.00  0.00    -0.353 N 
HETATM   25  H   UNL     1     -42.382  54.871 -51.724  1.00  0.00     0.163 HD
HETATM   26  O   UNL     1     -40.666  57.224 -50.440  1.00  0.00    -0.268 OA
BRANCH  24  27
HETATM   27  C   UNL     1     -40.471  54.461 -50.932  1.00  0.00     0.161 C 
BRANCH  27  28
HETATM   28  C   UNL     1     -40.283  53.321 -51.900  1.00  0.00    -0.041 A 
HETATM   29  C   UNL     1     -39.708  52.117 -51.467  1.00  0.00     0.009 A 
HETATM   30  C   UNL     1     -39.544  51.047 -52.349  1.00  0.00     0.007 A 
HETATM   31  C   UNL     1     -39.948  51.162 -53.683  1.00  0.00    -0.062 A 
HETATM   32  C   UNL     1     -39.822  50.000 -54.626  1.00  0.00     0.048 C 
HETATM   33  C   UNL     1     -40.526  52.361 -54.117  1.00  0.00     0.007 A 
HETATM   34  C   UNL     1     -40.687  53.432 -53.235  1.00  0.00     0.009 A 
ENDBRANCH  27  28
ENDBRANCH  24  27
ENDBRANCH   1  23
TORSDOF 9
ENDMDL
MODEL 4
REMARK VINA RESULT:      -8.1      1.958      2.432
REMARK  9 active torsions:
REMARK  status: ('A' for Active; 'I' for Inactive)
REMARK    1  A    between atoms: C_5  and  C_6 
REMARK    2  A    between atoms: C_6  and  N_7 
REMARK       I    between atoms: N_7  and  C_8 
REMARK    3  A    between atoms: C_8  and  C_9 
REMARK    4  A    between atoms: C_10  and  S_11 
REMARK    5  A    between atoms: S_11  and  C_12 
REMARK    6  A    between atoms: C_12  and  C_13 
REMARK       I    between atoms: C_13  and  N_14 
REMARK    7  A    between atoms: N_14  and  C_15 
REMARK    8  A    between atoms: C_16  and  O_17 
REMARK    9  A    between atoms: C_20  and  O_21 
ROOT
HETATM    1  C   UNL     1     -41.288  57.150 -50.670  1.00  0.00     0.067 A 
HETATM    2  C   UNL     1     -42.482  57.445 -51.329  1.00  0.00     0.109 A 
HETATM    3  N   UNL     1     -42.687  58.644 -51.949  1.00  0.00    -0.253 NA
HETATM    4  C   UNL     1     -41.710  59.576 -51.868  1.00  0.00     0.118 A 
HETATM    5  C   UNL     1     -40.510  59.375 -51.218  1.00  0.00     0.020 A 
HETATM    6  C   UNL     1     -40.294  58.142 -50.614  1.00  0.00     0.021 A 
ENDROOT
BRANCH   2   7
HETATM    7  S   UNL     1     -43.881  56.352 -51.466  1.00  0.00    -0.100 SA
BRANCH   7   8
HETATM    8  C   UNL     1     -43.206  55.133 -52.627  1.00  0.00     0.184 C 
BRANCH   8   9
HETATM    9  C   UNL     1     -42.721  55.684 -53.963  1.00  0.00     0.231 C 
HETATM   10  N   UNL     1     -43.703  55.915 -54.910  1.00  0.00    -0.324 N 
HETATM   11  H   UNL     1     -44.657  55.918 -54.546  1.00  0.00     0.169 HD
HETATM   12  O   UNL     1     -41.541  56.026 -54.064  1.00  0.00    -0.272 OA
BRANCH  10  13
HETATM   13  C   UNL     1     -43.507  56.517 -56.174  1.00  0.00     0.068 A 
HETATM   14  C   UNL     1     -43.678  57.888 -56.446  1.00  0.00     0.097 A 
HETATM   15  C   UNL     1     -43.562  58.347 -57.769  1.00  0.00     0.075 A 
HETATM   16  C   UNL     1     -43.251  57.463 -58.806  1.00  0.00     0.070 A 
HETATM   17  C   UNL     1     -42.988  56.127 -58.512  1.00  0.00     0.039 A 
HETATM   18  C   UNL     1     -43.107  55.660 -57.205  1.00  0.00     0.035 A 
BRANCH  14  19
HETATM   19  O   UNL     1     -43.821  58.724 -55.369  1.00  0.00    -0.354 OA
HETATM   20  C   UNL     1     -45.134  59.138 -55.021  1.00  0.00     0.210 C 
ENDBRANCH  14  19
BRANCH  16  21
HETATM   21  O   UNL     1     -43.133  57.792 -60.129  1.00  0.00    -0.356 OA
HETATM   22  C   UNL     1     -41.925  58.439 -60.512  1.00  0.00     0.210 C 
ENDBRANCH  16  21
ENDBRANCH  10  13
ENDBRANCH   8   9
ENDBRANCH   7   8
ENDBRANCH   2   7
BRANCH   1  23
HETATM   23  C   UNL     1     -41.018  55.851 -50.006  1.00  0.00     0.254 C 
HETATM   24  N   UNL     1     -40.419  54.897 -50.802  1.00  0.00    -0.353 N 
HETATM   25  H   UNL     1     -40.351  55.034 -51.802  1.00  0.00     0.163 HD
HETATM   26  O   UNL     1     -41.288  55.669 -48.828  1.00  0.00    -0.268 OA
BRANCH  24  27
HETATM   27  C   UNL     1     -40.109  53.579 -50.295  1.00  0.00     0.161 C 
BRANCH  27  28
HETATM   28  C   UNL     1     -40.017  52.581 -51.420  1.00  0.00    -0.041 A 
HETATM   29  C   UNL     1     -40.248  52.986 -52.743  1.00  0.00     0.009 A 
HETATM   30  C   UNL     1     -40.149  52.075 -53.796  1.00  0.00     0.007 A 
HETATM   31  C   UNL     1     -39.822  50.738 -53.547  1.00  0.00    -0.062 A 
HETATM   32  C   UNL     1     -39.663  49.763 -54.677  1.00  0.00     0.048 C 
HETATM   33  C   UNL     1     -39.586  50.331 -52.229  1.00  0.00     0.007 A 
HETATM   34  C   UNL     1     -39.688  51.242 -51.174  1.00  0.00     0.009 A 
ENDBRANCH  27  28
ENDBRANCH  24  27
ENDBRANCH   1  23
TORSDOF 9
ENDMDL
MODEL 5
REMARK VINA RESULT:      -7.9      2.030      5.462
REMARK  9 active torsions:
REMARK  status: ('A' for Active; 'I' for Inactive)
REMARK    1  A    between atoms: C_5  and  C_6 
REMARK    2  A    between atoms: C_6  and  N_7 
REMARK       I    between atoms: N_7  and  C_8 
REMARK    3  A    between atoms: C_8  and  C_9 
REMARK    4  A    between atoms: C_10  and  S_11 
REMARK    5  A    between atoms: S_11  and  C_12 
REMARK    6  A    between atoms: C_12  and  C_13 
REMARK       I    between atoms: C_13  and  N_14 
REMARK    7  A    between atoms: N_14  and  C_15 
REMARK    8  A    between atoms: C_16  and  O_17 
REMARK    9  A    between atoms: C_20  and  O_21 
ROOT
HETATM    1  C   UNL     1     -40.030  52.025 -52.004  1.00  0.00     0.067 A 
HETATM    2  C   UNL     1     -40.058  52.064 -53.400  1.00  0.00     0.109 A 
HETATM    3  N   UNL     1     -39.870  50.944 -54.157  1.00  0.00    -0.253 NA
HETATM    4  C   UNL     1     -39.602  49.782 -53.519  1.00  0.00     0.118 A 
HETATM    5  C   UNL     1     -39.533  49.660 -52.146  1.00  0.00     0.020 A 
HETATM    6  C   UNL     1     -39.755  50.797 -51.378  1.00  0.00     0.021 A 
ENDROOT
BRANCH   2   7
HETATM    7  S   UNL     1     -40.333  53.522 -54.384  1.00  0.00    -0.100 SA
BRANCH   7   8
HETATM    8  C   UNL     1     -42.141  53.469 -54.513  1.00  0.00     0.184 C 
BRANCH   8   9
HETATM    9  C   UNL     1     -42.801  54.700 -55.124  1.00  0.00     0.231 C 
HETATM   10  N   UNL     1     -42.200  55.200 -56.265  1.00  0.00    -0.324 N 
HETATM   11  H   UNL     1     -41.532  54.569 -56.709  1.00  0.00     0.169 HD
HETATM   12  O   UNL     1     -43.885  55.073 -54.670  1.00  0.00    -0.272 OA
BRANCH  10  13
HETATM   13  C   UNL     1     -42.690  56.262 -57.060  1.00  0.00     0.068 A 
HETATM   14  C   UNL     1     -43.370  56.103 -58.282  1.00  0.00     0.097 A 
HETATM   15  C   UNL     1     -43.708  57.241 -59.036  1.00  0.00     0.075 A 
HETATM   16  C   UNL     1     -43.404  58.521 -58.568  1.00  0.00     0.070 A 
HETATM   17  C   UNL     1     -42.819  58.672 -57.313  1.00  0.00     0.039 A 
HETATM   18  C   UNL     1     -42.473  57.552 -56.561  1.00  0.00     0.035 A 
BRANCH  14  19
HETATM   19  O   UNL     1     -43.781  54.836 -58.608  1.00  0.00    -0.354 OA
HETATM   20  C   UNL     1     -44.487  54.661 -59.827  1.00  0.00     0.210 C 
ENDBRANCH  14  19
BRANCH  16  21
HETATM   21  O   UNL     1     -43.667  59.695 -59.221  1.00  0.00    -0.356 OA
HETATM   22  C   UNL     1     -43.703  59.632 -60.641  1.00  0.00     0.210 C 
ENDBRANCH  16  21
ENDBRANCH  10  13
ENDBRANCH   8   9
ENDBRANCH   7   8
ENDBRANCH   2   7
BRANCH   1  23
HETATM   23  C   UNL     1     -40.252  53.214 -51.147  1.00  0.00     0.254 C 
HETATM   24  N   UNL     1     -41.572  53.587 -50.991  1.00  0.00    -0.353 N 
HETATM   25  H   UNL     1     -42.291  53.180 -51.574  1.00  0.00     0.163 HD
HETATM   26  O   UNL     1     -39.323  53.791 -50.602  1.00  0.00    -0.268 OA
BRANCH  24  27
HETATM   27  C   UNL     1     -41.941  54.736 -50.194  1.00  0.00     0.161 C 
BRANCH  27  28
HETATM   28  C   UNL     1     -42.471  55.844 -51.067  1.00  0.00    -0.041 A 
HETATM   29  C   UNL     1     -43.806  56.257 -50.949  1.00  0.00     0.009 A 
HETATM   30  C   UNL     1     -44.304  57.295 -51.739  1.00  0.00     0.007 A 
HETATM   31  C   UNL     1     -43.478  57.938 -52.667  1.00  0.00    -0.062 A 
HETATM   32  C   UNL     1     -43.991  59.087 -53.484  1.00  0.00     0.048 C 
HETATM   33  C   UNL     1     -42.144  57.531 -52.784  1.00  0.00     0.007 A 
HETATM   34  C   UNL     1     -41.645  56.491 -51.995  1.00  0.00     0.009 A 
ENDBRANCH  27  28
ENDBRANCH  24  27
ENDBRANCH   1  23
TORSDOF 9
ENDMDL
MODEL 6
REMARK VINA RESULT:      -7.9      1.705      2.471
REMARK  9 active torsions:
REMARK  status: ('A' for Active; 'I' for Inactive)
REMARK    1  A    between atoms: C_5  and  C_6 
REMARK    2  A    between atoms: C_6  and  N_7 
REMARK       I    between atoms: N_7  and  C_8 
REMARK    3  A    between atoms: C_8  and  C_9 
REMARK    4  A    between atoms: C_10  and  S_11 
REMARK    5  A    between atoms: S_11  and  C_12 
REMARK    6  A    between atoms: C_12  and  C_13 
REMARK       I    between atoms: C_13  and  N_14 
REMARK    7  A    between atoms: N_14  and  C_15 
REMARK    8  A    between atoms: C_16  and  O_17 
REMARK    9  A    between atoms: C_20  and  O_21 
ROOT
HETATM    1  C   UNL     1     -43.357  57.409 -52.756  1.00  0.00     0.067 A 
HETATM    2  C   UNL     1     -42.760  58.660 -52.589  1.00  0.00     0.109 A 
HETATM    3  N   UNL     1     -43.231  59.571 -51.688  1.00  0.00    -0.253 NA
HETATM    4  C   UNL     1     -44.339  59.250 -50.980  1.00  0.00     0.118 A 
HETATM    5  C   UNL     1     -45.003  58.046 -51.099  1.00  0.00     0.020 A 
HETATM    6  C   UNL     1     -44.501  57.111 -51.997  1.00  0.00     0.021 A 
ENDROOT
BRANCH   2   7
HETATM    7  S   UNL     1     -41.342  59.253 -53.488  1.00  0.00    -0.100 SA
BRANCH   7   8
HETATM    8  C   UNL     1     -42.175  60.249 -54.754  1.00  0.00     0.184 C 
BRANCH   8   9
HETATM    9  C   UNL     1     -42.176  59.668 -56.164  1.00  0.00     0.231 C 
HETATM   10  N   UNL     1     -43.086  58.651 -56.393  1.00  0.00    -0.324 N 
HETATM   11  H   UNL     1     -43.811  58.556 -55.682  1.00  0.00     0.169 HD
HETATM   12  O   UNL     1     -41.498  60.225 -57.030  1.00  0.00    -0.272 OA
BRANCH  10  13
HETATM   13  C   UNL     1     -43.341  58.036 -57.640  1.00  0.00     0.068 A 
HETATM   14  C   UNL     1     -44.245  58.519 -58.605  1.00  0.00     0.097 A 
HETATM   15  C   UNL     1     -44.494  57.757 -59.759  1.00  0.00     0.075 A 
HETATM   16  C   UNL     1     -43.831  56.545 -59.969  1.00  0.00     0.070 A 
HETATM   17  C   UNL     1     -42.867  56.123 -59.057  1.00  0.00     0.039 A 
HETATM   18  C   UNL     1     -42.617  56.867 -57.906  1.00  0.00     0.035 A 
BRANCH  14  19
HETATM   19  O   UNL     1     -44.738  59.784 -58.418  1.00  0.00    -0.354 OA
HETATM   20  C   UNL     1     -44.289  60.808 -59.294  1.00  0.00     0.210 C 
ENDBRANCH  14  19
BRANCH  16  21
HETATM   21  O   UNL     1     -44.007  55.712 -61.041  1.00  0.00    -0.356 OA
HETATM   22  C   UNL     1     -45.324  55.215 -61.244  1.00  0.00     0.210 C 
ENDBRANCH  16  21
ENDBRANCH  10  13
ENDBRANCH   8   9
ENDBRANCH   7   8
ENDBRANCH   2   7
BRANCH   1  23
HETATM   23  C   UNL     1     -42.860  56.385 -53.706  1.00  0.00     0.254 C 
HETATM   24  N   UNL     1     -41.592  55.908 -53.447  1.00  0.00    -0.353 N 
HETATM   25  H   UNL     1     -40.999  56.370 -52.770  1.00  0.00     0.163 HD
HETATM   26  O   UNL     1     -43.552  55.983 -54.630  1.00  0.00    -0.268 OA
BRANCH  24  27
HETATM   27  C   UNL     1     -40.971  54.916 -54.297  1.00  0.00     0.161 C 
BRANCH  27  28
HETATM   28  C   UNL     1     -40.555  53.710 -53.496  1.00  0.00    -0.041 A 
HETATM   29  C   UNL     1     -40.579  53.751 -52.095  1.00  0.00     0.009 A 
HETATM   30  C   UNL     1     -40.214  52.634 -51.341  1.00  0.00     0.007 A 
HETATM   31  C   UNL     1     -39.812  51.454 -51.975  1.00  0.00    -0.062 A 
HETATM   32  C   UNL     1     -39.466  50.232 -51.174  1.00  0.00     0.048 C 
HETATM   33  C   UNL     1     -39.791  51.407 -53.374  1.00  0.00     0.007 A 
HETATM   34  C   UNL     1     -40.154  52.526 -54.128  1.00  0.00     0.009 A 
ENDBRANCH  27  28
ENDBRANCH  24  27
ENDBRANCH   1  23
TORSDOF 9
ENDMDL
MODEL 7
REMARK VINA RESULT:      -7.9      2.439      2.854
REMARK  9 active torsions:
REMARK  status: ('A' for Active; 'I' for Inactive)
REMARK    1  A    between atoms: C_5  and  C_6 
REMARK    2  A    between atoms: C_6  and  N_7 
REMARK       I    between atoms: N_7  and  C_8 
REMARK    3  A    between atoms: C_8  and  C_9 
REMARK    4  A    between atoms: C_10  and  S_11 
REMARK    5  A    between atoms: S_11  and  C_12 
REMARK    6  A    between atoms: C_12  and  C_13 
REMARK       I    between atoms: C_13  and  N_14 
REMARK    7  A    between atoms: N_14  and  C_15 
REMARK    8  A    between atoms: C_16  and  O_17 
REMARK    9  A    between atoms: C_20  and  O_21 
ROOT
HETATM    1  C   UNL     1     -41.644  57.043 -51.998  1.00  0.00     0.067 A 
HETATM    2  C   UNL     1     -41.479  57.235 -53.371  1.00  0.00     0.109 A 
HETATM    3  N   UNL     1     -41.298  58.476 -53.911  1.00  0.00    -0.253 NA
HETATM    4  C   UNL     1     -41.332  59.541 -53.078  1.00  0.00     0.118 A 
HETATM    5  C   UNL     1     -41.513  59.443 -51.713  1.00  0.00     0.020 A 
HETATM    6  C   UNL     1     -41.667  58.175 -51.166  1.00  0.00     0.021 A 
ENDROOT
BRANCH   2   7
HETATM    7  S   UNL     1     -41.476  55.945 -54.598  1.00  0.00    -0.100 SA
BRANCH   7   8
HETATM    8  C   UNL     1     -43.136  56.176 -55.291  1.00  0.00     0.184 C 
BRANCH   8   9
HETATM    9  C   UNL     1     -43.259  57.229 -56.387  1.00  0.00     0.231 C 
HETATM   10  N   UNL     1     -42.097  57.510 -57.083  1.00  0.00    -0.324 N 
HETATM   11  H   UNL     1     -41.346  56.830 -56.956  1.00  0.00     0.169 HD
HETATM   12  O   UNL     1     -44.383  57.640 -56.683  1.00  0.00    -0.272 OA
BRANCH  10  13
HETATM   13  C   UNL     1     -41.991  58.366 -58.203  1.00  0.00     0.068 A 
HETATM   14  C   UNL     1     -41.836  59.763 -58.134  1.00  0.00     0.097 A 
HETATM   15  C   UNL     1     -41.856  60.518 -59.320  1.00  0.00     0.075 A 
HETATM   16  C   UNL     1     -41.996  59.891 -60.561  1.00  0.00     0.070 A 
HETATM   17  C   UNL     1     -42.050  58.501 -60.625  1.00  0.00     0.039 A 
HETATM   18  C   UNL     1     -42.038  57.744 -59.456  1.00  0.00     0.035 A 
BRANCH  14  19
HETATM   19  O   UNL     1     -41.543  60.300 -56.907  1.00  0.00    -0.354 OA
HETATM   20  C   UNL     1     -42.565  61.023 -56.238  1.00  0.00     0.210 C 
ENDBRANCH  14  19
BRANCH  16  21
HETATM   21  O   UNL     1     -42.047  60.522 -61.775  1.00  0.00    -0.356 OA
HETATM   22  C   UNL     1     -43.345  60.783 -62.296  1.00  0.00     0.210 C 
ENDBRANCH  16  21
ENDBRANCH  10  13
ENDBRANCH   8   9
ENDBRANCH   7   8
ENDBRANCH   2   7
BRANCH   1  23
HETATM   23  C   UNL     1     -41.819  55.710 -51.372  1.00  0.00     0.254 C 
HETATM   24  N   UNL     1     -40.648  55.050 -51.059  1.00  0.00    -0.353 N 
HETATM   25  H   UNL     1     -39.761  55.388 -51.408  1.00  0.00     0.163 HD
HETATM   26  O   UNL     1     -42.929  55.259 -51.132  1.00  0.00    -0.268 OA
BRANCH  24  27
HETATM   27  C   UNL     1     -40.663  53.735 -50.457  1.00  0.00     0.161 C 
BRANCH  27  28
HETATM   28  C   UNL     1     -40.338  52.676 -51.478  1.00  0.00    -0.041 A 
HETATM   29  C   UNL     1     -40.460  52.956 -52.847  1.00  0.00     0.009 A 
HETATM   30  C   UNL     1     -40.145  51.988 -53.803  1.00  0.00     0.007 A 
HETATM   31  C   UNL     1     -39.707  50.720 -53.409  1.00  0.00    -0.062 A 
HETATM   32  C   UNL     1     -39.319  49.690 -54.430  1.00  0.00     0.048 C 
HETATM   33  C   UNL     1     -39.581  50.439 -52.044  1.00  0.00     0.007 A 
HETATM   34  C   UNL     1     -39.899  51.405 -51.086  1.00  0.00     0.009 A 
ENDBRANCH  27  28
ENDBRANCH  24  27
ENDBRANCH   1  23
TORSDOF 9
ENDMDL
MODEL 8
REMARK VINA RESULT:      -7.9      2.153      2.583
REMARK  9 active torsions:
REMARK  status: ('A' for Active; 'I' for Inactive)
REMARK    1  A    between atoms: C_5  and  C_6 
REMARK    2  A    between atoms: C_6  and  N_7 
REMARK       I    between atoms: N_7  and  C_8 
REMARK    3  A    between atoms: C_8  and  C_9 
REMARK    4  A    between atoms: C_10  and  S_11 
REMARK    5  A    between atoms: S_11  and  C_12 
REMARK    6  A    between atoms: C_12  and  C_13 
REMARK       I    between atoms: C_13  and  N_14 
REMARK    7  A    between atoms: N_14  and  C_15 
REMARK    8  A    between atoms: C_16  and  O_17 
REMARK    9  A    between atoms: C_20  and  O_21 
ROOT
HETATM    1  C   UNL     1     -43.489  56.440 -52.103  1.00  0.00     0.067 A 
HETATM    2  C   UNL     1     -43.879  56.349 -53.440  1.00  0.00     0.109 A 
HETATM    3  N   UNL     1     -44.509  57.377 -54.080  1.00  0.00    -0.253 NA
HETATM    4  C   UNL     1     -44.796  58.489 -53.366  1.00  0.00     0.118 A 
HETATM    5  C   UNL     1     -44.467  58.653 -52.036  1.00  0.00     0.020 A 
HETATM    6  C   UNL     1     -43.800  57.615 -51.397  1.00  0.00     0.021 A 
ENDROOT
BRANCH   2   7
HETATM    7  S   UNL     1     -43.630  54.934 -54.491  1.00  0.00    -0.100 SA
BRANCH   7   8
HETATM    8  C   UNL     1     -42.345  55.589 -55.590  1.00  0.00     0.184 C 
BRANCH   8   9
HETATM    9  C   UNL     1     -42.831  56.157 -56.919  1.00  0.00     0.231 C 
HETATM   10  N   UNL     1     -42.886  57.536 -56.998  1.00  0.00    -0.324 N 
HETATM   11  H   UNL     1     -42.382  58.028 -56.260  1.00  0.00     0.169 HD
HETATM   12  O   UNL     1     -42.993  55.383 -57.865  1.00  0.00    -0.272 OA
BRANCH  10  13
HETATM   13  C   UNL     1     -43.203  58.286 -58.155  1.00  0.00     0.068 A 
HETATM   14  C   UNL     1     -44.505  58.490 -58.649  1.00  0.00     0.097 A 
HETATM   15  C   UNL     1     -44.680  59.160 -59.872  1.00  0.00     0.075 A 
HETATM   16  C   UNL     1     -43.580  59.649 -60.581  1.00  0.00     0.070 A 
HETATM   17  C   UNL     1     -42.304  59.528 -60.036  1.00  0.00     0.039 A 
HETATM   18  C   UNL     1     -42.118  58.860 -58.828  1.00  0.00     0.035 A 
BRANCH  14  19
HETATM   19  O   UNL     1     -45.545  58.131 -57.832  1.00  0.00    -0.354 OA
HETATM   20  C   UNL     1     -46.785  57.805 -58.442  1.00  0.00     0.210 C 
ENDBRANCH  14  19
BRANCH  16  21
HETATM   21  O   UNL     1     -43.629  60.297 -61.785  1.00  0.00    -0.356 OA
HETATM   22  C   UNL     1     -42.399  60.825 -62.268  1.00  0.00     0.210 C 
ENDBRANCH  16  21
ENDBRANCH  10  13
ENDBRANCH   8   9
ENDBRANCH   7   8
ENDBRANCH   2   7
BRANCH   1  23
HETATM   23  C   UNL     1     -42.782  55.355 -51.380  1.00  0.00     0.254 C 
HETATM   24  N   UNL     1     -41.414  55.326 -51.555  1.00  0.00    -0.353 N 
HETATM   25  H   UNL     1     -40.977  55.893 -52.271  1.00  0.00     0.163 HD
HETATM   26  O   UNL     1     -43.383  54.571 -50.661  1.00  0.00    -0.268 OA
BRANCH  24  27
HETATM   27  C   UNL     1     -40.594  54.316 -50.924  1.00  0.00     0.161 C 
BRANCH  27  28
HETATM   28  C   UNL     1     -40.309  53.185 -51.878  1.00  0.00    -0.041 A 
HETATM   29  C   UNL     1     -39.851  51.952 -51.392  1.00  0.00     0.009 A 
HETATM   30  C   UNL     1     -39.600  50.890 -52.263  1.00  0.00     0.007 A 
HETATM   31  C   UNL     1     -39.798  51.043 -53.640  1.00  0.00    -0.062 A 
HETATM   32  C   UNL     1     -39.579  49.892 -54.579  1.00  0.00     0.048 C 
HETATM   33  C   UNL     1     -40.259  52.271 -54.127  1.00  0.00     0.007 A 
HETATM   34  C   UNL     1     -40.507  53.334 -53.256  1.00  0.00     0.009 A 
ENDBRANCH  27  28
ENDBRANCH  24  27
ENDBRANCH   1  23
TORSDOF 9
ENDMDL
MODEL 9
REMARK VINA RESULT:      -7.8      4.355      8.802
REMARK  9 active torsions:
REMARK  status: ('A' for Active; 'I' for Inactive)
REMARK    1  A    between atoms: C_5  and  C_6 
REMARK    2  A    between atoms: C_6  and  N_7 
REMARK       I    between atoms: N_7  and  C_8 
REMARK    3  A    between atoms: C_8  and  C_9 
REMARK    4  A    between atoms: C_10  and  S_11 
REMARK    5  A    between atoms: S_11  and  C_12 
REMARK    6  A    between atoms: C_12  and  C_13 
REMARK       I    between atoms: C_13  and  N_14 
REMARK    7  A    between atoms: N_14  and  C_15 
REMARK    8  A    between atoms: C_16  and  O_17 
REMARK    9  A    between atoms: C_20  and  O_21 
ROOT
HETATM    1  C   UNL     1     -42.432  59.866 -50.725  1.00  0.00     0.067 A 
HETATM    2  C   UNL     1     -42.478  58.641 -51.393  1.00  0.00     0.109 A 
HETATM    3  N   UNL     1     -41.358  57.888 -51.598  1.00  0.00    -0.253 NA
HETATM    4  C   UNL     1     -40.172  58.384 -51.176  1.00  0.00     0.118 A 
HETATM    5  C   UNL     1     -40.035  59.595 -50.528  1.00  0.00     0.020 A 
HETATM    6  C   UNL     1     -41.182  60.344 -50.296  1.00  0.00     0.021 A 
ENDROOT
BRANCH   2   7
HETATM    7  S   UNL     1     -43.945  57.887 -52.063  1.00  0.00    -0.100 SA
BRANCH   7   8
HETATM    8  C   UNL     1     -44.136  56.504 -50.905  1.00  0.00     0.184 C 
BRANCH   8   9
HETATM    9  C   UNL     1     -43.528  55.177 -51.347  1.00  0.00     0.231 C 
HETATM   10  N   UNL     1     -42.467  55.268 -52.231  1.00  0.00    -0.324 N 
HETATM   11  H   UNL     1     -42.054  56.198 -52.311  1.00  0.00     0.169 HD
HETATM   12  O   UNL     1     -43.904  54.144 -50.790  1.00  0.00    -0.272 OA
BRANCH  10  13
HETATM   13  C   UNL     1     -41.683  54.186 -52.693  1.00  0.00     0.068 A 
HETATM   14  C   UNL     1     -41.850  53.546 -53.935  1.00  0.00     0.097 A 
HETATM   15  C   UNL     1     -41.080  52.408 -54.233  1.00  0.00     0.075 A 
HETATM   16  C   UNL     1     -40.133  51.930 -53.323  1.00  0.00     0.070 A 
HETATM   17  C   UNL     1     -39.906  52.628 -52.140  1.00  0.00     0.039 A 
HETATM   18  C   UNL     1     -40.668  53.753 -51.831  1.00  0.00     0.035 A 
BRANCH  14  19
HETATM   19  O   UNL     1     -42.675  54.154 -54.845  1.00  0.00    -0.354 OA
HETATM   20  C   UNL     1     -42.092  55.070 -55.761  1.00  0.00     0.210 C 
ENDBRANCH  14  19
BRANCH  16  21
HETATM   21  O   UNL     1     -39.343  50.826 -53.497  1.00  0.00    -0.356 OA
HETATM   22  C   UNL     1     -39.750  49.913 -54.509  1.00  0.00     0.210 C 
ENDBRANCH  16  21
ENDBRANCH  10  13
ENDBRANCH   8   9
ENDBRANCH   7   8
ENDBRANCH   2   7
BRANCH   1  23
HETATM   23  C   UNL     1     -43.629  60.701 -50.462  1.00  0.00     0.254 C 
HETATM   24  N   UNL     1     -44.311  60.402 -49.301  1.00  0.00    -0.353 N 
HETATM   25  H   UNL     1     -44.100  59.557 -48.786  1.00  0.00     0.163 HD
HETATM   26  O   UNL     1     -43.954  61.605 -51.218  1.00  0.00    -0.268 OA
BRANCH  24  27
HETATM   27  C   UNL     1     -45.506  61.123 -48.921  1.00  0.00     0.161 C 
BRANCH  27  28
HETATM   28  C   UNL     1     -45.333  61.772 -47.572  1.00  0.00    -0.041 A 
HETATM   29  C   UNL     1     -45.007  60.992 -46.452  1.00  0.00     0.009 A 
HETATM   30  C   UNL     1     -44.827  61.583 -45.200  1.00  0.00     0.007 A 
HETATM   31  C   UNL     1     -44.974  62.965 -45.041  1.00  0.00    -0.062 A 
HETATM   32  C   UNL     1     -44.733  63.615 -43.710  1.00  0.00     0.048 C 
HETATM   33  C   UNL     1     -45.295  63.746 -46.158  1.00  0.00     0.007 A 
HETATM   34  C   UNL     1     -45.478  63.155 -47.411  1.00  0.00     0.009 A 
ENDBRANCH  27  28
ENDBRANCH  24  27
ENDBRANCH   1  23
TORSDOF 9
ENDMDL
MODEL 10
REMARK VINA RESULT:      -7.5      2.652      6.498
REMARK  9 active torsions:
REMARK  status: ('A' for Active; 'I' for Inactive)
REMARK    1  A    between atoms: C_5  and  C_6 
REMARK    2  A    between atoms: C_6  and  N_7 
REMARK       I    between atoms: N_7  and  C_8 
REMARK    3  A    between atoms: C_8  and  C_9 
REMARK    4  A    between atoms: C_10  and  S_11 
REMARK    5  A    between atoms: S_11  and  C_12 
REMARK    6  A    between atoms: C_12  and  C_13 
REMARK       I    between atoms: C_13  and  N_14 
REMARK    7  A    between atoms: N_14  and  C_15 
REMARK    8  A    between atoms: C_16  and  O_17 
REMARK    9  A    between atoms: C_20  and  O_21 
ROOT
HETATM    1  C   UNL     1     -42.719  58.765 -56.532  1.00  0.00     0.067 A 
HETATM    2  C   UNL     1     -44.062  59.124 -56.408  1.00  0.00     0.109 A 
HETATM    3  N   UNL     1     -44.846  59.376 -57.496  1.00  0.00    -0.253 NA
HETATM    4  C   UNL     1     -44.272  59.317 -58.720  1.00  0.00     0.118 A 
HETATM    5  C   UNL     1     -42.947  58.992 -58.931  1.00  0.00     0.020 A 
HETATM    6  C   UNL     1     -42.161  58.708 -57.820  1.00  0.00     0.021 A 
ENDROOT
BRANCH   2   7
HETATM    7  S   UNL     1     -44.941  59.308 -54.870  1.00  0.00    -0.100 SA
BRANCH   7   8
HETATM    8  C   UNL     1     -45.347  57.572 -54.539  1.00  0.00     0.184 C 
BRANCH   8   9
HETATM    9  C   UNL     1     -44.354  56.810 -53.667  1.00  0.00     0.231 C 
HETATM   10  N   UNL     1     -44.023  57.413 -52.467  1.00  0.00    -0.324 N 
HETATM   11  H   UNL     1     -44.643  58.173 -52.184  1.00  0.00     0.169 HD
HETATM   12  O   UNL     1     -44.035  55.667 -54.001  1.00  0.00    -0.272 OA
BRANCH  10  13
HETATM   13  C   UNL     1     -43.211  56.850 -51.456  1.00  0.00     0.068 A 
HETATM   14  C   UNL     1     -41.993  57.395 -51.008  1.00  0.00     0.097 A 
HETATM   15  C   UNL     1     -41.222  56.681 -50.074  1.00  0.00     0.075 A 
HETATM   16  C   UNL     1     -41.667  55.457 -49.568  1.00  0.00     0.070 A 
HETATM   17  C   UNL     1     -42.919  54.974 -49.944  1.00  0.00     0.039 A 
HETATM   18  C   UNL     1     -43.689  55.670 -50.874  1.00  0.00     0.035 A 
BRANCH  14  19
HETATM   19  O   UNL     1     -41.690  58.667 -51.417  1.00  0.00    -0.354 OA
HETATM   20  C   UNL     1     -41.890  59.727 -50.494  1.00  0.00     0.210 C 
ENDBRANCH  14  19
BRANCH  16  21
HETATM   21  O   UNL     1     -40.995  54.668 -48.674  1.00  0.00    -0.356 OA
HETATM   22  C   UNL     1     -40.377  53.502 -49.203  1.00  0.00     0.210 C 
ENDBRANCH  16  21
ENDBRANCH  10  13
ENDBRANCH   8   9
ENDBRANCH   7   8
ENDBRANCH   2   7
BRANCH   1  23
HETATM   23  C   UNL     1     -41.841  58.461 -55.375  1.00  0.00     0.254 C 
HETATM   24  N   UNL     1     -41.569  57.123 -55.180  1.00  0.00    -0.353 N 
HETATM   25  H   UNL     1     -42.089  56.416 -55.684  1.00  0.00     0.163 HD
HETATM   26  O   UNL     1     -41.379  59.350 -54.675  1.00  0.00    -0.268 OA
BRANCH  24  27
HETATM   27  C   UNL     1     -40.740  56.674 -54.083  1.00  0.00     0.161 C 
BRANCH  27  28
HETATM   28  C   UNL     1     -40.617  55.173 -54.085  1.00  0.00    -0.041 A 
HETATM   29  C   UNL     1     -40.333  54.490 -55.276  1.00  0.00     0.009 A 
HETATM   30  C   UNL     1     -40.198  53.100 -55.287  1.00  0.00     0.007 A 
HETATM   31  C   UNL     1     -40.351  52.365 -54.107  1.00  0.00    -0.062 A 
HETATM   32  C   UNL     1     -40.158  50.876 -54.100  1.00  0.00     0.048 C 
HETATM   33  C   UNL     1     -40.630  53.044 -52.916  1.00  0.00     0.007 A 
HETATM   34  C   UNL     1     -40.767  54.434 -52.904  1.00  0.00     0.009 A 
ENDBRANCH  27  28
ENDBRANCH  24  27
ENDBRANCH   1  23
TORSDOF 9
ENDMDL
