MODEL 1
REMARK VINA RESULT:      -9.4      0.000      0.000
REMARK  6 active torsions:
REMARK  status: ('A' for Active; 'I' for Inactive)
REMARK    1  A    between atoms: C_4  and  C_5 
REMARK    2  A    between atoms: C_7  and  N_8 
REMARK    3  A    between atoms: N_11  and  C_13 
REMARK    4  A    between atoms: C_13  and  C_14 
REMARK       I    between atoms: C_14  and  N_15 
REMARK    5  A    between atoms: N_15  and  N_16 
REMARK       I    between atoms: N_16  and  C_17 
REMARK    6  A    between atoms: C_17  and  C_18 
ROOT
HETATM    1  N   UNL     1     -41.673  56.021 -50.857  1.00  0.00    -0.357 N 
HETATM    2  C   UNL     1     -43.083  55.984 -50.439  1.00  0.00     0.152 C 
HETATM    3  C   UNL     1     -43.884  57.085 -51.168  1.00  0.00     0.255 C 
HETATM    4  N   UNL     1     -43.231  58.452 -50.925  1.00  0.00    -0.060 N 
HETATM    5  H   UNL     1     -43.268  58.597 -49.902  1.00  0.00     0.280 HD
HETATM    6  C   UNL     1     -41.765  58.449 -51.356  1.00  0.00     0.255 C 
HETATM    7  C   UNL     1     -41.009  57.317 -50.628  1.00  0.00     0.152 C 
ENDROOT
BRANCH   4   8
HETATM    8  C   UNL     1     -44.038  59.605 -51.512  1.00  0.00     0.338 C 
BRANCH   8   9
HETATM    9  C   UNL     1     -44.208  60.728 -50.485  1.00  0.00     0.262 C 
HETATM   10  N   UNL     1     -44.721  60.333 -49.269  1.00  0.00    -0.266 N 
HETATM   11  H   UNL     1     -44.701  59.346 -48.993  1.00  0.00     0.190 HD
HETATM   12  O   UNL     1     -43.903  61.887 -50.774  1.00  0.00    -0.270 OA
BRANCH  10  13
HETATM   13  N   UNL     1     -44.510  61.191 -48.171  1.00  0.00    -0.263 N 
HETATM   14  C   UNL     1     -45.287  60.952 -47.052  1.00  0.00     0.270 C 
HETATM   15  O   UNL     1     -46.085  60.016 -47.036  1.00  0.00    -0.266 OA
HETATM   16  H   UNL     1     -43.897  61.995 -48.295  1.00  0.00     0.190 HD
BRANCH  14  17
HETATM   17  C   UNL     1     -45.144  61.872 -45.893  1.00  0.00     0.033 A 
HETATM   18  C   UNL     1     -45.717  63.150 -45.866  1.00  0.00     0.018 A 
HETATM   19  C   UNL     1     -45.536  63.976 -44.750  1.00  0.00     0.020 A 
HETATM   20  C   UNL     1     -44.782  63.525 -43.665  1.00  0.00     0.011 A 
HETATM   21 BR   UNL     1     -44.538  64.645 -42.163  1.00  0.00    -0.051 Br
HETATM   22  C   UNL     1     -44.202  62.260 -43.685  1.00  0.00     0.020 A 
HETATM   23  C   UNL     1     -44.379  61.435 -44.800  1.00  0.00     0.018 A 
ENDBRANCH  14  17
ENDBRANCH  10  13
ENDBRANCH   8   9
ENDBRANCH   4   8
BRANCH   1  24
HETATM   24  C   UNL     1     -41.245  55.288 -51.933  1.00  0.00     0.169 A 
HETATM   25  N   UNL     1     -40.834  54.043 -51.827  1.00  0.00    -0.223 NA
HETATM   26  C   UNL     1     -40.545  53.495 -53.073  1.00  0.00     0.076 A 
HETATM   27  C   UNL     1     -40.693  54.371 -54.128  1.00  0.00     0.085 A 
HETATM   28  S   UNL     1     -41.218  55.891 -53.556  1.00  0.00    -0.062 SA
BRANCH  26  29
HETATM   29  C   UNL     1     -40.167  52.093 -53.221  1.00  0.00    -0.007 A 
HETATM   30  C   UNL     1     -39.711  51.379 -52.103  1.00  0.00     0.014 A 
HETATM   31  C   UNL     1     -39.377  50.025 -52.207  1.00  0.00     0.001 A 
HETATM   32  C   UNL     1     -39.488  49.372 -53.431  1.00  0.00     0.000 A 
HETATM   33  C   UNL     1     -39.928  50.070 -54.554  1.00  0.00     0.001 A 
HETATM   34  C   UNL     1     -40.264  51.424 -54.451  1.00  0.00     0.014 A 
ENDBRANCH  26  29
ENDBRANCH   1  24
TORSDOF 6
ENDMDL
MODEL 2
REMARK VINA RESULT:      -9.4      1.529      2.181
REMARK  6 active torsions:
REMARK  status: ('A' for Active; 'I' for Inactive)
REMARK    1  A    between atoms: C_4  and  C_5 
REMARK    2  A    between atoms: C_7  and  N_8 
REMARK    3  A    between atoms: N_11  and  C_13 
REMARK    4  A    between atoms: C_13  and  C_14 
REMARK       I    between atoms: C_14  and  N_15 
REMARK    5  A    between atoms: N_15  and  N_16 
REMARK       I    between atoms: N_16  and  C_17 
REMARK    6  A    between atoms: C_17  and  C_18 
ROOT
HETATM    1  N   UNL     1     -41.933  58.127 -54.000  1.00  0.00    -0.357 N 
HETATM    2  C   UNL     1     -41.641  58.543 -52.619  1.00  0.00     0.152 C 
HETATM    3  C   UNL     1     -42.902  58.396 -51.740  1.00  0.00     0.255 C 
HETATM    4  N   UNL     1     -44.064  59.182 -52.361  1.00  0.00    -0.060 N 
HETATM    5  H   UNL     1     -43.751  60.167 -52.380  1.00  0.00     0.280 HD
HETATM    6  C   UNL     1     -44.329  58.735 -53.798  1.00  0.00     0.255 C 
HETATM    7  C   UNL     1     -43.038  58.869 -54.633  1.00  0.00     0.152 C 
ENDROOT
BRANCH   4   8
HETATM    8  C   UNL     1     -45.311  59.185 -51.483  1.00  0.00     0.338 C 
BRANCH   8   9
HETATM    9  C   UNL     1     -45.216  60.274 -50.409  1.00  0.00     0.262 C 
HETATM   10  N   UNL     1     -45.407  59.835 -49.117  1.00  0.00    -0.266 N 
HETATM   11  H   UNL     1     -45.320  58.841 -48.887  1.00  0.00     0.190 HD
HETATM   12  O   UNL     1     -44.993  61.444 -50.727  1.00  0.00    -0.270 OA
BRANCH  10  13
HETATM   13  N   UNL     1     -44.927  60.660 -48.080  1.00  0.00    -0.263 N 
HETATM   14  C   UNL     1     -45.624  60.608 -46.886  1.00  0.00     0.270 C 
HETATM   15  O   UNL     1     -46.587  59.851 -46.759  1.00  0.00    -0.266 OA
HETATM   16  H   UNL     1     -44.182  61.321 -48.292  1.00  0.00     0.190 HD
BRANCH  14  17
HETATM   17  C   UNL     1     -45.192  61.507 -45.784  1.00  0.00     0.033 A 
HETATM   18  C   UNL     1     -45.602  62.844 -45.694  1.00  0.00     0.018 A 
HETATM   19  C   UNL     1     -45.150  63.645 -44.638  1.00  0.00     0.020 A 
HETATM   20  C   UNL     1     -44.289  63.112 -43.678  1.00  0.00     0.011 A 
HETATM   21 BR   UNL     1     -43.680  64.199 -42.259  1.00  0.00    -0.051 Br
HETATM   22  C   UNL     1     -43.870  61.787 -43.764  1.00  0.00     0.020 A 
HETATM   23  C   UNL     1     -44.318  60.986 -44.819  1.00  0.00     0.018 A 
ENDBRANCH  14  17
ENDBRANCH  10  13
ENDBRANCH   8   9
ENDBRANCH   4   8
BRANCH   1  24
HETATM   24  C   UNL     1     -41.762  56.823 -54.386  1.00  0.00     0.169 A 
HETATM   25  N   UNL     1     -41.124  55.940 -53.647  1.00  0.00    -0.223 NA
HETATM   26  C   UNL     1     -41.170  54.672 -54.217  1.00  0.00     0.076 A 
HETATM   27  C   UNL     1     -41.811  54.620 -55.438  1.00  0.00     0.085 A 
HETATM   28  S   UNL     1     -42.379  56.171 -55.866  1.00  0.00    -0.062 SA
BRANCH  26  29
HETATM   29  C   UNL     1     -40.620  53.507 -53.532  1.00  0.00    -0.007 A 
HETATM   30  C   UNL     1     -40.254  52.376 -54.278  1.00  0.00     0.014 A 
HETATM   31  C   UNL     1     -39.690  51.260 -53.653  1.00  0.00     0.001 A 
HETATM   32  C   UNL     1     -39.493  51.257 -52.275  1.00  0.00     0.000 A 
HETATM   33  C   UNL     1     -39.862  52.368 -51.519  1.00  0.00     0.001 A 
HETATM   34  C   UNL     1     -40.425  53.486 -52.142  1.00  0.00     0.014 A 
ENDBRANCH  26  29
ENDBRANCH   1  24
TORSDOF 6
ENDMDL
MODEL 3
REMARK VINA RESULT:      -9.3      1.366      2.073
REMARK  6 active torsions:
REMARK  status: ('A' for Active; 'I' for Inactive)
REMARK    1  A    between atoms: C_4  and  C_5 
REMARK    2  A    between atoms: C_7  and  N_8 
REMARK    3  A    between atoms: N_11  and  C_13 
REMARK    4  A    between atoms: C_13  and  C_14 
REMARK       I    between atoms: C_14  and  N_15 
REMARK    5  A    between atoms: N_15  and  N_16 
REMARK       I    between atoms: N_16  and  C_17 
REMARK    6  A    between atoms: C_17  and  C_18 
ROOT
HETATM    1  N   UNL     1     -41.974  57.896 -52.660  1.00  0.00    -0.357 N 
HETATM    2  C   UNL     1     -41.856  59.155 -51.909  1.00  0.00     0.152 C 
HETATM    3  C   UNL     1     -43.168  59.446 -51.147  1.00  0.00     0.255 C 
HETATM    4  N   UNL     1     -44.349  59.450 -52.127  1.00  0.00    -0.060 N 
HETATM    5  H   UNL     1     -44.147  60.209 -52.799  1.00  0.00     0.280 HD
HETATM    6  C   UNL     1     -44.431  58.135 -52.900  1.00  0.00     0.255 C 
HETATM    7  C   UNL     1     -43.092  57.868 -53.620  1.00  0.00     0.152 C 
ENDROOT
BRANCH   4   8
HETATM    8  C   UNL     1     -45.663  59.853 -51.467  1.00  0.00     0.338 C 
BRANCH   8   9
HETATM    9  C   UNL     1     -45.406  60.711 -50.224  1.00  0.00     0.262 C 
HETATM   10  N   UNL     1     -45.522  60.045 -49.023  1.00  0.00    -0.266 N 
HETATM   11  H   UNL     1     -45.486  59.022 -48.990  1.00  0.00     0.190 HD
HETATM   12  O   UNL     1     -45.128  61.906 -50.339  1.00  0.00    -0.270 OA
BRANCH  10  13
HETATM   13  N   UNL     1     -44.903  60.631 -47.900  1.00  0.00    -0.263 N 
HETATM   14  C   UNL     1     -45.744  61.017 -46.872  1.00  0.00     0.270 C 
HETATM   15  O   UNL     1     -46.956  60.819 -46.951  1.00  0.00    -0.266 OA
HETATM   16  H   UNL     1     -43.908  60.841 -47.950  1.00  0.00     0.190 HD
BRANCH  14  17
HETATM   17  C   UNL     1     -45.142  61.697 -45.695  1.00  0.00     0.033 A 
HETATM   18  C   UNL     1     -44.299  61.038 -44.790  1.00  0.00     0.018 A 
HETATM   19  C   UNL     1     -43.772  61.730 -43.693  1.00  0.00     0.020 A 
HETATM   20  C   UNL     1     -44.091  63.074 -43.499  1.00  0.00     0.011 A 
HETATM   21 BR   UNL     1     -43.381  64.001 -42.013  1.00  0.00    -0.051 Br
HETATM   22  C   UNL     1     -44.935  63.735 -44.387  1.00  0.00     0.020 A 
HETATM   23  C   UNL     1     -45.463  63.046 -45.482  1.00  0.00     0.018 A 
ENDBRANCH  14  17
ENDBRANCH  10  13
ENDBRANCH   8   9
ENDBRANCH   4   8
BRANCH   1  24
HETATM   24  C   UNL     1     -41.625  56.703 -52.081  1.00  0.00     0.169 A 
HETATM   25  N   UNL     1     -41.378  55.618 -52.784  1.00  0.00    -0.223 NA
HETATM   26  C   UNL     1     -40.954  54.572 -51.970  1.00  0.00     0.076 A 
HETATM   27  C   UNL     1     -40.938  54.869 -50.623  1.00  0.00     0.085 A 
HETATM   28  S   UNL     1     -41.438  56.482 -50.375  1.00  0.00    -0.062 SA
BRANCH  26  29
HETATM   29  C   UNL     1     -40.524  53.295 -52.531  1.00  0.00    -0.007 A 
HETATM   30  C   UNL     1     -39.820  52.389 -51.725  1.00  0.00     0.014 A 
HETATM   31  C   UNL     1     -39.427  51.143 -52.224  1.00  0.00     0.001 A 
HETATM   32  C   UNL     1     -39.728  50.792 -53.538  1.00  0.00     0.000 A 
HETATM   33  C   UNL     1     -40.417  51.686 -54.355  1.00  0.00     0.001 A 
HETATM   34  C   UNL     1     -40.812  52.931 -53.856  1.00  0.00     0.014 A 
ENDBRANCH  26  29
ENDBRANCH   1  24
TORSDOF 6
ENDMDL
MODEL 4
REMARK VINA RESULT:      -9.0      5.757      8.766
REMARK  6 active torsions:
REMARK  status: ('A' for Active; 'I' for Inactive)
REMARK    1  A    between atoms: C_4  and  C_5 
REMARK    2  A    between atoms: C_7  and  N_8 
REMARK    3  A    between atoms: N_11  and  C_13 
REMARK    4  A    between atoms: C_13  and  C_14 
REMARK       I    between atoms: C_14  and  N_15 
REMARK    5  A    between atoms: N_15  and  N_16 
REMARK       I    between atoms: N_16  and  C_17 
REMARK    6  A    between atoms: C_17  and  C_18 
ROOT
HETATM    1  N   UNL     1     -43.824  60.300 -52.199  1.00  0.00    -0.357 N 
HETATM    2  C   UNL     1     -45.112  59.791 -52.694  1.00  0.00     0.152 C 
HETATM    3  C   UNL     1     -44.978  59.349 -54.169  1.00  0.00     0.255 C 
HETATM    4  N   UNL     1     -44.437  60.510 -55.013  1.00  0.00    -0.060 N 
HETATM    5  H   UNL     1     -45.138  61.265 -54.925  1.00  0.00     0.280 HD
HETATM    6  C   UNL     1     -43.108  61.024 -54.460  1.00  0.00     0.255 C 
HETATM    7  C   UNL     1     -43.279  61.425 -52.980  1.00  0.00     0.152 C 
ENDROOT
BRANCH   4   8
HETATM    8  C   UNL     1     -44.395  60.188 -56.503  1.00  0.00     0.338 C 
BRANCH   8   9
HETATM    9  C   UNL     1     -44.149  58.693 -56.728  1.00  0.00     0.262 C 
HETATM   10  N   UNL     1     -42.829  58.304 -56.673  1.00  0.00    -0.266 N 
HETATM   11  H   UNL     1     -42.128  58.906 -56.228  1.00  0.00     0.190 HD
HETATM   12  O   UNL     1     -45.095  57.933 -56.949  1.00  0.00    -0.270 OA
BRANCH  10  13
HETATM   13  N   UNL     1     -42.569  56.937 -56.447  1.00  0.00    -0.263 N 
HETATM   14  C   UNL     1     -41.924  56.626 -55.263  1.00  0.00     0.270 C 
HETATM   15  O   UNL     1     -41.636  57.513 -54.459  1.00  0.00    -0.266 OA
HETATM   16  H   UNL     1     -42.758  56.278 -57.199  1.00  0.00     0.190 HD
BRANCH  14  17
HETATM   17  C   UNL     1     -41.573  55.204 -55.011  1.00  0.00     0.033 A 
HETATM   18  C   UNL     1     -42.529  54.180 -54.996  1.00  0.00     0.018 A 
HETATM   19  C   UNL     1     -42.137  52.860 -54.741  1.00  0.00     0.020 A 
HETATM   20  C   UNL     1     -40.794  52.566 -54.499  1.00  0.00     0.011 A 
HETATM   21 BR   UNL     1     -40.272  50.785 -54.150  1.00  0.00    -0.051 Br
HETATM   22  C   UNL     1     -39.838  53.579 -54.504  1.00  0.00     0.020 A 
HETATM   23  C   UNL     1     -40.228  54.897 -54.756  1.00  0.00     0.018 A 
ENDBRANCH  14  17
ENDBRANCH  10  13
ENDBRANCH   8   9
ENDBRANCH   4   8
BRANCH   1  24
HETATM   24  C   UNL     1     -42.917  59.454 -51.615  1.00  0.00     0.169 A 
HETATM   25  N   UNL     1     -43.046  58.144 -51.645  1.00  0.00    -0.223 NA
HETATM   26  C   UNL     1     -41.949  57.513 -51.067  1.00  0.00     0.076 A 
HETATM   27  C   UNL     1     -41.006  58.375 -50.545  1.00  0.00     0.085 A 
HETATM   28  S   UNL     1     -41.489  59.992 -50.799  1.00  0.00    -0.062 SA
BRANCH  26  29
HETATM   29  C   UNL     1     -41.815  56.060 -51.071  1.00  0.00    -0.007 A 
HETATM   30  C   UNL     1     -40.581  55.479 -50.743  1.00  0.00     0.014 A 
HETATM   31  C   UNL     1     -40.433  54.090 -50.704  1.00  0.00     0.001 A 
HETATM   32  C   UNL     1     -41.514  53.264 -50.999  1.00  0.00     0.000 A 
HETATM   33  C   UNL     1     -42.744  53.826 -51.338  1.00  0.00     0.001 A 
HETATM   34  C   UNL     1     -42.894  55.215 -51.377  1.00  0.00     0.014 A 
ENDBRANCH  26  29
ENDBRANCH   1  24
TORSDOF 6
ENDMDL
MODEL 5
REMARK VINA RESULT:      -8.8      5.404      8.239
REMARK  6 active torsions:
REMARK  status: ('A' for Active; 'I' for Inactive)
REMARK    1  A    between atoms: C_4  and  C_5 
REMARK    2  A    between atoms: C_7  and  N_8 
REMARK    3  A    between atoms: N_11  and  C_13 
REMARK    4  A    between atoms: C_13  and  C_14 
REMARK       I    between atoms: C_14  and  N_15 
REMARK    5  A    between atoms: N_15  and  N_16 
REMARK       I    between atoms: N_16  and  C_17 
REMARK    6  A    between atoms: C_17  and  C_18 
ROOT
HETATM    1  N   UNL     1     -41.964  56.061 -50.830  1.00  0.00    -0.357 N 
HETATM    2  C   UNL     1     -43.423  56.166 -50.674  1.00  0.00     0.152 C 
HETATM    3  C   UNL     1     -43.958  57.380 -51.466  1.00  0.00     0.255 C 
HETATM    4  N   UNL     1     -43.224  58.653 -51.025  1.00  0.00    -0.060 N 
HETATM    5  H   UNL     1     -43.434  58.758 -50.019  1.00  0.00     0.280 HD
HETATM    6  C   UNL     1     -41.712  58.503 -51.186  1.00  0.00     0.255 C 
HETATM    7  C   UNL     1     -41.224  57.264 -50.406  1.00  0.00     0.152 C 
ENDROOT
BRANCH   4   8
HETATM    8  C   UNL     1     -43.785  59.913 -51.676  1.00  0.00     0.338 C 
BRANCH   8   9
HETATM    9  C   UNL     1     -44.443  59.584 -53.019  1.00  0.00     0.262 C 
HETATM   10  N   UNL     1     -43.566  59.298 -54.043  1.00  0.00    -0.266 N 
HETATM   11  H   UNL     1     -42.596  59.040 -53.839  1.00  0.00     0.190 HD
HETATM   12  O   UNL     1     -45.671  59.596 -53.130  1.00  0.00    -0.270 OA
BRANCH  10  13
HETATM   13  N   UNL     1     -44.078  58.592 -55.150  1.00  0.00    -0.263 N 
HETATM   14  C   UNL     1     -43.154  58.197 -56.101  1.00  0.00     0.270 C 
HETATM   15  O   UNL     1     -41.957  58.437 -55.945  1.00  0.00    -0.266 OA
HETATM   16  H   UNL     1     -45.087  58.512 -55.249  1.00  0.00     0.190 HD
BRANCH  14  17
HETATM   17  C   UNL     1     -43.656  57.505 -57.317  1.00  0.00     0.033 A 
HETATM   18  C   UNL     1     -44.698  58.015 -58.103  1.00  0.00     0.018 A 
HETATM   19  C   UNL     1     -45.135  57.309 -59.230  1.00  0.00     0.020 A 
HETATM   20  C   UNL     1     -44.534  56.096 -59.570  1.00  0.00     0.011 A 
HETATM   21 BR   UNL     1     -45.131  55.147 -61.089  1.00  0.00    -0.051 Br
HETATM   22  C   UNL     1     -43.503  55.577 -58.790  1.00  0.00     0.020 A 
HETATM   23  C   UNL     1     -43.067  56.279 -57.663  1.00  0.00     0.018 A 
ENDBRANCH  14  17
ENDBRANCH  10  13
ENDBRANCH   8   9
ENDBRANCH   4   8
BRANCH   1  24
HETATM   24  C   UNL     1     -41.423  55.331 -51.856  1.00  0.00     0.169 A 
HETATM   25  N   UNL     1     -41.016  54.088 -51.706  1.00  0.00    -0.223 NA
HETATM   26  C   UNL     1     -40.597  53.542 -52.914  1.00  0.00     0.076 A 
HETATM   27  C   UNL     1     -40.640  54.416 -53.980  1.00  0.00     0.085 A 
HETATM   28  S   UNL     1     -41.232  55.933 -53.467  1.00  0.00    -0.062 SA
BRANCH  26  29
HETATM   29  C   UNL     1     -40.196  52.142 -53.021  1.00  0.00    -0.007 A 
HETATM   30  C   UNL     1     -39.806  51.446 -51.868  1.00  0.00     0.014 A 
HETATM   31  C   UNL     1     -39.452  50.095 -51.934  1.00  0.00     0.001 A 
HETATM   32  C   UNL     1     -39.478  49.426 -53.155  1.00  0.00     0.000 A 
HETATM   33  C   UNL     1     -39.852  50.107 -54.311  1.00  0.00     0.001 A 
HETATM   34  C   UNL     1     -40.207  51.458 -54.247  1.00  0.00     0.014 A 
ENDBRANCH  26  29
ENDBRANCH   1  24
TORSDOF 6
ENDMDL
MODEL 6
REMARK VINA RESULT:      -8.7      6.563      9.162
REMARK  6 active torsions:
REMARK  status: ('A' for Active; 'I' for Inactive)
REMARK    1  A    between atoms: C_4  and  C_5 
REMARK    2  A    between atoms: C_7  and  N_8 
REMARK    3  A    between atoms: N_11  and  C_13 
REMARK    4  A    between atoms: C_13  and  C_14 
REMARK       I    between atoms: C_14  and  N_15 
REMARK    5  A    between atoms: N_15  and  N_16 
REMARK       I    between atoms: N_16  and  C_17 
REMARK    6  A    between atoms: C_17  and  C_18 
ROOT
HETATM    1  N   UNL     1     -41.830  57.674 -52.497  1.00  0.00    -0.357 N 
HETATM    2  C   UNL     1     -43.117  58.320 -52.198  1.00  0.00     0.152 C 
HETATM    3  C   UNL     1     -44.192  57.857 -53.205  1.00  0.00     0.255 C 
HETATM    4  N   UNL     1     -43.714  58.127 -54.638  1.00  0.00    -0.060 N 
HETATM    5  H   UNL     1     -43.582  59.151 -54.697  1.00  0.00     0.280 HD
HETATM    6  C   UNL     1     -42.368  57.455 -54.908  1.00  0.00     0.255 C 
HETATM    7  C   UNL     1     -41.333  57.921 -53.862  1.00  0.00     0.152 C 
ENDROOT
BRANCH   4   8
HETATM    8  C   UNL     1     -44.776  57.809 -55.685  1.00  0.00     0.338 C 
BRANCH   8   9
HETATM    9  C   UNL     1     -44.500  58.569 -56.987  1.00  0.00     0.262 C 
HETATM   10  N   UNL     1     -44.129  59.886 -56.825  1.00  0.00    -0.266 N 
HETATM   11  H   UNL     1     -43.786  60.222 -55.920  1.00  0.00     0.190 HD
HETATM   12  O   UNL     1     -44.623  58.004 -58.075  1.00  0.00    -0.270 OA
BRANCH  10  13
HETATM   13  N   UNL     1     -43.466  60.505 -57.903  1.00  0.00    -0.263 N 
HETATM   14  C   UNL     1     -42.104  60.699 -57.751  1.00  0.00     0.270 C 
HETATM   15  O   UNL     1     -41.530  60.313 -56.734  1.00  0.00    -0.266 OA
HETATM   16  H   UNL     1     -44.025  60.874 -58.669  1.00  0.00     0.190 HD
BRANCH  14  17
HETATM   17  C   UNL     1     -41.374  61.405 -58.837  1.00  0.00     0.033 A 
HETATM   18  C   UNL     1     -40.301  62.271 -58.587  1.00  0.00     0.018 A 
HETATM   19  C   UNL     1     -39.661  62.917 -59.651  1.00  0.00     0.020 A 
HETATM   20  C   UNL     1     -40.094  62.700 -60.960  1.00  0.00     0.011 A 
HETATM   21 BR   UNL     1     -39.229  63.578 -62.392  1.00  0.00    -0.051 Br
HETATM   22  C   UNL     1     -41.164  61.848 -61.217  1.00  0.00     0.020 A 
HETATM   23  C   UNL     1     -41.806  61.204 -60.156  1.00  0.00     0.018 A 
ENDBRANCH  14  17
ENDBRANCH  10  13
ENDBRANCH   8   9
ENDBRANCH   4   8
BRANCH   1  24
HETATM   24  C   UNL     1     -41.505  56.470 -51.928  1.00  0.00     0.169 A 
HETATM   25  N   UNL     1     -41.297  55.382 -52.638  1.00  0.00    -0.223 NA
HETATM   26  C   UNL     1     -40.891  54.321 -51.835  1.00  0.00     0.076 A 
HETATM   27  C   UNL     1     -40.849  54.611 -50.487  1.00  0.00     0.085 A 
HETATM   28  S   UNL     1     -41.303  56.236 -50.225  1.00  0.00    -0.062 SA
BRANCH  26  29
HETATM   29  C   UNL     1     -40.502  53.035 -52.406  1.00  0.00    -0.007 A 
HETATM   30  C   UNL     1     -40.766  52.773 -53.759  1.00  0.00     0.014 A 
HETATM   31  C   UNL     1     -40.373  51.565 -54.343  1.00  0.00     0.001 A 
HETATM   32  C   UNL     1     -39.717  50.603 -53.580  1.00  0.00     0.000 A 
HETATM   33  C   UNL     1     -39.457  50.844 -52.232  1.00  0.00     0.001 A 
HETATM   34  C   UNL     1     -39.849  52.052 -51.647  1.00  0.00     0.014 A 
ENDBRANCH  26  29
ENDBRANCH   1  24
TORSDOF 6
ENDMDL
MODEL 7
REMARK VINA RESULT:      -8.6      5.592      9.262
REMARK  6 active torsions:
REMARK  status: ('A' for Active; 'I' for Inactive)
REMARK    1  A    between atoms: C_4  and  C_5 
REMARK    2  A    between atoms: C_7  and  N_8 
REMARK    3  A    between atoms: N_11  and  C_13 
REMARK    4  A    between atoms: C_13  and  C_14 
REMARK       I    between atoms: C_14  and  N_15 
REMARK    5  A    between atoms: N_15  and  N_16 
REMARK       I    between atoms: N_16  and  C_17 
REMARK    6  A    between atoms: C_17  and  C_18 
ROOT
HETATM    1  N   UNL     1     -44.352  59.980 -54.848  1.00  0.00    -0.357 N 
HETATM    2  C   UNL     1     -43.771  61.231 -54.339  1.00  0.00     0.152 C 
HETATM    3  C   UNL     1     -42.648  60.924 -53.324  1.00  0.00     0.255 C 
HETATM    4  N   UNL     1     -43.191  60.026 -52.204  1.00  0.00    -0.060 N 
HETATM    5  H   UNL     1     -43.945  60.572 -51.754  1.00  0.00     0.280 HD
HETATM    6  C   UNL     1     -43.800  58.744 -52.769  1.00  0.00     0.255 C 
HETATM    7  C   UNL     1     -44.894  59.096 -53.800  1.00  0.00     0.152 C 
ENDROOT
BRANCH   4   8
HETATM    8  C   UNL     1     -42.172  59.781 -51.097  1.00  0.00     0.338 C 
BRANCH   8   9
HETATM    9  C   UNL     1     -41.204  58.659 -51.488  1.00  0.00     0.262 C 
HETATM   10  N   UNL     1     -41.429  57.452 -50.863  1.00  0.00    -0.266 N 
HETATM   11  H   UNL     1     -42.331  57.257 -50.418  1.00  0.00     0.190 HD
HETATM   12  O   UNL     1     -40.301  58.871 -52.300  1.00  0.00    -0.270 OA
BRANCH  10  13
HETATM   13  N   UNL     1     -40.879  56.303 -51.466  1.00  0.00    -0.263 N 
HETATM   14  C   UNL     1     -41.763  55.275 -51.739  1.00  0.00     0.270 C 
HETATM   15  O   UNL     1     -42.961  55.399 -51.485  1.00  0.00    -0.266 OA
HETATM   16  H   UNL     1     -39.867  56.243 -51.561  1.00  0.00     0.190 HD
BRANCH  14  17
HETATM   17  C   UNL     1     -41.217  54.018 -52.316  1.00  0.00     0.033 A 
HETATM   18  C   UNL     1     -40.333  53.186 -51.617  1.00  0.00     0.018 A 
HETATM   19  C   UNL     1     -39.844  52.021 -52.221  1.00  0.00     0.020 A 
HETATM   20  C   UNL     1     -40.234  51.692 -53.520  1.00  0.00     0.011 A 
HETATM   21 BR   UNL     1     -39.566  50.123 -54.331  1.00  0.00    -0.051 Br
HETATM   22  C   UNL     1     -41.105  52.518 -54.226  1.00  0.00     0.020 A 
HETATM   23  C   UNL     1     -41.594  53.682 -53.626  1.00  0.00     0.018 A 
ENDBRANCH  14  17
ENDBRANCH  10  13
ENDBRANCH   8   9
ENDBRANCH   4   8
BRANCH   1  24
HETATM   24  C   UNL     1     -43.834  59.373 -55.963  1.00  0.00     0.169 A 
HETATM   25  N   UNL     1     -44.429  58.365 -56.565  1.00  0.00    -0.223 NA
HETATM   26  C   UNL     1     -43.752  57.993 -57.722  1.00  0.00     0.076 A 
HETATM   27  C   UNL     1     -42.595  58.706 -57.958  1.00  0.00     0.085 A 
HETATM   28  S   UNL     1     -42.363  59.867 -56.730  1.00  0.00    -0.062 SA
BRANCH  26  29
HETATM   29  C   UNL     1     -44.275  56.964 -58.615  1.00  0.00    -0.007 A 
HETATM   30  C   UNL     1     -45.475  57.192 -59.304  1.00  0.00     0.014 A 
HETATM   31  C   UNL     1     -45.982  56.240 -60.193  1.00  0.00     0.001 A 
HETATM   32  C   UNL     1     -45.298  55.045 -60.399  1.00  0.00     0.000 A 
HETATM   33  C   UNL     1     -44.110  54.798 -59.713  1.00  0.00     0.001 A 
HETATM   34  C   UNL     1     -43.602  55.750 -58.824  1.00  0.00     0.014 A 
ENDBRANCH  26  29
ENDBRANCH   1  24
TORSDOF 6
ENDMDL
MODEL 8
REMARK VINA RESULT:      -8.5      6.021      8.921
REMARK  6 active torsions:
REMARK  status: ('A' for Active; 'I' for Inactive)
REMARK    1  A    between atoms: C_4  and  C_5 
REMARK    2  A    between atoms: C_7  and  N_8 
REMARK    3  A    between atoms: N_11  and  C_13 
REMARK    4  A    between atoms: C_13  and  C_14 
REMARK       I    between atoms: C_14  and  N_15 
REMARK    5  A    between atoms: N_15  and  N_16 
REMARK       I    between atoms: N_16  and  C_17 
REMARK    6  A    between atoms: C_17  and  C_18 
ROOT
HETATM    1  N   UNL     1     -42.163  56.281 -50.704  1.00  0.00    -0.357 N 
HETATM    2  C   UNL     1     -43.132  56.461 -51.795  1.00  0.00     0.152 C 
HETATM    3  C   UNL     1     -42.439  57.087 -53.026  1.00  0.00     0.255 C 
HETATM    4  N   UNL     1     -41.752  58.399 -52.624  1.00  0.00    -0.060 N 
HETATM    5  H   UNL     1     -42.509  59.015 -52.285  1.00  0.00     0.280 HD
HETATM    6  C   UNL     1     -40.765  58.178 -51.479  1.00  0.00     0.255 C 
HETATM    7  C   UNL     1     -41.490  57.524 -50.284  1.00  0.00     0.152 C 
ENDROOT
BRANCH   4   8
HETATM    8  C   UNL     1     -41.150  59.139 -53.815  1.00  0.00     0.338 C 
BRANCH   8   9
HETATM    9  C   UNL     1     -42.212  59.393 -54.889  1.00  0.00     0.262 C 
HETATM   10  N   UNL     1     -41.867  58.981 -56.158  1.00  0.00    -0.266 N 
HETATM   11  H   UNL     1     -41.108  58.307 -56.297  1.00  0.00     0.190 HD
HETATM   12  O   UNL     1     -43.278  59.937 -54.594  1.00  0.00    -0.270 OA
BRANCH  10  13
HETATM   13  N   UNL     1     -42.915  58.792 -57.081  1.00  0.00    -0.263 N 
HETATM   14  C   UNL     1     -43.274  57.480 -57.336  1.00  0.00     0.270 C 
HETATM   15  O   UNL     1     -42.711  56.555 -56.751  1.00  0.00    -0.266 OA
HETATM   16  H   UNL     1     -43.267  59.602 -57.586  1.00  0.00     0.190 HD
BRANCH  14  17
HETATM   17  C   UNL     1     -44.332  57.230 -58.350  1.00  0.00     0.033 A 
HETATM   18  C   UNL     1     -44.102  56.491 -59.517  1.00  0.00     0.018 A 
HETATM   19  C   UNL     1     -45.137  56.300 -60.440  1.00  0.00     0.020 A 
HETATM   20  C   UNL     1     -46.397  56.850 -60.199  1.00  0.00     0.011 A 
HETATM   21 BR   UNL     1     -47.787  56.593 -61.451  1.00  0.00    -0.051 Br
HETATM   22  C   UNL     1     -46.633  57.593 -59.046  1.00  0.00     0.020 A 
HETATM   23  C   UNL     1     -45.601  57.787 -58.123  1.00  0.00     0.018 A 
ENDBRANCH  14  17
ENDBRANCH  10  13
ENDBRANCH   8   9
ENDBRANCH   4   8
BRANCH   1  24
HETATM   24  C   UNL     1     -41.444  55.120 -50.594  1.00  0.00     0.169 A 
HETATM   25  N   UNL     1     -41.397  54.219 -51.552  1.00  0.00    -0.223 NA
HETATM   26  C   UNL     1     -40.526  53.182 -51.233  1.00  0.00     0.076 A 
HETATM   27  C   UNL     1     -39.952  53.286 -49.983  1.00  0.00     0.085 A 
HETATM   28  S   UNL     1     -40.493  54.707 -49.208  1.00  0.00    -0.062 SA
BRANCH  26  29
HETATM   29  C   UNL     1     -40.229  52.115 -52.183  1.00  0.00    -0.007 A 
HETATM   30  C   UNL     1     -40.375  52.354 -53.558  1.00  0.00     0.014 A 
HETATM   31  C   UNL     1     -40.063  51.362 -54.492  1.00  0.00     0.001 A 
HETATM   32  C   UNL     1     -39.608  50.118 -54.064  1.00  0.00     0.000 A 
HETATM   33  C   UNL     1     -39.469  49.861 -52.701  1.00  0.00     0.001 A 
HETATM   34  C   UNL     1     -39.779  50.852 -51.765  1.00  0.00     0.014 A 
ENDBRANCH  26  29
ENDBRANCH   1  24
TORSDOF 6
ENDMDL
MODEL 9
REMARK VINA RESULT:      -8.5      6.622     10.215
REMARK  6 active torsions:
REMARK  status: ('A' for Active; 'I' for Inactive)
REMARK    1  A    between atoms: C_4  and  C_5 
REMARK    2  A    between atoms: C_7  and  N_8 
REMARK    3  A    between atoms: N_11  and  C_13 
REMARK    4  A    between atoms: C_13  and  C_14 
REMARK       I    between atoms: C_14  and  N_15 
REMARK    5  A    between atoms: N_15  and  N_16 
REMARK       I    between atoms: N_16  and  C_17 
REMARK    6  A    between atoms: C_17  and  C_18 
ROOT
HETATM    1  N   UNL     1     -45.087  59.626 -58.765  1.00  0.00    -0.357 N 
HETATM    2  C   UNL     1     -46.298  58.791 -58.734  1.00  0.00     0.152 C 
HETATM    3  C   UNL     1     -45.940  57.323 -59.054  1.00  0.00     0.255 C 
HETATM    4  N   UNL     1     -45.205  57.247 -60.398  1.00  0.00    -0.060 N 
HETATM    5  H   UNL     1     -45.869  57.617 -61.098  1.00  0.00     0.280 HD
HETATM    6  C   UNL     1     -43.963  58.138 -60.400  1.00  0.00     0.255 C 
HETATM    7  C   UNL     1     -44.359  59.587 -60.047  1.00  0.00     0.152 C 
ENDROOT
BRANCH   4   8
HETATM    8  C   UNL     1     -44.928  55.814 -60.841  1.00  0.00     0.338 C 
BRANCH   8   9
HETATM    9  C   UNL     1     -44.457  54.962 -59.658  1.00  0.00     0.262 C 
HETATM   10  N   UNL     1     -43.537  55.570 -58.833  1.00  0.00    -0.266 N 
HETATM   11  H   UNL     1     -43.419  56.587 -58.846  1.00  0.00     0.190 HD
HETATM   12  O   UNL     1     -44.891  53.818 -59.504  1.00  0.00    -0.270 OA
BRANCH  10  13
HETATM   13  N   UNL     1     -43.387  55.039 -57.535  1.00  0.00    -0.263 N 
HETATM   14  C   UNL     1     -42.629  55.789 -56.654  1.00  0.00     0.270 C 
HETATM   15  O   UNL     1     -42.152  56.868 -57.004  1.00  0.00    -0.266 OA
HETATM   16  H   UNL     1     -43.737  54.101 -57.352  1.00  0.00     0.190 HD
BRANCH  14  17
HETATM   17  C   UNL     1     -42.391  55.238 -55.294  1.00  0.00     0.033 A 
HETATM   18  C   UNL     1     -43.430  54.794 -54.465  1.00  0.00     0.018 A 
HETATM   19  C   UNL     1     -43.142  54.296 -53.188  1.00  0.00     0.020 A 
HETATM   20  C   UNL     1     -41.821  54.246 -52.741  1.00  0.00     0.011 A 
HETATM   21 BR   UNL     1     -41.440  53.578 -51.015  1.00  0.00    -0.051 Br
HETATM   22  C   UNL     1     -40.783  54.693 -53.554  1.00  0.00     0.020 A 
HETATM   23  C   UNL     1     -41.068  55.192 -54.828  1.00  0.00     0.018 A 
ENDBRANCH  14  17
ENDBRANCH  10  13
ENDBRANCH   8   9
ENDBRANCH   4   8
BRANCH   1  24
HETATM   24  C   UNL     1     -44.337  59.810 -57.633  1.00  0.00     0.169 A 
HETATM   25  N   UNL     1     -44.552  59.138 -56.521  1.00  0.00    -0.223 NA
HETATM   26  C   UNL     1     -43.599  59.440 -55.554  1.00  0.00     0.076 A 
HETATM   27  C   UNL     1     -42.685  60.401 -55.935  1.00  0.00     0.085 A 
HETATM   28  S   UNL     1     -43.010  60.916 -57.529  1.00  0.00    -0.062 SA
BRANCH  26  29
HETATM   29  C   UNL     1     -43.568  58.745 -54.271  1.00  0.00    -0.007 A 
HETATM   30  C   UNL     1     -42.340  58.550 -53.621  1.00  0.00     0.014 A 
HETATM   31  C   UNL     1     -42.283  57.920 -52.374  1.00  0.00     0.001 A 
HETATM   32  C   UNL     1     -43.453  57.472 -51.765  1.00  0.00     0.000 A 
HETATM   33  C   UNL     1     -44.679  57.648 -52.403  1.00  0.00     0.001 A 
HETATM   34  C   UNL     1     -44.737  58.279 -53.650  1.00  0.00     0.014 A 
ENDBRANCH  26  29
ENDBRANCH   1  24
TORSDOF 6
ENDMDL
MODEL 10
REMARK VINA RESULT:      -8.4      6.247      8.783
REMARK  6 active torsions:
REMARK  status: ('A' for Active; 'I' for Inactive)
REMARK    1  A    between atoms: C_4  and  C_5 
REMARK    2  A    between atoms: C_7  and  N_8 
REMARK    3  A    between atoms: N_11  and  C_13 
REMARK    4  A    between atoms: C_13  and  C_14 
REMARK       I    between atoms: C_14  and  N_15 
REMARK    5  A    between atoms: N_15  and  N_16 
REMARK       I    between atoms: N_16  and  C_17 
REMARK    6  A    between atoms: C_17  and  C_18 
ROOT
HETATM    1  N   UNL     1     -42.926  56.005 -52.348  1.00  0.00    -0.357 N 
HETATM    2  C   UNL     1     -44.085  56.500 -53.106  1.00  0.00     0.152 C 
HETATM    3  C   UNL     1     -43.772  57.885 -53.714  1.00  0.00     0.255 C 
HETATM    4  N   UNL     1     -43.333  58.852 -52.606  1.00  0.00    -0.060 N 
HETATM    5  H   UNL     1     -44.137  58.916 -51.960  1.00  0.00     0.280 HD
HETATM    6  C   UNL     1     -42.138  58.299 -51.831  1.00  0.00     0.255 C 
HETATM    7  C   UNL     1     -42.482  56.904 -51.267  1.00  0.00     0.152 C 
ENDROOT
BRANCH   4   8
HETATM    8  C   UNL     1     -43.126  60.276 -53.113  1.00  0.00     0.338 C 
BRANCH   8   9
HETATM    9  C   UNL     1     -42.200  60.288 -54.334  1.00  0.00     0.262 C 
HETATM   10  N   UNL     1     -42.766  60.780 -55.489  1.00  0.00    -0.266 N 
HETATM   11  H   UNL     1     -43.615  61.351 -55.450  1.00  0.00     0.190 HD
HETATM   12  O   UNL     1     -41.043  59.871 -54.241  1.00  0.00    -0.270 OA
BRANCH  10  13
HETATM   13  N   UNL     1     -41.887  61.210 -56.504  1.00  0.00    -0.263 N 
HETATM   14  C   UNL     1     -42.478  61.684 -57.662  1.00  0.00     0.270 C 
HETATM   15  O   UNL     1     -43.704  61.742 -57.757  1.00  0.00    -0.266 OA
HETATM   16  H   UNL     1     -40.890  61.047 -56.382  1.00  0.00     0.190 HD
BRANCH  14  17
HETATM   17  C   UNL     1     -41.591  62.090 -58.783  1.00  0.00     0.033 A 
HETATM   18  C   UNL     1     -40.402  62.804 -58.586  1.00  0.00     0.018 A 
HETATM   19  C   UNL     1     -39.614  63.169 -59.685  1.00  0.00     0.020 A 
HETATM   20  C   UNL     1     -40.016  62.824 -60.976  1.00  0.00     0.011 A 
HETATM   21 BR   UNL     1     -38.952  63.323 -62.455  1.00  0.00    -0.051 Br
HETATM   22  C   UNL     1     -41.201  62.121 -61.182  1.00  0.00     0.020 A 
HETATM   23  C   UNL     1     -41.989  61.758 -60.087  1.00  0.00     0.018 A 
ENDBRANCH  14  17
ENDBRANCH  10  13
ENDBRANCH   8   9
ENDBRANCH   4   8
BRANCH   1  24
HETATM   24  C   UNL     1     -41.959  55.253 -52.965  1.00  0.00     0.169 A 
HETATM   25  N   UNL     1     -41.629  54.046 -52.556  1.00  0.00    -0.223 NA
HETATM   26  C   UNL     1     -40.694  53.461 -53.403  1.00  0.00     0.076 A 
HETATM   27  C   UNL     1     -40.277  54.272 -54.438  1.00  0.00     0.085 A 
HETATM   28  S   UNL     1     -41.080  55.777 -54.360  1.00  0.00    -0.062 SA
BRANCH  26  29
HETATM   29  C   UNL     1     -40.249  52.084 -53.214  1.00  0.00    -0.007 A 
HETATM   30  C   UNL     1     -39.854  51.655 -51.938  1.00  0.00     0.014 A 
HETATM   31  C   UNL     1     -39.458  50.333 -51.719  1.00  0.00     0.001 A 
HETATM   32  C   UNL     1     -39.444  49.425 -52.775  1.00  0.00     0.000 A 
HETATM   33  C   UNL     1     -39.823  49.838 -54.050  1.00  0.00     0.001 A 
HETATM   34  C   UNL     1     -40.221  51.160 -54.271  1.00  0.00     0.014 A 
ENDBRANCH  26  29
ENDBRANCH   1  24
TORSDOF 6
ENDMDL
