MODEL 1
REMARK VINA RESULT:      -8.2      0.000      0.000
REMARK  5 active torsions:
REMARK  status: ('A' for Active; 'I' for Inactive)
REMARK    1  A    between atoms: O_2  and  C_3 
REMARK    2  A    between atoms: C_4  and  N_5 
REMARK       I    between atoms: N_5  and  C_6 
REMARK    3  A    between atoms: C_6  and  C_7 
REMARK    4  A    between atoms: C_7  and  N_8 
REMARK    5  A    between atoms: N_8  and  C_9 
ROOT
HETATM    1  C   UNL     1     -41.425  53.911 -50.066  1.00  0.00     0.195 C 
ENDROOT
BRANCH   1   2
HETATM    2  C   UNL     1     -41.298  55.169 -49.195  1.00  0.00     0.235 C 
HETATM    3  N   UNL     1     -41.769  56.374 -49.626  1.00  0.00    -0.324 N 
HETATM    4  H   UNL     1     -42.056  56.980 -48.864  1.00  0.00     0.169 HD
HETATM    5  O   UNL     1     -40.952  55.065 -48.011  1.00  0.00    -0.272 OA
BRANCH   3   6
HETATM    6  C   UNL     1     -42.081  56.855 -50.907  1.00  0.00     0.068 A 
HETATM    7  C   UNL     1     -41.151  57.711 -51.522  1.00  0.00     0.095 A 
HETATM    8  C   UNL     1     -41.346  58.154 -52.831  1.00  0.00     0.039 A 
HETATM    9  C   UNL     1     -42.483  57.753 -53.532  1.00  0.00     0.003 A 
HETATM   10  C   UNL     1     -43.406  56.899 -52.931  1.00  0.00     0.002 A 
HETATM   11  C   UNL     1     -43.204  56.443 -51.624  1.00  0.00     0.032 A 
BRANCH   7  12
HETATM   12  O   UNL     1     -40.039  58.073 -50.796  1.00  0.00    -0.354 OA
HETATM   13  C   UNL     1     -39.879  59.492 -50.738  1.00  0.00     0.210 C 
ENDBRANCH   7  12
ENDBRANCH   3   6
ENDBRANCH   1   2
BRANCH   1  14
HETATM   14  N   UNL     1     -40.217  53.818 -50.894  1.00  0.00    -0.283 NA
HETATM   15  H   UNL     1     -39.625  54.641 -50.764  1.00  0.00     0.128 HD
BRANCH  14  16
HETATM   16  C   UNL     1     -40.263  53.474 -52.255  1.00  0.00     0.019 A 
HETATM   17  C   UNL     1     -40.021  52.116 -52.638  1.00  0.00    -0.005 A 
HETATM   18  C   UNL     1     -40.053  51.761 -54.010  1.00  0.00    -0.024 A 
HETATM   19  C   UNL     1     -39.757  51.081 -51.707  1.00  0.00     0.014 A 
HETATM   20  C   UNL     1     -39.797  50.435 -54.402  1.00  0.00     0.012 A 
HETATM   21  C   UNL     1     -40.352  52.734 -54.972  1.00  0.00     0.012 A 
HETATM   22  C   UNL     1     -39.528  49.444 -53.460  1.00  0.00     0.001 A 
HETATM   23  C   UNL     1     -39.514  49.766 -52.110  1.00  0.00     0.001 A 
HETATM   24  C   UNL     1     -40.641  54.039 -54.593  1.00  0.00     0.003 A 
HETATM   25  C   UNL     1     -40.612  54.400 -53.247  1.00  0.00     0.024 A 
ENDBRANCH  14  16
ENDBRANCH   1  14
TORSDOF 5
ENDMDL
MODEL 2
REMARK VINA RESULT:      -8.1      4.338      5.702
REMARK  5 active torsions:
REMARK  status: ('A' for Active; 'I' for Inactive)
REMARK    1  A    between atoms: O_2  and  C_3 
REMARK    2  A    between atoms: C_4  and  N_5 
REMARK       I    between atoms: N_5  and  C_6 
REMARK    3  A    between atoms: C_6  and  C_7 
REMARK    4  A    between atoms: C_7  and  N_8 
REMARK    5  A    between atoms: N_8  and  C_9 
ROOT
HETATM    1  C   UNL     1     -41.561  55.308 -55.086  1.00  0.00     0.195 C 
ENDROOT
BRANCH   1   2
HETATM    2  C   UNL     1     -43.076  55.387 -55.322  1.00  0.00     0.235 C 
HETATM    3  N   UNL     1     -43.580  55.737 -56.540  1.00  0.00    -0.324 N 
HETATM    4  H   UNL     1     -44.491  55.327 -56.721  1.00  0.00     0.169 HD
HETATM    5  O   UNL     1     -43.855  54.939 -54.472  1.00  0.00    -0.272 OA
BRANCH   3   6
HETATM    6  C   UNL     1     -43.011  56.408 -57.634  1.00  0.00     0.068 A 
HETATM    7  C   UNL     1     -43.202  55.848 -58.909  1.00  0.00     0.095 A 
HETATM    8  C   UNL     1     -42.748  56.508 -60.053  1.00  0.00     0.039 A 
HETATM    9  C   UNL     1     -42.087  57.729 -59.927  1.00  0.00     0.003 A 
HETATM   10  C   UNL     1     -41.899  58.293 -58.666  1.00  0.00     0.002 A 
HETATM   11  C   UNL     1     -42.367  57.640 -57.521  1.00  0.00     0.032 A 
BRANCH   7  12
HETATM   12  O   UNL     1     -43.870  54.648 -58.985  1.00  0.00    -0.354 OA
HETATM   13  C   UNL     1     -44.891  54.668 -59.985  1.00  0.00     0.210 C 
ENDBRANCH   7  12
ENDBRANCH   3   6
ENDBRANCH   1   2
BRANCH   1  14
HETATM   14  N   UNL     1     -41.231  53.913 -54.772  1.00  0.00    -0.283 NA
HETATM   15  H   UNL     1     -41.953  53.281 -55.125  1.00  0.00     0.128 HD
BRANCH  14  16
HETATM   16  C   UNL     1     -40.828  53.506 -53.489  1.00  0.00     0.019 A 
HETATM   17  C   UNL     1     -40.365  52.165 -53.298  1.00  0.00    -0.005 A 
HETATM   18  C   UNL     1     -39.968  51.741 -52.004  1.00  0.00    -0.024 A 
HETATM   19  C   UNL     1     -40.265  51.220 -54.348  1.00  0.00     0.014 A 
HETATM   20  C   UNL     1     -39.530  50.421 -51.798  1.00  0.00     0.012 A 
HETATM   21  C   UNL     1     -40.004  52.645 -50.936  1.00  0.00     0.012 A 
HETATM   22  C   UNL     1     -39.457  49.513 -52.853  1.00  0.00     0.001 A 
HETATM   23  C   UNL     1     -39.820  49.914 -54.130  1.00  0.00     0.001 A 
HETATM   24  C   UNL     1     -40.402  53.962 -51.136  1.00  0.00     0.003 A 
HETATM   25  C   UNL     1     -40.795  54.390 -52.402  1.00  0.00     0.024 A 
ENDBRANCH  14  16
ENDBRANCH   1  14
TORSDOF 5
ENDMDL
MODEL 3
REMARK VINA RESULT:      -7.8      3.851      5.054
REMARK  5 active torsions:
REMARK  status: ('A' for Active; 'I' for Inactive)
REMARK    1  A    between atoms: O_2  and  C_3 
REMARK    2  A    between atoms: C_4  and  N_5 
REMARK       I    between atoms: N_5  and  C_6 
REMARK    3  A    between atoms: C_6  and  C_7 
REMARK    4  A    between atoms: C_7  and  N_8 
REMARK    5  A    between atoms: N_8  and  C_9 
ROOT
HETATM    1  C   UNL     1     -41.621  55.456 -55.166  1.00  0.00     0.195 C 
ENDROOT
BRANCH   1   2
HETATM    2  C   UNL     1     -43.048  56.023 -55.154  1.00  0.00     0.235 C 
HETATM    3  N   UNL     1     -43.675  56.376 -56.312  1.00  0.00    -0.324 N 
HETATM    4  H   UNL     1     -44.685  56.285 -56.256  1.00  0.00     0.169 HD
HETATM    5  O   UNL     1     -43.720  55.976 -54.115  1.00  0.00    -0.272 OA
BRANCH   3   6
HETATM    6  C   UNL     1     -43.183  56.673 -57.592  1.00  0.00     0.068 A 
HETATM    7  C   UNL     1     -42.584  57.931 -57.781  1.00  0.00     0.095 A 
HETATM    8  C   UNL     1     -41.988  58.262 -58.999  1.00  0.00     0.039 A 
HETATM    9  C   UNL     1     -41.998  57.340 -60.044  1.00  0.00     0.003 A 
HETATM   10  C   UNL     1     -42.584  56.088 -59.863  1.00  0.00     0.002 A 
HETATM   11  C   UNL     1     -43.169  55.749 -58.638  1.00  0.00     0.032 A 
BRANCH   7  12
HETATM   12  O   UNL     1     -42.588  58.805 -56.718  1.00  0.00    -0.354 OA
HETATM   13  C   UNL     1     -42.024  60.071 -57.068  1.00  0.00     0.210 C 
ENDBRANCH   7  12
ENDBRANCH   3   6
ENDBRANCH   1   2
BRANCH   1  14
HETATM   14  N   UNL     1     -41.688  54.070 -54.689  1.00  0.00    -0.283 NA
HETATM   15  H   UNL     1     -42.640  53.707 -54.761  1.00  0.00     0.128 HD
BRANCH  14  16
HETATM   16  C   UNL     1     -41.116  53.666 -53.471  1.00  0.00     0.019 A 
HETATM   17  C   UNL     1     -40.566  52.349 -53.364  1.00  0.00    -0.005 A 
HETATM   18  C   UNL     1     -39.998  51.927 -52.135  1.00  0.00    -0.024 A 
HETATM   19  C   UNL     1     -40.545  51.426 -54.437  1.00  0.00     0.014 A 
HETATM   20  C   UNL     1     -39.472  50.630 -52.009  1.00  0.00     0.012 A 
HETATM   21  C   UNL     1     -39.951  52.813 -51.051  1.00  0.00     0.012 A 
HETATM   22  C   UNL     1     -39.480  49.742 -53.083  1.00  0.00     0.001 A 
HETATM   23  C   UNL     1     -40.012  50.142 -54.300  1.00  0.00     0.001 A 
HETATM   24  C   UNL     1     -40.436  54.110 -51.176  1.00  0.00     0.003 A 
HETATM   25  C   UNL     1     -40.997  54.536 -52.378  1.00  0.00     0.024 A 
ENDBRANCH  14  16
ENDBRANCH   1  14
TORSDOF 5
ENDMDL
MODEL 4
REMARK VINA RESULT:      -7.8      2.291      3.780
REMARK  5 active torsions:
REMARK  status: ('A' for Active; 'I' for Inactive)
REMARK    1  A    between atoms: O_2  and  C_3 
REMARK    2  A    between atoms: C_4  and  N_5 
REMARK       I    between atoms: N_5  and  C_6 
REMARK    3  A    between atoms: C_6  and  C_7 
REMARK    4  A    between atoms: C_7  and  N_8 
REMARK    5  A    between atoms: N_8  and  C_9 
ROOT
HETATM    1  C   UNL     1     -40.784  55.383 -55.024  1.00  0.00     0.195 C 
ENDROOT
BRANCH   1   2
HETATM    2  C   UNL     1     -42.088  56.176 -55.193  1.00  0.00     0.235 C 
HETATM    3  N   UNL     1     -42.313  57.318 -54.483  1.00  0.00    -0.324 N 
HETATM    4  H   UNL     1     -42.920  57.970 -54.970  1.00  0.00     0.169 HD
HETATM    5  O   UNL     1     -42.859  55.901 -56.121  1.00  0.00    -0.272 OA
BRANCH   3   6
HETATM    6  C   UNL     1     -41.740  57.818 -53.303  1.00  0.00     0.068 A 
HETATM    7  C   UNL     1     -42.370  57.494 -52.089  1.00  0.00     0.095 A 
HETATM    8  C   UNL     1     -41.806  57.876 -50.870  1.00  0.00     0.039 A 
HETATM    9  C   UNL     1     -40.613  58.596 -50.857  1.00  0.00     0.003 A 
HETATM   10  C   UNL     1     -39.980  58.915 -52.058  1.00  0.00     0.002 A 
HETATM   11  C   UNL     1     -40.535  58.521 -53.279  1.00  0.00     0.032 A 
BRANCH   7  12
HETATM   12  O   UNL     1     -43.540  56.773 -52.149  1.00  0.00    -0.354 OA
HETATM   13  C   UNL     1     -43.807  56.088 -50.923  1.00  0.00     0.210 C 
ENDBRANCH   7  12
ENDBRANCH   3   6
ENDBRANCH   1   2
BRANCH   1  14
HETATM   14  N   UNL     1     -41.138  54.034 -54.568  1.00  0.00    -0.283 NA
HETATM   15  H   UNL     1     -42.130  53.846 -54.727  1.00  0.00     0.128 HD
BRANCH  14  16
HETATM   16  C   UNL     1     -40.756  53.542 -53.309  1.00  0.00     0.019 A 
HETATM   17  C   UNL     1     -40.325  52.182 -53.195  1.00  0.00    -0.005 A 
HETATM   18  C   UNL     1     -39.949  51.672 -51.926  1.00  0.00    -0.024 A 
HETATM   19  C   UNL     1     -40.237  51.299 -54.299  1.00  0.00     0.014 A 
HETATM   20  C   UNL     1     -39.542  50.333 -51.796  1.00  0.00     0.012 A 
HETATM   21  C   UNL     1     -39.973  52.511 -50.806  1.00  0.00     0.012 A 
HETATM   22  C   UNL     1     -39.481  49.487 -52.903  1.00  0.00     0.001 A 
HETATM   23  C   UNL     1     -39.823  49.972 -54.157  1.00  0.00     0.001 A 
HETATM   24  C   UNL     1     -40.339  53.847 -50.930  1.00  0.00     0.003 A 
HETATM   25  C   UNL     1     -40.712  54.359 -52.171  1.00  0.00     0.024 A 
ENDBRANCH  14  16
ENDBRANCH   1  14
TORSDOF 5
ENDMDL
MODEL 5
REMARK VINA RESULT:      -7.8      4.299      6.139
REMARK  5 active torsions:
REMARK  status: ('A' for Active; 'I' for Inactive)
REMARK    1  A    between atoms: O_2  and  C_3 
REMARK    2  A    between atoms: C_4  and  N_5 
REMARK       I    between atoms: N_5  and  C_6 
REMARK    3  A    between atoms: C_6  and  C_7 
REMARK    4  A    between atoms: C_7  and  N_8 
REMARK    5  A    between atoms: N_8  and  C_9 
ROOT
HETATM    1  C   UNL     1     -41.718  54.640 -55.463  1.00  0.00     0.195 C 
ENDROOT
BRANCH   1   2
HETATM    2  C   UNL     1     -43.108  55.290 -55.383  1.00  0.00     0.235 C 
HETATM    3  N   UNL     1     -43.627  55.972 -56.444  1.00  0.00    -0.324 N 
HETATM    4  H   UNL     1     -44.641  55.946 -56.470  1.00  0.00     0.169 HD
HETATM    5  O   UNL     1     -43.855  55.029 -54.432  1.00  0.00    -0.272 OA
BRANCH   3   6
HETATM    6  C   UNL     1     -43.026  56.549 -57.573  1.00  0.00     0.068 A 
HETATM    7  C   UNL     1     -43.210  55.904 -58.808  1.00  0.00     0.095 A 
HETATM    8  C   UNL     1     -42.723  56.468 -59.988  1.00  0.00     0.039 A 
HETATM    9  C   UNL     1     -42.035  57.680 -59.940  1.00  0.00     0.003 A 
HETATM   10  C   UNL     1     -41.854  58.329 -58.720  1.00  0.00     0.002 A 
HETATM   11  C   UNL     1     -42.354  57.772 -57.539  1.00  0.00     0.032 A 
BRANCH   7  12
HETATM   12  O   UNL     1     -43.904  54.716 -58.809  1.00  0.00    -0.354 OA
HETATM   13  C   UNL     1     -44.722  54.578 -59.973  1.00  0.00     0.210 C 
ENDBRANCH   7  12
ENDBRANCH   3   6
ENDBRANCH   1   2
BRANCH   1  14
HETATM   14  N   UNL     1     -41.020  54.927 -54.204  1.00  0.00    -0.283 NA
HETATM   15  H   UNL     1     -40.259  55.591 -54.354  1.00  0.00     0.128 HD
BRANCH  14  16
HETATM   16  C   UNL     1     -40.600  53.910 -53.330  1.00  0.00     0.019 A 
HETATM   17  C   UNL     1     -40.697  54.122 -51.918  1.00  0.00    -0.005 A 
HETATM   18  C   UNL     1     -40.264  53.107 -51.027  1.00  0.00    -0.024 A 
HETATM   19  C   UNL     1     -41.223  55.305 -51.344  1.00  0.00     0.014 A 
HETATM   20  C   UNL     1     -40.335  53.310 -49.638  1.00  0.00     0.012 A 
HETATM   21  C   UNL     1     -39.776  51.898 -51.538  1.00  0.00     0.012 A 
HETATM   22  C   UNL     1     -40.846  54.493 -49.108  1.00  0.00     0.001 A 
HETATM   23  C   UNL     1     -41.295  55.490 -49.961  1.00  0.00     0.001 A 
HETATM   24  C   UNL     1     -39.735  51.674 -52.909  1.00  0.00     0.003 A 
HETATM   25  C   UNL     1     -40.157  52.664 -53.794  1.00  0.00     0.024 A 
ENDBRANCH  14  16
ENDBRANCH   1  14
TORSDOF 5
ENDMDL
MODEL 6
REMARK VINA RESULT:      -7.6      3.904      5.494
REMARK  5 active torsions:
REMARK  status: ('A' for Active; 'I' for Inactive)
REMARK    1  A    between atoms: O_2  and  C_3 
REMARK    2  A    between atoms: C_4  and  N_5 
REMARK       I    between atoms: N_5  and  C_6 
REMARK    3  A    between atoms: C_6  and  C_7 
REMARK    4  A    between atoms: C_7  and  N_8 
REMARK    5  A    between atoms: N_8  and  C_9 
ROOT
HETATM    1  C   UNL     1     -42.127  54.992 -55.268  1.00  0.00     0.195 C 
ENDROOT
BRANCH   1   2
HETATM    2  C   UNL     1     -43.293  55.987 -55.176  1.00  0.00     0.235 C 
HETATM    3  N   UNL     1     -43.806  56.575 -56.295  1.00  0.00    -0.324 N 
HETATM    4  H   UNL     1     -44.788  56.811 -56.199  1.00  0.00     0.169 HD
HETATM    5  O   UNL     1     -43.914  56.111 -54.112  1.00  0.00    -0.272 OA
BRANCH   3   6
HETATM    6  C   UNL     1     -43.281  56.757 -57.583  1.00  0.00     0.068 A 
HETATM    7  C   UNL     1     -42.487  57.896 -57.806  1.00  0.00     0.095 A 
HETATM    8  C   UNL     1     -41.854  58.095 -59.034  1.00  0.00     0.039 A 
HETATM    9  C   UNL     1     -42.020  57.160 -60.055  1.00  0.00     0.003 A 
HETATM   10  C   UNL     1     -42.800  56.025 -59.839  1.00  0.00     0.002 A 
HETATM   11  C   UNL     1     -43.423  55.817 -58.605  1.00  0.00     0.032 A 
BRANCH   7  12
HETATM   12  O   UNL     1     -42.343  58.785 -56.766  1.00  0.00    -0.354 OA
HETATM   13  C   UNL     1     -42.104  60.115 -57.233  1.00  0.00     0.210 C 
ENDBRANCH   7  12
ENDBRANCH   3   6
ENDBRANCH   1   2
BRANCH   1  14
HETATM   14  N   UNL     1     -42.437  53.859 -54.389  1.00  0.00    -0.283 NA
HETATM   15  H   UNL     1     -43.249  54.065 -53.804  1.00  0.00     0.128 HD
BRANCH  14  16
HETATM   16  C   UNL     1     -41.454  53.208 -53.626  1.00  0.00     0.019 A 
HETATM   17  C   UNL     1     -41.356  53.494 -52.227  1.00  0.00    -0.005 A 
HETATM   18  C   UNL     1     -40.357  52.851 -51.451  1.00  0.00    -0.024 A 
HETATM   19  C   UNL     1     -42.221  54.391 -51.555  1.00  0.00     0.014 A 
HETATM   20  C   UNL     1     -40.236  53.138 -50.080  1.00  0.00     0.012 A 
HETATM   21  C   UNL     1     -39.501  51.921 -52.053  1.00  0.00     0.012 A 
HETATM   22  C   UNL     1     -41.098  54.037 -49.453  1.00  0.00     0.001 A 
HETATM   23  C   UNL     1     -42.094  54.660 -50.190  1.00  0.00     0.001 A 
HETATM   24  C   UNL     1     -39.636  51.604 -53.400  1.00  0.00     0.003 A 
HETATM   25  C   UNL     1     -40.612  52.230 -54.173  1.00  0.00     0.024 A 
ENDBRANCH  14  16
ENDBRANCH   1  14
TORSDOF 5
ENDMDL
MODEL 7
REMARK VINA RESULT:      -7.5      2.225      3.068
REMARK  5 active torsions:
REMARK  status: ('A' for Active; 'I' for Inactive)
REMARK    1  A    between atoms: O_2  and  C_3 
REMARK    2  A    between atoms: C_4  and  N_5 
REMARK       I    between atoms: N_5  and  C_6 
REMARK    3  A    between atoms: C_6  and  C_7 
REMARK    4  A    between atoms: C_7  and  N_8 
REMARK    5  A    between atoms: N_8  and  C_9 
ROOT
HETATM    1  C   UNL     1     -41.368  56.199 -51.962  1.00  0.00     0.195 C 
ENDROOT
BRANCH   1   2
HETATM    2  C   UNL     1     -42.889  56.347 -51.812  1.00  0.00     0.235 C 
HETATM    3  N   UNL     1     -43.733  56.008 -52.829  1.00  0.00    -0.324 N 
HETATM    4  H   UNL     1     -44.644  55.704 -52.500  1.00  0.00     0.169 HD
HETATM    5  O   UNL     1     -43.378  56.582 -50.700  1.00  0.00    -0.272 OA
BRANCH   3   6
HETATM    6  C   UNL     1     -43.523  55.844 -54.207  1.00  0.00     0.068 A 
HETATM    7  C   UNL     1     -43.253  56.997 -54.964  1.00  0.00     0.095 A 
HETATM    8  C   UNL     1     -42.941  56.904 -56.321  1.00  0.00     0.039 A 
HETATM    9  C   UNL     1     -42.908  55.653 -56.936  1.00  0.00     0.003 A 
HETATM   10  C   UNL     1     -43.168  54.503 -56.190  1.00  0.00     0.002 A 
HETATM   11  C   UNL     1     -43.467  54.595 -54.827  1.00  0.00     0.032 A 
BRANCH   7  12
HETATM   12  O   UNL     1     -43.286  58.209 -54.313  1.00  0.00    -0.354 OA
HETATM   13  C   UNL     1     -42.129  58.998 -54.597  1.00  0.00     0.210 C 
ENDBRANCH   7  12
ENDBRANCH   3   6
ENDBRANCH   1   2
BRANCH   1  14
HETATM   14  N   UNL     1     -41.002  54.859 -51.488  1.00  0.00    -0.283 NA
HETATM   15  H   UNL     1     -40.377  54.918 -50.682  1.00  0.00     0.128 HD
BRANCH  14  16
HETATM   16  C   UNL     1     -40.563  53.848 -52.359  1.00  0.00     0.019 A 
HETATM   17  C   UNL     1     -40.302  52.543 -51.835  1.00  0.00    -0.005 A 
HETATM   18  C   UNL     1     -39.846  51.519 -52.704  1.00  0.00    -0.024 A 
HETATM   19  C   UNL     1     -40.486  52.201 -50.473  1.00  0.00     0.014 A 
HETATM   20  C   UNL     1     -39.566  50.237 -52.199  1.00  0.00     0.012 A 
HETATM   21  C   UNL     1     -39.687  51.787 -54.069  1.00  0.00     0.012 A 
HETATM   22  C   UNL     1     -39.746  49.940 -50.849  1.00  0.00     0.001 A 
HETATM   23  C   UNL     1     -40.212  50.921 -49.986  1.00  0.00     0.001 A 
HETATM   24  C   UNL     1     -39.996  53.040 -54.585  1.00  0.00     0.003 A 
HETATM   25  C   UNL     1     -40.443  54.054 -53.741  1.00  0.00     0.024 A 
ENDBRANCH  14  16
ENDBRANCH   1  14
TORSDOF 5
ENDMDL
MODEL 8
REMARK VINA RESULT:      -7.4      2.392      4.058
REMARK  5 active torsions:
REMARK  status: ('A' for Active; 'I' for Inactive)
REMARK    1  A    between atoms: O_2  and  C_3 
REMARK    2  A    between atoms: C_4  and  N_5 
REMARK       I    between atoms: N_5  and  C_6 
REMARK    3  A    between atoms: C_6  and  C_7 
REMARK    4  A    between atoms: C_7  and  N_8 
REMARK    5  A    between atoms: N_8  and  C_9 
ROOT
HETATM    1  C   UNL     1     -42.888  56.581 -53.664  1.00  0.00     0.195 C 
ENDROOT
BRANCH   1   2
HETATM    2  C   UNL     1     -42.521  57.763 -54.572  1.00  0.00     0.235 C 
HETATM    3  N   UNL     1     -41.658  58.732 -54.150  1.00  0.00    -0.324 N 
HETATM    4  H   UNL     1     -41.146  59.162 -54.914  1.00  0.00     0.169 HD
HETATM    5  O   UNL     1     -42.841  57.743 -55.767  1.00  0.00    -0.272 OA
BRANCH   3   6
HETATM    6  C   UNL     1     -41.236  59.119 -52.870  1.00  0.00     0.068 A 
HETATM    7  C   UNL     1     -42.168  59.783 -52.052  1.00  0.00     0.095 A 
HETATM    8  C   UNL     1     -41.852  60.115 -50.734  1.00  0.00     0.039 A 
HETATM    9  C   UNL     1     -40.593  59.796 -50.226  1.00  0.00     0.003 A 
HETATM   10  C   UNL     1     -39.666  59.132 -51.028  1.00  0.00     0.002 A 
HETATM   11  C   UNL     1     -39.987  58.786 -52.345  1.00  0.00     0.032 A 
BRANCH   7  12
HETATM   12  O   UNL     1     -43.401  60.069 -52.593  1.00  0.00    -0.354 OA
HETATM   13  C   UNL     1     -44.462  59.473 -51.842  1.00  0.00     0.210 C 
ENDBRANCH   7  12
ENDBRANCH   3   6
ENDBRANCH   1   2
BRANCH   1  14
HETATM   14  N   UNL     1     -41.831  55.571 -53.797  1.00  0.00    -0.283 NA
HETATM   15  H   UNL     1     -42.073  54.886 -54.515  1.00  0.00     0.128 HD
BRANCH  14  16
HETATM   16  C   UNL     1     -41.271  54.919 -52.686  1.00  0.00     0.019 A 
HETATM   17  C   UNL     1     -40.704  53.616 -52.857  1.00  0.00    -0.005 A 
HETATM   18  C   UNL     1     -40.148  52.943 -51.739  1.00  0.00    -0.024 A 
HETATM   19  C   UNL     1     -40.654  52.947 -54.104  1.00  0.00     0.014 A 
HETATM   20  C   UNL     1     -39.606  51.655 -51.888  1.00  0.00     0.012 A 
HETATM   21  C   UNL     1     -40.130  53.574 -50.488  1.00  0.00     0.012 A 
HETATM   22  C   UNL     1     -39.585  51.021 -53.129  1.00  0.00     0.001 A 
HETATM   23  C   UNL     1     -40.105  51.670 -54.240  1.00  0.00     0.001 A 
HETATM   24  C   UNL     1     -40.631  54.862 -50.337  1.00  0.00     0.003 A 
HETATM   25  C   UNL     1     -41.181  55.531 -51.428  1.00  0.00     0.024 A 
ENDBRANCH  14  16
ENDBRANCH   1  14
TORSDOF 5
ENDMDL
MODEL 9
REMARK VINA RESULT:      -7.3      4.341      5.853
REMARK  5 active torsions:
REMARK  status: ('A' for Active; 'I' for Inactive)
REMARK    1  A    between atoms: O_2  and  C_3 
REMARK    2  A    between atoms: C_4  and  N_5 
REMARK       I    between atoms: N_5  and  C_6 
REMARK    3  A    between atoms: C_6  and  C_7 
REMARK    4  A    between atoms: C_7  and  N_8 
REMARK    5  A    between atoms: N_8  and  C_9 
ROOT
HETATM    1  C   UNL     1     -43.660  55.994 -54.975  1.00  0.00     0.195 C 
ENDROOT
BRANCH   1   2
HETATM    2  C   UNL     1     -42.406  56.335 -55.792  1.00  0.00     0.235 C 
HETATM    3  N   UNL     1     -42.484  56.583 -57.131  1.00  0.00    -0.324 N 
HETATM    4  H   UNL     1     -41.760  57.216 -57.457  1.00  0.00     0.169 HD
HETATM    5  O   UNL     1     -41.343  56.589 -55.210  1.00  0.00    -0.272 OA
BRANCH   3   6
HETATM    6  C   UNL     1     -43.459  56.265 -58.089  1.00  0.00     0.068 A 
HETATM    7  C   UNL     1     -44.368  57.274 -58.450  1.00  0.00     0.095 A 
HETATM    8  C   UNL     1     -45.304  57.062 -59.463  1.00  0.00     0.039 A 
HETATM    9  C   UNL     1     -45.347  55.830 -60.115  1.00  0.00     0.003 A 
HETATM   10  C   UNL     1     -44.445  54.826 -59.766  1.00  0.00     0.002 A 
HETATM   11  C   UNL     1     -43.497  55.043 -58.762  1.00  0.00     0.032 A 
BRANCH   7  12
HETATM   12  O   UNL     1     -44.282  58.477 -57.788  1.00  0.00    -0.354 OA
HETATM   13  C   UNL     1     -45.407  58.696 -56.934  1.00  0.00     0.210 C 
ENDBRANCH   7  12
ENDBRANCH   3   6
ENDBRANCH   1   2
BRANCH   1  14
HETATM   14  N   UNL     1     -43.480  54.646 -54.423  1.00  0.00    -0.283 NA
HETATM   15  H   UNL     1     -44.361  54.129 -54.433  1.00  0.00     0.128 HD
BRANCH  14  16
HETATM   16  C   UNL     1     -42.804  54.414 -53.214  1.00  0.00     0.019 A 
HETATM   17  C   UNL     1     -41.711  53.490 -53.194  1.00  0.00    -0.005 A 
HETATM   18  C   UNL     1     -41.030  53.239 -51.975  1.00  0.00    -0.024 A 
HETATM   19  C   UNL     1     -41.251  52.805 -54.345  1.00  0.00     0.014 A 
HETATM   20  C   UNL     1     -39.968  52.320 -51.936  1.00  0.00     0.012 A 
HETATM   21  C   UNL     1     -41.413  53.921 -50.813  1.00  0.00     0.012 A 
HETATM   22  C   UNL     1     -39.550  51.653 -53.086  1.00  0.00     0.001 A 
HETATM   23  C   UNL     1     -40.188  51.900 -54.293  1.00  0.00     0.001 A 
HETATM   24  C   UNL     1     -42.439  54.859 -50.848  1.00  0.00     0.003 A 
HETATM   25  C   UNL     1     -43.115  55.113 -52.039  1.00  0.00     0.024 A 
ENDBRANCH  14  16
ENDBRANCH   1  14
TORSDOF 5
ENDMDL
MODEL 10
REMARK VINA RESULT:      -7.2     14.097     15.687
REMARK  5 active torsions:
REMARK  status: ('A' for Active; 'I' for Inactive)
REMARK    1  A    between atoms: O_2  and  C_3 
REMARK    2  A    between atoms: C_4  and  N_5 
REMARK       I    between atoms: N_5  and  C_6 
REMARK    3  A    between atoms: C_6  and  C_7 
REMARK    4  A    between atoms: C_7  and  N_8 
REMARK    5  A    between atoms: N_8  and  C_9 
ROOT
HETATM    1  C   UNL     1     -37.478  41.154 -52.551  1.00  0.00     0.195 C 
ENDROOT
BRANCH   1   2
HETATM    2  C   UNL     1     -37.359  39.653 -52.247  1.00  0.00     0.235 C 
HETATM    3  N   UNL     1     -36.177  38.993 -52.415  1.00  0.00    -0.324 N 
HETATM    4  H   UNL     1     -36.076  38.201 -51.787  1.00  0.00     0.169 HD
HETATM    5  O   UNL     1     -38.276  39.070 -51.655  1.00  0.00    -0.272 OA
BRANCH   3   6
HETATM    6  C   UNL     1     -35.029  39.299 -53.161  1.00  0.00     0.068 A 
HETATM    7  C   UNL     1     -34.003  40.008 -52.512  1.00  0.00     0.095 A 
HETATM    8  C   UNL     1     -32.794  40.267 -53.160  1.00  0.00     0.039 A 
HETATM    9  C   UNL     1     -32.606  39.827 -54.470  1.00  0.00     0.003 A 
HETATM   10  C   UNL     1     -33.617  39.118 -55.118  1.00  0.00     0.002 A 
HETATM   11  C   UNL     1     -34.823  38.846 -54.465  1.00  0.00     0.032 A 
BRANCH   7  12
HETATM   12  O   UNL     1     -34.229  40.413 -51.217  1.00  0.00    -0.354 OA
HETATM   13  C   UNL     1     -34.224  41.837 -51.096  1.00  0.00     0.210 C 
ENDBRANCH   7  12
ENDBRANCH   3   6
ENDBRANCH   1   2
BRANCH   1  14
HETATM   14  N   UNL     1     -37.867  41.294 -53.959  1.00  0.00    -0.283 NA
HETATM   15  H   UNL     1     -38.427  40.495 -54.262  1.00  0.00     0.128 HD
BRANCH  14  16
HETATM   16  C   UNL     1     -36.947  41.638 -54.963  1.00  0.00     0.019 A 
HETATM   17  C   UNL     1     -37.236  41.290 -56.320  1.00  0.00    -0.005 A 
HETATM   18  C   UNL     1     -36.307  41.622 -57.340  1.00  0.00    -0.024 A 
HETATM   19  C   UNL     1     -38.424  40.630 -56.718  1.00  0.00     0.014 A 
HETATM   20  C   UNL     1     -36.568  41.269 -58.675  1.00  0.00     0.012 A 
HETATM   21  C   UNL     1     -35.134  42.314 -57.012  1.00  0.00     0.012 A 
HETATM   22  C   UNL     1     -37.743  40.608 -59.029  1.00  0.00     0.001 A 
HETATM   23  C   UNL     1     -38.674  40.293 -58.050  1.00  0.00     0.001 A 
HETATM   24  C   UNL     1     -34.883  42.700 -55.700  1.00  0.00     0.003 A 
HETATM   25  C   UNL     1     -35.788  42.378 -54.690  1.00  0.00     0.024 A 
ENDBRANCH  14  16
ENDBRANCH   1  14
TORSDOF 5
ENDMDL
