MODEL 1
REMARK VINA RESULT:      -7.6      0.000      0.000
REMARK  5 active torsions:
REMARK  status: ('A' for Active; 'I' for Inactive)
REMARK    1  A    between atoms: C_2  and  C_3 
REMARK    2  A    between atoms: C_3  and  O_4 
REMARK    3  A    between atoms: C_3  and  C_5 
REMARK    4  A    between atoms: N_8  and  C_10 
REMARK    5  A    between atoms: C_10  and  C_11 
ROOT
HETATM    1  C   UNL     1     -42.327  54.907 -54.409  1.00  0.00     0.022 C 
HETATM    2  C   UNL     1     -43.132  54.370 -55.604  1.00  0.00     0.035 C 
HETATM    3  C   UNL     1     -42.844  55.091 -56.912  1.00  0.00     0.235 C 
HETATM    4  N   UNL     1     -43.059  56.571 -56.746  1.00  0.00    -0.066 N 
HETATM    5  H   UNL     1     -44.075  56.703 -56.599  1.00  0.00     0.280 HD
HETATM    6  C   UNL     1     -42.301  57.181 -55.610  1.00  0.00     0.235 C 
HETATM    7  C   UNL     1     -42.565  56.425 -54.314  1.00  0.00     0.035 C 
ENDROOT
BRANCH   1   8
HETATM    8  C   UNL     1     -40.814  54.564 -54.424  1.00  0.00     0.155 C 
BRANCH   8   9
HETATM    9  C   UNL     1     -40.440  53.396 -53.532  1.00  0.00    -0.029 A 
HETATM   10  C   UNL     1     -40.415  53.511 -52.131  1.00  0.00     0.011 A 
HETATM   11  C   UNL     1     -40.062  52.420 -51.332  1.00  0.00     0.024 A 
HETATM   12  C   UNL     1     -39.735  51.204 -51.925  1.00  0.00     0.034 A 
HETATM   13  C   UNL     1     -39.756  51.070 -53.311  1.00  0.00     0.024 A 
HETATM   14 CL   UNL     1     -39.304  49.862 -50.940  1.00  0.00    -0.084 Cl
HETATM   15  C   UNL     1     -40.103  52.163 -54.110  1.00  0.00     0.011 A 
ENDBRANCH   8   9
BRANCH   8  16
HETATM   16  O   UNL     1     -40.357  54.335 -55.754  1.00  0.00    -0.391 OA
HETATM   17  H   UNL     1     -40.519  53.387 -55.937  1.00  0.00     0.210 HD
ENDBRANCH   8  16
ENDBRANCH   1   8
BRANCH   4  18
HETATM   18  C   UNL     1     -42.820  57.319 -58.049  1.00  0.00     0.295 C 
BRANCH  18  19
HETATM   19  C   UNL     1     -43.849  56.970 -59.078  1.00  0.00     0.081 A 
HETATM   20  N   UNL     1     -43.458  56.421 -60.241  1.00  0.00    -0.178 NA
HETATM   21  N   UNL     1     -44.617  56.234 -60.912  1.00  0.00    -0.289 N 
HETATM   22  H   UNL     1     -44.591  55.805 -61.833  1.00  0.00     0.188 HD
HETATM   23  C   UNL     1     -45.709  56.675 -60.223  1.00  0.00     0.111 A 
HETATM   24  C   UNL     1     -45.246  57.157 -59.024  1.00  0.00     0.049 A 
ENDBRANCH  18  19
ENDBRANCH   4  18
TORSDOF 5
ENDMDL
MODEL 2
REMARK VINA RESULT:      -7.6      2.728      4.710
REMARK  5 active torsions:
REMARK  status: ('A' for Active; 'I' for Inactive)
REMARK    1  A    between atoms: C_2  and  C_3 
REMARK    2  A    between atoms: C_3  and  O_4 
REMARK    3  A    between atoms: C_3  and  C_5 
REMARK    4  A    between atoms: N_8  and  C_10 
REMARK    5  A    between atoms: C_10  and  C_11 
ROOT
HETATM    1  C   UNL     1     -42.390  54.182 -55.018  1.00  0.00     0.022 C 
HETATM    2  C   UNL     1     -42.816  55.212 -56.077  1.00  0.00     0.035 C 
HETATM    3  C   UNL     1     -42.864  56.642 -55.560  1.00  0.00     0.235 C 
HETATM    4  N   UNL     1     -43.752  56.725 -54.348  1.00  0.00    -0.066 N 
HETATM    5  H   UNL     1     -44.714  56.540 -54.679  1.00  0.00     0.280 HD
HETATM    6  C   UNL     1     -43.400  55.762 -53.258  1.00  0.00     0.235 C 
HETATM    7  C   UNL     1     -43.315  54.340 -53.797  1.00  0.00     0.035 C 
ENDROOT
BRANCH   1   8
HETATM    8  C   UNL     1     -40.893  54.231 -54.614  1.00  0.00     0.155 C 
BRANCH   8   9
HETATM    9  C   UNL     1     -40.464  53.093 -53.710  1.00  0.00    -0.029 A 
HETATM   10  C   UNL     1     -40.186  51.809 -54.212  1.00  0.00     0.011 A 
HETATM   11  C   UNL     1     -39.796  50.777 -53.355  1.00  0.00     0.024 A 
HETATM   12  C   UNL     1     -39.675  51.017 -51.990  1.00  0.00     0.034 A 
HETATM   13  C   UNL     1     -39.944  52.282 -51.473  1.00  0.00     0.024 A 
HETATM   14 CL   UNL     1     -39.192  49.746 -50.938  1.00  0.00    -0.084 Cl
HETATM   15  C   UNL     1     -40.340  53.314 -52.329  1.00  0.00     0.011 A 
ENDBRANCH   8   9
BRANCH   8  16
HETATM   16  O   UNL     1     -40.057  54.289 -55.767  1.00  0.00    -0.391 OA
HETATM   17  H   UNL     1     -39.408  53.563 -55.667  1.00  0.00     0.210 HD
ENDBRANCH   8  16
ENDBRANCH   1   8
BRANCH   4  18
HETATM   18  C   UNL     1     -43.855  58.151 -53.829  1.00  0.00     0.295 C 
BRANCH  18  19
HETATM   19  C   UNL     1     -42.865  58.409 -52.736  1.00  0.00     0.081 A 
HETATM   20  N   UNL     1     -43.296  58.513 -51.467  1.00  0.00    -0.178 NA
HETATM   21  N   UNL     1     -42.163  58.733 -50.762  1.00  0.00    -0.289 N 
HETATM   22  H   UNL     1     -42.222  58.830 -49.752  1.00  0.00     0.188 HD
HETATM   23  C   UNL     1     -41.050  58.802 -51.548  1.00  0.00     0.111 A 
HETATM   24  C   UNL     1     -41.469  58.591 -52.838  1.00  0.00     0.049 A 
ENDBRANCH  18  19
ENDBRANCH   4  18
TORSDOF 5
ENDMDL
MODEL 3
REMARK VINA RESULT:      -7.4      2.048      2.310
REMARK  5 active torsions:
REMARK  status: ('A' for Active; 'I' for Inactive)
REMARK    1  A    between atoms: C_2  and  C_3 
REMARK    2  A    between atoms: C_3  and  O_4 
REMARK    3  A    between atoms: C_3  and  C_5 
REMARK    4  A    between atoms: N_8  and  C_10 
REMARK    5  A    between atoms: C_10  and  C_11 
ROOT
HETATM    1  C   UNL     1     -42.408  54.205 -55.158  1.00  0.00     0.022 C 
HETATM    2  C   UNL     1     -42.647  54.994 -56.456  1.00  0.00     0.035 C 
HETATM    3  C   UNL     1     -42.893  56.479 -56.236  1.00  0.00     0.235 C 
HETATM    4  N   UNL     1     -44.032  56.678 -55.273  1.00  0.00    -0.066 N 
HETATM    5  H   UNL     1     -44.884  56.346 -55.758  1.00  0.00     0.280 HD
HETATM    6  C   UNL     1     -43.876  55.953 -53.974  1.00  0.00     0.235 C 
HETATM    7  C   UNL     1     -43.589  54.476 -54.208  1.00  0.00     0.035 C 
ENDROOT
BRANCH   1   8
HETATM    8  C   UNL     1     -41.044  54.469 -54.467  1.00  0.00     0.155 C 
BRANCH   8   9
HETATM    9  C   UNL     1     -40.573  53.331 -53.583  1.00  0.00    -0.029 A 
HETATM   10  C   UNL     1     -40.490  53.461 -52.185  1.00  0.00     0.011 A 
HETATM   11  C   UNL     1     -40.048  52.398 -51.394  1.00  0.00     0.024 A 
HETATM   12  C   UNL     1     -39.690  51.192 -51.991  1.00  0.00     0.034 A 
HETATM   13  C   UNL     1     -39.767  51.042 -53.373  1.00  0.00     0.024 A 
HETATM   14 CL   UNL     1     -39.150  49.883 -51.015  1.00  0.00    -0.084 Cl
HETATM   15  C   UNL     1     -40.203  52.108 -54.165  1.00  0.00     0.011 A 
ENDBRANCH   8   9
BRANCH   8  16
HETATM   16  O   UNL     1     -40.042  54.796 -55.426  1.00  0.00    -0.391 OA
HETATM   17  H   UNL     1     -39.196  54.822 -54.935  1.00  0.00     0.210 HD
ENDBRANCH   8  16
ENDBRANCH   1   8
BRANCH   4  18
HETATM   18  C   UNL     1     -44.333  58.154 -55.062  1.00  0.00     0.295 C 
BRANCH  18  19
HETATM   19  C   UNL     1     -44.973  58.762 -56.271  1.00  0.00     0.081 A 
HETATM   20  N   UNL     1     -44.427  59.857 -56.826  1.00  0.00    -0.178 NA
HETATM   21  N   UNL     1     -45.238  60.122 -57.875  1.00  0.00    -0.289 N 
HETATM   22  H   UNL     1     -45.022  60.911 -58.478  1.00  0.00     0.188 HD
HETATM   23  C   UNL     1     -46.285  59.253 -57.972  1.00  0.00     0.111 A 
HETATM   24  C   UNL     1     -46.142  58.352 -56.947  1.00  0.00     0.049 A 
ENDBRANCH  18  19
ENDBRANCH   4  18
TORSDOF 5
ENDMDL
MODEL 4
REMARK VINA RESULT:      -7.2      3.036      4.281
REMARK  5 active torsions:
REMARK  status: ('A' for Active; 'I' for Inactive)
REMARK    1  A    between atoms: C_2  and  C_3 
REMARK    2  A    between atoms: C_3  and  O_4 
REMARK    3  A    between atoms: C_3  and  C_5 
REMARK    4  A    between atoms: N_8  and  C_10 
REMARK    5  A    between atoms: C_10  and  C_11 
ROOT
HETATM    1  C   UNL     1     -42.376  54.502 -54.587  1.00  0.00     0.022 C 
HETATM    2  C   UNL     1     -42.833  55.637 -55.519  1.00  0.00     0.035 C 
HETATM    3  C   UNL     1     -42.595  57.029 -54.954  1.00  0.00     0.235 C 
HETATM    4  N   UNL     1     -43.243  57.156 -53.602  1.00  0.00    -0.066 N 
HETATM    5  H   UNL     1     -44.264  57.116 -53.763  1.00  0.00     0.280 HD
HETATM    6  C   UNL     1     -42.844  56.097 -52.624  1.00  0.00     0.235 C 
HETATM    7  C   UNL     1     -43.047  54.708 -53.216  1.00  0.00     0.035 C 
ENDROOT
BRANCH   1   8
HETATM    8  C   UNL     1     -40.840  54.335 -54.453  1.00  0.00     0.155 C 
BRANCH   8   9
HETATM    9  C   UNL     1     -40.422  53.161 -53.589  1.00  0.00    -0.029 A 
HETATM   10  C   UNL     1     -40.175  51.889 -54.134  1.00  0.00     0.011 A 
HETATM   11  C   UNL     1     -39.796  50.823 -53.314  1.00  0.00     0.024 A 
HETATM   12  C   UNL     1     -39.656  51.019 -51.943  1.00  0.00     0.034 A 
HETATM   13  C   UNL     1     -39.894  52.272 -51.385  1.00  0.00     0.024 A 
HETATM   14 CL   UNL     1     -39.186  49.707 -50.936  1.00  0.00    -0.084 Cl
HETATM   15  C   UNL     1     -40.280  53.337 -52.204  1.00  0.00     0.011 A 
ENDBRANCH   8   9
BRANCH   8  16
HETATM   16  O   UNL     1     -40.224  54.248 -55.735  1.00  0.00    -0.391 OA
HETATM   17  H   UNL     1     -40.858  53.774 -56.309  1.00  0.00     0.210 HD
ENDBRANCH   8  16
ENDBRANCH   1   8
BRANCH   4  18
HETATM   18  C   UNL     1     -43.059  58.553 -53.025  1.00  0.00     0.295 C 
BRANCH  18  19
HETATM   19  C   UNL     1     -44.359  59.291 -52.954  1.00  0.00     0.081 A 
HETATM   20  N   UNL     1     -44.940  59.712 -54.091  1.00  0.00    -0.178 NA
HETATM   21  N   UNL     1     -46.072  60.318 -53.665  1.00  0.00    -0.289 N 
HETATM   22  H   UNL     1     -46.709  60.712 -54.353  1.00  0.00     0.188 HD
HETATM   23  C   UNL     1     -46.198  60.318 -52.307  1.00  0.00     0.111 A 
HETATM   24  C   UNL     1     -45.104  59.655 -51.812  1.00  0.00     0.049 A 
ENDBRANCH  18  19
ENDBRANCH   4  18
TORSDOF 5
ENDMDL
MODEL 5
REMARK VINA RESULT:      -7.2     15.297     18.045
REMARK  5 active torsions:
REMARK  status: ('A' for Active; 'I' for Inactive)
REMARK    1  A    between atoms: C_2  and  C_3 
REMARK    2  A    between atoms: C_3  and  O_4 
REMARK    3  A    between atoms: C_3  and  C_5 
REMARK    4  A    between atoms: N_8  and  C_10 
REMARK    5  A    between atoms: C_10  and  C_11 
ROOT
HETATM    1  C   UNL     1     -35.853  40.349 -53.034  1.00  0.00     0.022 C 
HETATM    2  C   UNL     1     -35.819  40.329 -51.497  1.00  0.00     0.035 C 
HETATM    3  C   UNL     1     -34.455  40.655 -50.907  1.00  0.00     0.235 C 
HETATM    4  N   UNL     1     -33.413  39.730 -51.475  1.00  0.00    -0.066 N 
HETATM    5  H   UNL     1     -33.631  38.786 -51.111  1.00  0.00     0.280 HD
HETATM    6  C   UNL     1     -33.366  39.695 -52.970  1.00  0.00     0.235 C 
HETATM    7  C   UNL     1     -34.746  39.410 -53.549  1.00  0.00     0.035 C 
ENDROOT
BRANCH   1   8
HETATM    8  C   UNL     1     -35.757  41.756 -53.678  1.00  0.00     0.155 C 
BRANCH   8   9
HETATM    9  C   UNL     1     -36.137  41.787 -55.146  1.00  0.00    -0.029 A 
HETATM   10  C   UNL     1     -37.439  41.487 -55.583  1.00  0.00     0.011 A 
HETATM   11  C   UNL     1     -37.761  41.518 -56.942  1.00  0.00     0.024 A 
HETATM   12  C   UNL     1     -36.787  41.854 -57.878  1.00  0.00     0.034 A 
HETATM   13  C   UNL     1     -35.492  42.156 -57.465  1.00  0.00     0.024 A 
HETATM   14 CL   UNL     1     -37.186  41.895 -59.550  1.00  0.00    -0.084 Cl
HETATM   15  C   UNL     1     -35.168  42.119 -56.106  1.00  0.00     0.011 A 
ENDBRANCH   8   9
BRANCH   8  16
HETATM   16  O   UNL     1     -36.531  42.705 -52.948  1.00  0.00    -0.391 OA
HETATM   17  H   UNL     1     -35.895  43.214 -52.407  1.00  0.00     0.210 HD
ENDBRANCH   8  16
ENDBRANCH   1   8
BRANCH   4  18
HETATM   18  C   UNL     1     -32.041  40.000 -50.875  1.00  0.00     0.295 C 
BRANCH  18  19
HETATM   19  C   UNL     1     -31.931  39.450 -49.488  1.00  0.00     0.081 A 
HETATM   20  N   UNL     1     -30.993  39.937 -48.657  1.00  0.00    -0.178 NA
HETATM   21  N   UNL     1     -31.181  39.236 -47.517  1.00  0.00    -0.289 N 
HETATM   22  H   UNL     1     -30.592  39.436 -46.712  1.00  0.00     0.188 HD
HETATM   23  C   UNL     1     -32.178  38.311 -47.617  1.00  0.00     0.111 A 
HETATM   24  C   UNL     1     -32.691  38.425 -48.885  1.00  0.00     0.049 A 
ENDBRANCH  18  19
ENDBRANCH   4  18
TORSDOF 5
ENDMDL
MODEL 6
REMARK VINA RESULT:      -7.1      1.937      2.484
REMARK  5 active torsions:
REMARK  status: ('A' for Active; 'I' for Inactive)
REMARK    1  A    between atoms: C_2  and  C_3 
REMARK    2  A    between atoms: C_3  and  O_4 
REMARK    3  A    between atoms: C_3  and  C_5 
REMARK    4  A    between atoms: N_8  and  C_10 
REMARK    5  A    between atoms: C_10  and  C_11 
ROOT
HETATM    1  C   UNL     1     -43.440  56.691 -54.029  1.00  0.00     0.022 C 
HETATM    2  C   UNL     1     -44.682  57.515 -54.409  1.00  0.00     0.035 C 
HETATM    3  C   UNL     1     -44.771  57.844 -55.892  1.00  0.00     0.235 C 
HETATM    4  N   UNL     1     -43.513  58.536 -56.344  1.00  0.00    -0.066 N 
HETATM    5  H   UNL     1     -43.503  59.459 -55.876  1.00  0.00     0.280 HD
HETATM    6  C   UNL     1     -42.253  57.795 -56.025  1.00  0.00     0.235 C 
HETATM    7  C   UNL     1     -42.195  57.435 -54.546  1.00  0.00     0.035 C 
ENDROOT
BRANCH   1   8
HETATM    8  C   UNL     1     -43.461  55.213 -54.497  1.00  0.00     0.155 C 
BRANCH   8   9
HETATM    9  C   UNL     1     -42.403  54.346 -53.841  1.00  0.00    -0.029 A 
HETATM   10  C   UNL     1     -42.266  54.272 -52.444  1.00  0.00     0.011 A 
HETATM   11  C   UNL     1     -41.279  53.469 -51.865  1.00  0.00     0.024 A 
HETATM   12  C   UNL     1     -40.424  52.729 -52.676  1.00  0.00     0.034 A 
HETATM   13  C   UNL     1     -40.545  52.787 -54.062  1.00  0.00     0.024 A 
HETATM   14 CL   UNL     1     -39.213  51.739 -51.962  1.00  0.00    -0.084 Cl
HETATM   15  C   UNL     1     -41.528  53.595 -54.641  1.00  0.00     0.011 A 
ENDBRANCH   8   9
BRANCH   8  16
HETATM   16  O   UNL     1     -44.752  54.638 -54.315  1.00  0.00    -0.391 OA
HETATM   17  H   UNL     1     -44.629  53.885 -53.703  1.00  0.00     0.210 HD
ENDBRANCH   8  16
ENDBRANCH   1   8
BRANCH   4  18
HETATM   18  C   UNL     1     -43.585  58.917 -57.815  1.00  0.00     0.295 C 
BRANCH  18  19
HETATM   19  C   UNL     1     -42.985  57.858 -58.686  1.00  0.00     0.081 A 
HETATM   20  N   UNL     1     -41.845  58.118 -59.350  1.00  0.00    -0.178 NA
HETATM   21  N   UNL     1     -41.593  56.967 -60.014  1.00  0.00    -0.289 N 
HETATM   22  H   UNL     1     -40.756  56.902 -60.587  1.00  0.00     0.188 HD
HETATM   23  C   UNL     1     -42.549  56.015 -59.813  1.00  0.00     0.111 A 
HETATM   24  C   UNL     1     -43.468  56.559 -58.951  1.00  0.00     0.049 A 
ENDBRANCH  18  19
ENDBRANCH   4  18
TORSDOF 5
ENDMDL
MODEL 7
REMARK VINA RESULT:      -7.1      2.065      2.559
REMARK  5 active torsions:
REMARK  status: ('A' for Active; 'I' for Inactive)
REMARK    1  A    between atoms: C_2  and  C_3 
REMARK    2  A    between atoms: C_3  and  O_4 
REMARK    3  A    between atoms: C_3  and  C_5 
REMARK    4  A    between atoms: N_8  and  C_10 
REMARK    5  A    between atoms: C_10  and  C_11 
ROOT
HETATM    1  C   UNL     1     -41.201  56.008 -52.933  1.00  0.00     0.022 C 
HETATM    2  C   UNL     1     -42.036  57.297 -52.846  1.00  0.00     0.035 C 
HETATM    3  C   UNL     1     -43.119  57.401 -53.909  1.00  0.00     0.235 C 
HETATM    4  N   UNL     1     -42.514  57.248 -55.279  1.00  0.00    -0.066 N 
HETATM    5  H   UNL     1     -41.924  58.084 -55.431  1.00  0.00     0.280 HD
HETATM    6  C   UNL     1     -41.693  56.011 -55.457  1.00  0.00     0.235 C 
HETATM    7  C   UNL     1     -40.640  55.897 -54.362  1.00  0.00     0.035 C 
ENDROOT
BRANCH   1   8
HETATM    8  C   UNL     1     -41.940  54.713 -52.504  1.00  0.00     0.155 C 
BRANCH   8   9
HETATM    9  C   UNL     1     -41.190  53.438 -52.840  1.00  0.00    -0.029 A 
HETATM   10  C   UNL     1     -40.225  52.895 -51.975  1.00  0.00     0.011 A 
HETATM   11  C   UNL     1     -39.545  51.721 -52.312  1.00  0.00     0.024 A 
HETATM   12  C   UNL     1     -39.826  51.077 -53.513  1.00  0.00     0.034 A 
HETATM   13  C   UNL     1     -40.780  51.599 -54.383  1.00  0.00     0.024 A 
HETATM   14 CL   UNL     1     -38.991  49.632 -53.924  1.00  0.00    -0.084 Cl
HETATM   15  C   UNL     1     -41.456  52.777 -54.049  1.00  0.00     0.011 A 
ENDBRANCH   8   9
BRANCH   8  16
HETATM   16  O   UNL     1     -42.261  54.745 -51.116  1.00  0.00    -0.391 OA
HETATM   17  H   UNL     1     -42.018  53.866 -50.762  1.00  0.00     0.210 HD
ENDBRANCH   8  16
ENDBRANCH   1   8
BRANCH   4  18
HETATM   18  C   UNL     1     -43.565  57.389 -56.371  1.00  0.00     0.295 C 
BRANCH  18  19
HETATM   19  C   UNL     1     -42.979  57.155 -57.728  1.00  0.00     0.081 A 
HETATM   20  N   UNL     1     -42.058  58.010 -58.205  1.00  0.00    -0.178 NA
HETATM   21  N   UNL     1     -41.750  57.504 -59.420  1.00  0.00    -0.289 N 
HETATM   22  H   UNL     1     -41.047  57.971 -59.986  1.00  0.00     0.188 HD
HETATM   23  C   UNL     1     -42.468  56.385 -59.729  1.00  0.00     0.111 A 
HETATM   24  C   UNL     1     -43.274  56.127 -58.649  1.00  0.00     0.049 A 
ENDBRANCH  18  19
ENDBRANCH   4  18
TORSDOF 5
ENDMDL
MODEL 8
REMARK VINA RESULT:      -7.1      4.905      6.477
REMARK  5 active torsions:
REMARK  status: ('A' for Active; 'I' for Inactive)
REMARK    1  A    between atoms: C_2  and  C_3 
REMARK    2  A    between atoms: C_3  and  O_4 
REMARK    3  A    between atoms: C_3  and  C_5 
REMARK    4  A    between atoms: N_8  and  C_10 
REMARK    5  A    between atoms: C_10  and  C_11 
ROOT
HETATM    1  C   UNL     1     -41.628  55.702 -51.154  1.00  0.00     0.022 C 
HETATM    2  C   UNL     1     -43.107  55.615 -50.742  1.00  0.00     0.035 C 
HETATM    3  C   UNL     1     -43.965  56.746 -51.289  1.00  0.00     0.235 C 
HETATM    4  N   UNL     1     -43.379  58.076 -50.897  1.00  0.00    -0.066 N 
HETATM    5  H   UNL     1     -43.483  58.149 -49.871  1.00  0.00     0.280 HD
HETATM    6  C   UNL     1     -41.942  58.252 -51.273  1.00  0.00     0.235 C 
HETATM    7  C   UNL     1     -41.100  57.093 -50.755  1.00  0.00     0.035 C 
ENDROOT
BRANCH   1   8
HETATM    8  C   UNL     1     -41.338  55.385 -52.645  1.00  0.00     0.155 C 
BRANCH   8   9
HETATM    9  C   UNL     1     -40.824  53.979 -52.885  1.00  0.00    -0.029 A 
HETATM   10  C   UNL     1     -40.240  53.217 -51.858  1.00  0.00     0.011 A 
HETATM   11  C   UNL     1     -39.769  51.925 -52.108  1.00  0.00     0.024 A 
HETATM   12  C   UNL     1     -39.883  51.380 -53.384  1.00  0.00     0.034 A 
HETATM   13  C   UNL     1     -40.460  52.119 -54.414  1.00  0.00     0.024 A 
HETATM   14 CL   UNL     1     -39.307  49.789 -53.689  1.00  0.00    -0.084 Cl
HETATM   15  C   UNL     1     -40.925  53.414 -54.165  1.00  0.00     0.011 A 
ENDBRANCH   8   9
BRANCH   8  16
HETATM   16  O   UNL     1     -42.486  55.635 -53.451  1.00  0.00    -0.391 OA
HETATM   17  H   UNL     1     -43.256  55.335 -52.927  1.00  0.00     0.210 HD
ENDBRANCH   8  16
ENDBRANCH   1   8
BRANCH   4  18
HETATM   18  C   UNL     1     -44.237  59.230 -51.394  1.00  0.00     0.295 C 
BRANCH  18  19
HETATM   19  C   UNL     1     -44.548  60.195 -50.293  1.00  0.00     0.081 A 
HETATM   20  N   UNL     1     -45.747  60.141 -49.688  1.00  0.00    -0.178 NA
HETATM   21  N   UNL     1     -45.683  61.124 -48.762  1.00  0.00    -0.289 N 
HETATM   22  H   UNL     1     -46.479  61.276 -48.149  1.00  0.00     0.188 HD
HETATM   23  C   UNL     1     -44.503  61.808 -48.792  1.00  0.00     0.111 A 
HETATM   24  C   UNL     1     -43.739  61.227 -49.772  1.00  0.00     0.049 A 
ENDBRANCH  18  19
ENDBRANCH   4  18
TORSDOF 5
ENDMDL
MODEL 9
REMARK VINA RESULT:      -7.1      4.236      6.052
REMARK  5 active torsions:
REMARK  status: ('A' for Active; 'I' for Inactive)
REMARK    1  A    between atoms: C_2  and  C_3 
REMARK    2  A    between atoms: C_3  and  O_4 
REMARK    3  A    between atoms: C_3  and  C_5 
REMARK    4  A    between atoms: N_8  and  C_10 
REMARK    5  A    between atoms: C_10  and  C_11 
ROOT
HETATM    1  C   UNL     1     -41.267  56.072 -52.502  1.00  0.00     0.022 C 
HETATM    2  C   UNL     1     -41.331  57.369 -51.679  1.00  0.00     0.035 C 
HETATM    3  C   UNL     1     -42.733  57.734 -51.215  1.00  0.00     0.235 C 
HETATM    4  N   UNL     1     -43.666  57.804 -52.394  1.00  0.00    -0.066 N 
HETATM    5  H   UNL     1     -43.363  58.617 -52.957  1.00  0.00     0.280 HD
HETATM    6  C   UNL     1     -43.677  56.575 -53.246  1.00  0.00     0.235 C 
HETATM    7  C   UNL     1     -42.264  56.196 -53.670  1.00  0.00     0.035 C 
ENDROOT
BRANCH   1   8
HETATM    8  C   UNL     1     -41.489  54.766 -51.695  1.00  0.00     0.155 C 
BRANCH   8   9
HETATM    9  C   UNL     1     -40.915  53.529 -52.359  1.00  0.00    -0.029 A 
HETATM   10  C   UNL     1     -39.982  52.703 -51.708  1.00  0.00     0.011 A 
HETATM   11  C   UNL     1     -39.465  51.571 -52.345  1.00  0.00     0.024 A 
HETATM   12  C   UNL     1     -39.879  51.251 -53.635  1.00  0.00     0.034 A 
HETATM   13  C   UNL     1     -40.804  52.057 -54.295  1.00  0.00     0.024 A 
HETATM   14 CL   UNL     1     -39.245  49.857 -54.415  1.00  0.00    -0.084 Cl
HETATM   15  C   UNL     1     -41.316  53.192 -53.661  1.00  0.00     0.011 A 
ENDBRANCH   8   9
BRANCH   8  16
HETATM   16  O   UNL     1     -40.983  54.895 -50.369  1.00  0.00    -0.391 OA
HETATM   17  H   UNL     1     -40.623  54.017 -50.130  1.00  0.00     0.210 HD
ENDBRANCH   8  16
ENDBRANCH   1   8
BRANCH   4  18
HETATM   18  C   UNL     1     -45.070  58.208 -51.970  1.00  0.00     0.295 C 
BRANCH  18  19
HETATM   19  C   UNL     1     -45.040  59.264 -50.910  1.00  0.00     0.081 A 
HETATM   20  N   UNL     1     -45.753  59.088 -49.784  1.00  0.00    -0.178 NA
HETATM   21  N   UNL     1     -45.494  60.203 -49.064  1.00  0.00    -0.289 N 
HETATM   22  H   UNL     1     -45.911  60.303 -48.142  1.00  0.00     0.188 HD
HETATM   23  C   UNL     1     -44.674  61.079 -49.713  1.00  0.00     0.111 A 
HETATM   24  C   UNL     1     -44.356  60.498 -50.916  1.00  0.00     0.049 A 
ENDBRANCH  18  19
ENDBRANCH   4  18
TORSDOF 5
ENDMDL
MODEL 10
REMARK VINA RESULT:      -6.8     14.545     15.743
REMARK  5 active torsions:
REMARK  status: ('A' for Active; 'I' for Inactive)
REMARK    1  A    between atoms: C_2  and  C_3 
REMARK    2  A    between atoms: C_3  and  O_4 
REMARK    3  A    between atoms: C_3  and  C_5 
REMARK    4  A    between atoms: N_8  and  C_10 
REMARK    5  A    between atoms: C_10  and  C_11 
ROOT
HETATM    1  C   UNL     1     -34.677  41.262 -54.403  1.00  0.00     0.022 C 
HETATM    2  C   UNL     1     -34.909  42.234 -55.572  1.00  0.00     0.035 C 
HETATM    3  C   UNL     1     -36.302  42.148 -56.176  1.00  0.00     0.235 C 
HETATM    4  N   UNL     1     -36.598  40.732 -56.593  1.00  0.00    -0.066 N 
HETATM    5  H   UNL     1     -35.963  40.522 -57.382  1.00  0.00     0.280 HD
HETATM    6  C   UNL     1     -36.411  39.718 -55.510  1.00  0.00     0.235 C 
HETATM    7  C   UNL     1     -35.027  39.842 -54.885  1.00  0.00     0.035 C 
ENDROOT
BRANCH   1   8
HETATM    8  C   UNL     1     -35.419  41.621 -53.089  1.00  0.00     0.155 C 
BRANCH   8   9
HETATM    9  C   UNL     1     -34.930  40.851 -51.878  1.00  0.00    -0.029 A 
HETATM   10  C   UNL     1     -33.631  41.018 -51.367  1.00  0.00     0.011 A 
HETATM   11  C   UNL     1     -33.204  40.292 -50.252  1.00  0.00     0.024 A 
HETATM   12  C   UNL     1     -34.072  39.397 -49.633  1.00  0.00     0.034 A 
HETATM   13  C   UNL     1     -35.363  39.219 -50.123  1.00  0.00     0.024 A 
HETATM   14 CL   UNL     1     -33.546  38.508 -48.259  1.00  0.00    -0.084 Cl
HETATM   15  C   UNL     1     -35.788  39.940 -51.242  1.00  0.00     0.011 A 
ENDBRANCH   8   9
BRANCH   8  16
HETATM   16  O   UNL     1     -35.363  43.022 -52.839  1.00  0.00    -0.391 OA
HETATM   17  H   UNL     1     -34.757  43.138 -52.080  1.00  0.00     0.210 HD
ENDBRANCH   8  16
ENDBRANCH   1   8
BRANCH   4  18
HETATM   18  C   UNL     1     -37.970  40.618 -57.241  1.00  0.00     0.295 C 
BRANCH  18  19
HETATM   19  C   UNL     1     -37.864  40.257 -58.690  1.00  0.00     0.081 A 
HETATM   20  N   UNL     1     -37.238  41.095 -59.533  1.00  0.00    -0.178 NA
HETATM   21  N   UNL     1     -37.319  40.467 -60.728  1.00  0.00    -0.289 N 
HETATM   22  H   UNL     1     -36.893  40.900 -61.543  1.00  0.00     0.188 HD
HETATM   23  C   UNL     1     -38.000  39.286 -60.664  1.00  0.00     0.111 A 
HETATM   24  C   UNL     1     -38.365  39.116 -59.352  1.00  0.00     0.049 A 
ENDBRANCH  18  19
ENDBRANCH   4  18
TORSDOF 5
ENDMDL
