MODEL 1
REMARK VINA RESULT:      -8.8      0.000      0.000
REMARK  2 active torsions:
REMARK  status: ('A' for Active; 'I' for Inactive)
REMARK    1  A    between atoms: C_9  and  C_10 
REMARK       I    between atoms: C_10  and  N_11 
REMARK    2  A    between atoms: N_11  and  C_12 
ROOT
HETATM    1  C   UNL     1     -42.524  54.993 -55.813  1.00  0.00     0.277 C 
HETATM    2  N   UNL     1     -41.381  55.071 -55.038  1.00  0.00    -0.322 N 
HETATM    3  O   UNL     1     -43.331  54.071 -55.828  1.00  0.00    -0.266 OA
HETATM    4  H   UNL     1     -40.851  55.925 -55.199  1.00  0.00     0.169 HD
ENDROOT
BRANCH   1   5
HETATM    5  C   UNL     1     -42.680  56.186 -56.668  1.00  0.00     0.157 A 
HETATM    6  C   UNL     1     -43.257  56.254 -57.971  1.00  0.00     0.029 A 
HETATM    7  C   UNL     1     -43.833  55.339 -58.875  1.00  0.00     0.023 A 
HETATM    8  C   UNL     1     -43.167  57.590 -58.338  1.00  0.00     0.063 A 
HETATM    9  C   UNL     1     -44.296  55.795 -60.121  1.00  0.00    -0.061 A 
HETATM   10  C   UNL     1     -44.904  54.837 -61.103  1.00  0.00     0.048 C 
HETATM   11  C   UNL     1     -44.193  57.153 -60.448  1.00  0.00     0.009 A 
HETATM   12  C   UNL     1     -43.627  58.079 -59.563  1.00  0.00     0.032 A 
HETATM   13  N   UNL     1     -42.569  58.216 -57.279  1.00  0.00    -0.277 N 
HETATM   14  H   UNL     1     -42.347  59.201 -57.198  1.00  0.00     0.189 HD
HETATM   15  N   UNL     1     -42.248  57.402 -56.257  1.00  0.00    -0.168 NA
ENDBRANCH   1   5
BRANCH   2  16
HETATM   16  C   UNL     1     -40.883  54.144 -54.110  1.00  0.00     0.037 A 
HETATM   17  C   UNL     1     -40.289  52.930 -54.461  1.00  0.00     0.069 A 
HETATM   18  C   UNL     1     -39.837  52.052 -53.469  1.00  0.00     0.104 A 
HETATM   19  C   UNL     1     -39.946  52.398 -52.121  1.00  0.00     0.102 A 
HETATM   20  O   UNL     1     -39.208  50.914 -53.895  1.00  0.00    -0.348 OA
HETATM   21  O   UNL     1     -39.431  51.638 -51.107  1.00  0.00    -0.348 OA
HETATM   22  C   UNL     1     -40.507  53.621 -51.765  1.00  0.00     0.042 A 
HETATM   23  C   UNL     1     -40.055  50.357 -51.023  1.00  0.00     0.178 C 
HETATM   24  C   UNL     1     -39.477  49.369 -52.024  1.00  0.00     0.053 C 
HETATM   25  C   UNL     1     -39.873  49.733 -53.446  1.00  0.00     0.178 C 
HETATM   26  C   UNL     1     -40.990  54.482 -52.754  1.00  0.00     0.032 A 
ENDBRANCH   2  16
TORSDOF 2
ENDMDL
MODEL 2
REMARK VINA RESULT:      -8.8      2.344      8.118
REMARK  2 active torsions:
REMARK  status: ('A' for Active; 'I' for Inactive)
REMARK    1  A    between atoms: C_9  and  C_10 
REMARK       I    between atoms: C_10  and  N_11 
REMARK    2  A    between atoms: N_11  and  C_12 
ROOT
HETATM    1  C   UNL     1     -41.102  55.435 -53.677  1.00  0.00     0.277 C 
HETATM    2  N   UNL     1     -42.299  55.158 -54.313  1.00  0.00    -0.322 N 
HETATM    3  O   UNL     1     -40.321  56.337 -53.959  1.00  0.00    -0.266 OA
HETATM    4  H   UNL     1     -42.780  54.352 -53.919  1.00  0.00     0.169 HD
ENDROOT
BRANCH   1   5
HETATM    5  C   UNL     1     -40.842  54.486 -52.577  1.00  0.00     0.157 A 
HETATM    6  C   UNL     1     -40.426  53.125 -52.682  1.00  0.00     0.029 A 
HETATM    7  C   UNL     1     -40.136  52.230 -53.731  1.00  0.00     0.023 A 
HETATM    8  C   UNL     1     -40.322  52.677 -51.372  1.00  0.00     0.063 A 
HETATM    9  C   UNL     1     -39.755  50.911 -53.431  1.00  0.00    -0.061 A 
HETATM   10  C   UNL     1     -39.451  49.938 -54.532  1.00  0.00     0.048 C 
HETATM   11  C   UNL     1     -39.655  50.503 -52.094  1.00  0.00     0.009 A 
HETATM   12  C   UNL     1     -39.935  51.377 -51.037  1.00  0.00     0.032 A 
HETATM   13  N   UNL     1     -40.666  53.748 -50.594  1.00  0.00    -0.277 N 
HETATM   14  H   UNL     1     -40.698  53.783 -49.582  1.00  0.00     0.189 HD
HETATM   15  N   UNL     1     -40.999  54.855 -51.284  1.00  0.00    -0.168 NA
ENDBRANCH   1   5
BRANCH   2  16
HETATM   16  C   UNL     1     -42.892  55.820 -55.399  1.00  0.00     0.037 A 
HETATM   17  C   UNL     1     -42.750  55.421 -56.729  1.00  0.00     0.069 A 
HETATM   18  C   UNL     1     -43.359  56.152 -57.755  1.00  0.00     0.104 A 
HETATM   19  C   UNL     1     -44.143  57.268 -57.454  1.00  0.00     0.102 A 
HETATM   20  O   UNL     1     -43.226  55.659 -59.025  1.00  0.00    -0.348 OA
HETATM   21  O   UNL     1     -44.851  57.963 -58.395  1.00  0.00    -0.348 OA
HETATM   22  C   UNL     1     -44.316  57.652 -56.128  1.00  0.00     0.042 A 
HETATM   23  C   UNL     1     -44.001  58.585 -59.358  1.00  0.00     0.178 C 
HETATM   24  C   UNL     1     -43.558  57.618 -60.444  1.00  0.00     0.053 C 
HETATM   25  C   UNL     1     -42.582  56.588 -59.897  1.00  0.00     0.178 C 
HETATM   26  C   UNL     1     -43.679  56.942 -55.107  1.00  0.00     0.032 A 
ENDBRANCH   2  16
TORSDOF 2
ENDMDL
MODEL 3
REMARK VINA RESULT:      -8.6      2.362      8.394
REMARK  2 active torsions:
REMARK  status: ('A' for Active; 'I' for Inactive)
REMARK    1  A    between atoms: C_9  and  C_10 
REMARK       I    between atoms: C_10  and  N_11 
REMARK    2  A    between atoms: N_11  and  C_12 
ROOT
HETATM    1  C   UNL     1     -42.789  55.154 -54.348  1.00  0.00     0.277 C 
HETATM    2  N   UNL     1     -42.053  55.680 -55.395  1.00  0.00    -0.322 N 
HETATM    3  O   UNL     1     -44.011  55.080 -54.284  1.00  0.00    -0.266 OA
HETATM    4  H   UNL     1     -41.049  55.650 -55.227  1.00  0.00     0.169 HD
ENDROOT
BRANCH   1   5
HETATM    5  C   UNL     1     -41.915  54.675 -53.260  1.00  0.00     0.157 A 
HETATM    6  C   UNL     1     -41.149  53.471 -53.225  1.00  0.00     0.029 A 
HETATM    7  C   UNL     1     -40.938  52.377 -54.088  1.00  0.00     0.023 A 
HETATM    8  C   UNL     1     -40.505  53.487 -51.996  1.00  0.00     0.063 A 
HETATM    9  C   UNL     1     -40.090  51.331 -53.686  1.00  0.00    -0.061 A 
HETATM   10  C   UNL     1     -39.859  50.151 -54.584  1.00  0.00     0.048 C 
HETATM   11  C   UNL     1     -39.454  51.391 -52.439  1.00  0.00     0.009 A 
HETATM   12  C   UNL     1     -39.647  52.470 -51.569  1.00  0.00     0.032 A 
HETATM   13  N   UNL     1     -40.904  54.648 -51.393  1.00  0.00    -0.277 N 
HETATM   14  H   UNL     1     -40.627  54.989 -50.480  1.00  0.00     0.189 HD
HETATM   15  N   UNL     1     -41.765  55.386 -52.118  1.00  0.00    -0.168 NA
ENDBRANCH   1   5
BRANCH   2  16
HETATM   16  C   UNL     1     -42.509  56.237 -56.599  1.00  0.00     0.037 A 
HETATM   17  C   UNL     1     -42.491  57.604 -56.883  1.00  0.00     0.069 A 
HETATM   18  C   UNL     1     -42.987  58.078 -58.102  1.00  0.00     0.104 A 
HETATM   19  C   UNL     1     -43.473  57.185 -59.060  1.00  0.00     0.102 A 
HETATM   20  O   UNL     1     -42.873  59.423 -58.331  1.00  0.00    -0.348 OA
HETATM   21  O   UNL     1     -43.872  57.569 -60.310  1.00  0.00    -0.348 OA
HETATM   22  C   UNL     1     -43.464  55.819 -58.797  1.00  0.00     0.042 A 
HETATM   23  C   UNL     1     -45.005  58.437 -60.271  1.00  0.00     0.178 C 
HETATM   24  C   UNL     1     -44.616  59.878 -59.980  1.00  0.00     0.053 C 
HETATM   25  C   UNL     1     -44.143  60.040 -58.544  1.00  0.00     0.178 C 
HETATM   26  C   UNL     1     -43.001  55.349 -57.565  1.00  0.00     0.032 A 
ENDBRANCH   2  16
TORSDOF 2
ENDMDL
MODEL 4
REMARK VINA RESULT:      -8.0      1.848      1.986
REMARK  2 active torsions:
REMARK  status: ('A' for Active; 'I' for Inactive)
REMARK    1  A    between atoms: C_9  and  C_10 
REMARK       I    between atoms: C_10  and  N_11 
REMARK    2  A    between atoms: N_11  and  C_12 
ROOT
HETATM    1  C   UNL     1     -42.467  56.357 -54.550  1.00  0.00     0.277 C 
HETATM    2  N   UNL     1     -42.624  54.989 -54.416  1.00  0.00    -0.322 N 
HETATM    3  O   UNL     1     -41.549  57.031 -54.098  1.00  0.00    -0.266 OA
HETATM    4  H   UNL     1     -43.470  54.642 -54.863  1.00  0.00     0.169 HD
ENDROOT
BRANCH   1   5
HETATM    5  C   UNL     1     -43.573  56.955 -55.323  1.00  0.00     0.157 A 
HETATM    6  C   UNL     1     -43.568  57.335 -56.698  1.00  0.00     0.029 A 
HETATM    7  C   UNL     1     -42.635  57.313 -57.754  1.00  0.00     0.023 A 
HETATM    8  C   UNL     1     -44.839  57.839 -56.939  1.00  0.00     0.063 A 
HETATM    9  C   UNL     1     -43.005  57.804 -59.017  1.00  0.00    -0.061 A 
HETATM   10  C   UNL     1     -42.024  57.800 -60.153  1.00  0.00     0.048 C 
HETATM   11  C   UNL     1     -44.301  58.298 -59.219  1.00  0.00     0.009 A 
HETATM   12  C   UNL     1     -45.244  58.325 -58.185  1.00  0.00     0.032 A 
HETATM   13  N   UNL     1     -45.501  57.737 -55.747  1.00  0.00    -0.277 N 
HETATM   14  H   UNL     1     -46.457  58.010 -55.555  1.00  0.00     0.189 HD
HETATM   15  N   UNL     1     -44.768  57.220 -54.744  1.00  0.00    -0.168 NA
ENDBRANCH   1   5
BRANCH   2  16
HETATM   16  C   UNL     1     -41.797  54.070 -53.753  1.00  0.00     0.037 A 
HETATM   17  C   UNL     1     -41.122  53.026 -54.389  1.00  0.00     0.069 A 
HETATM   18  C   UNL     1     -40.334  52.139 -53.648  1.00  0.00     0.104 A 
HETATM   19  C   UNL     1     -40.188  52.311 -52.270  1.00  0.00     0.102 A 
HETATM   20  O   UNL     1     -39.653  51.184 -54.354  1.00  0.00    -0.348 OA
HETATM   21  O   UNL     1     -39.351  51.548 -51.503  1.00  0.00    -0.348 OA
HETATM   22  C   UNL     1     -40.832  53.368 -51.634  1.00  0.00     0.042 A 
HETATM   23  C   UNL     1     -39.742  50.175 -51.481  1.00  0.00     0.178 C 
HETATM   24  C   UNL     1     -39.262  49.421 -52.711  1.00  0.00     0.053 C 
HETATM   25  C   UNL     1     -40.016  49.863 -53.955  1.00  0.00     0.178 C 
HETATM   26  C   UNL     1     -41.647  54.233 -52.369  1.00  0.00     0.032 A 
ENDBRANCH   2  16
TORSDOF 2
ENDMDL
MODEL 5
REMARK VINA RESULT:      -8.0      5.504      8.696
REMARK  2 active torsions:
REMARK  status: ('A' for Active; 'I' for Inactive)
REMARK    1  A    between atoms: C_9  and  C_10 
REMARK       I    between atoms: C_10  and  N_11 
REMARK    2  A    between atoms: N_11  and  C_12 
ROOT
HETATM    1  C   UNL     1     -41.741  56.856 -52.451  1.00  0.00     0.277 C 
HETATM    2  N   UNL     1     -42.990  57.374 -52.746  1.00  0.00    -0.322 N 
HETATM    3  O   UNL     1     -41.039  57.153 -51.491  1.00  0.00    -0.266 OA
HETATM    4  H   UNL     1     -43.386  56.990 -53.601  1.00  0.00     0.169 HD
ENDROOT
BRANCH   1   5
HETATM    5  C   UNL     1     -41.316  55.865 -53.458  1.00  0.00     0.157 A 
HETATM    6  C   UNL     1     -40.846  54.537 -53.229  1.00  0.00     0.029 A 
HETATM    7  C   UNL     1     -40.613  53.724 -52.102  1.00  0.00     0.023 A 
HETATM    8  C   UNL     1     -40.581  54.024 -54.491  1.00  0.00     0.063 A 
HETATM    9  C   UNL     1     -40.115  52.421 -52.279  1.00  0.00    -0.061 A 
HETATM   10  C   UNL     1     -39.850  51.541 -51.094  1.00  0.00     0.048 C 
HETATM   11  C   UNL     1     -39.867  51.941 -53.572  1.00  0.00     0.009 A 
HETATM   12  C   UNL     1     -40.096  52.731 -54.704  1.00  0.00     0.032 A 
HETATM   13  N   UNL     1     -40.893  55.030 -55.364  1.00  0.00    -0.277 N 
HETATM   14  H   UNL     1     -40.823  55.006 -56.374  1.00  0.00     0.189 HD
HETATM   15  N   UNL     1     -41.327  56.161 -54.779  1.00  0.00    -0.168 NA
ENDBRANCH   1   5
BRANCH   2  16
HETATM   16  C   UNL     1     -43.732  58.335 -52.042  1.00  0.00     0.037 A 
HETATM   17  C   UNL     1     -43.405  59.691 -51.991  1.00  0.00     0.069 A 
HETATM   18  C   UNL     1     -44.188  60.580 -51.247  1.00  0.00     0.104 A 
HETATM   19  C   UNL     1     -45.325  60.123 -50.577  1.00  0.00     0.102 A 
HETATM   20  O   UNL     1     -43.839  61.902 -51.301  1.00  0.00    -0.348 OA
HETATM   21  O   UNL     1     -46.193  60.952 -49.921  1.00  0.00    -0.348 OA
HETATM   22  C   UNL     1     -45.676  58.779 -50.650  1.00  0.00     0.042 A 
HETATM   23  C   UNL     1     -45.576  61.613 -48.816  1.00  0.00     0.178 C 
HETATM   24  C   UNL     1     -44.778  62.832 -49.249  1.00  0.00     0.053 C 
HETATM   25  C   UNL     1     -43.526  62.427 -50.011  1.00  0.00     0.178 C 
HETATM   26  C   UNL     1     -44.873  57.886 -51.365  1.00  0.00     0.032 A 
ENDBRANCH   2  16
TORSDOF 2
ENDMDL
MODEL 6
REMARK VINA RESULT:      -8.0      2.858      8.542
REMARK  2 active torsions:
REMARK  status: ('A' for Active; 'I' for Inactive)
REMARK    1  A    between atoms: C_9  and  C_10 
REMARK       I    between atoms: C_10  and  N_11 
REMARK    2  A    between atoms: N_11  and  C_12 
ROOT
HETATM    1  C   UNL     1     -41.727  57.022 -53.375  1.00  0.00     0.277 C 
HETATM    2  N   UNL     1     -42.745  56.371 -54.049  1.00  0.00    -0.322 N 
HETATM    3  O   UNL     1     -41.002  57.900 -53.828  1.00  0.00    -0.266 OA
HETATM    4  H   UNL     1     -43.209  55.666 -53.480  1.00  0.00     0.169 HD
ENDROOT
BRANCH   1   5
HETATM    5  C   UNL     1     -41.590  56.525 -51.993  1.00  0.00     0.157 A 
HETATM    6  C   UNL     1     -41.098  55.255 -51.569  1.00  0.00     0.029 A 
HETATM    7  C   UNL     1     -40.611  54.093 -52.200  1.00  0.00     0.023 A 
HETATM    8  C   UNL     1     -41.169  55.283 -50.183  1.00  0.00     0.063 A 
HETATM    9  C   UNL     1     -40.216  52.993 -51.419  1.00  0.00    -0.061 A 
HETATM   10  C   UNL     1     -39.704  51.742 -52.071  1.00  0.00     0.048 C 
HETATM   11  C   UNL     1     -40.298  53.067 -50.023  1.00  0.00     0.009 A 
HETATM   12  C   UNL     1     -40.775  54.212 -49.375  1.00  0.00     0.032 A 
HETATM   13  N   UNL     1     -41.677  56.514 -49.871  1.00  0.00    -0.277 N 
HETATM   14  H   UNL     1     -41.863  56.881 -48.946  1.00  0.00     0.189 HD
HETATM   15  N   UNL     1     -41.956  57.288 -50.936  1.00  0.00    -0.168 NA
ENDBRANCH   1   5
BRANCH   2  16
HETATM   16  C   UNL     1     -43.182  56.551 -55.371  1.00  0.00     0.037 A 
HETATM   17  C   UNL     1     -44.102  57.525 -55.763  1.00  0.00     0.069 A 
HETATM   18  C   UNL     1     -44.500  57.622 -57.101  1.00  0.00     0.104 A 
HETATM   19  C   UNL     1     -43.955  56.767 -58.061  1.00  0.00     0.102 A 
HETATM   20  O   UNL     1     -45.354  58.644 -57.416  1.00  0.00    -0.348 OA
HETATM   21  O   UNL     1     -44.218  56.876 -59.398  1.00  0.00    -0.348 OA
HETATM   22  C   UNL     1     -43.012  55.816 -57.682  1.00  0.00     0.042 A 
HETATM   23  C   UNL     1     -45.594  56.641 -59.698  1.00  0.00     0.178 C 
HETATM   24  C   UNL     1     -46.453  57.871 -59.454  1.00  0.00     0.053 C 
HETATM   25  C   UNL     1     -46.581  58.166 -57.968  1.00  0.00     0.178 C 
HETATM   26  C   UNL     1     -42.641  55.696 -56.340  1.00  0.00     0.032 A 
ENDBRANCH   2  16
TORSDOF 2
ENDMDL
MODEL 7
REMARK VINA RESULT:      -8.0      4.883      8.572
REMARK  2 active torsions:
REMARK  status: ('A' for Active; 'I' for Inactive)
REMARK    1  A    between atoms: C_9  and  C_10 
REMARK       I    between atoms: C_10  and  N_11 
REMARK    2  A    between atoms: N_11  and  C_12 
ROOT
HETATM    1  C   UNL     1     -41.149  55.322 -49.938  1.00  0.00     0.277 C 
HETATM    2  N   UNL     1     -41.427  56.180 -50.987  1.00  0.00    -0.322 N 
HETATM    3  O   UNL     1     -41.230  55.585 -48.743  1.00  0.00    -0.266 OA
HETATM    4  H   UNL     1     -41.278  55.752 -51.898  1.00  0.00     0.169 HD
ENDROOT
BRANCH   1   5
HETATM    5  C   UNL     1     -40.717  53.997 -50.423  1.00  0.00     0.157 A 
HETATM    6  C   UNL     1     -40.507  53.592 -51.775  1.00  0.00     0.029 A 
HETATM    7  C   UNL     1     -40.615  54.195 -53.044  1.00  0.00     0.023 A 
HETATM    8  C   UNL     1     -40.108  52.264 -51.697  1.00  0.00     0.063 A 
HETATM    9  C   UNL     1     -40.324  53.443 -54.195  1.00  0.00    -0.061 A 
HETATM   10  C   UNL     1     -40.442  54.062 -55.557  1.00  0.00     0.048 C 
HETATM   11  C   UNL     1     -39.919  52.108 -54.071  1.00  0.00     0.009 A 
HETATM   12  C   UNL     1     -39.801  51.491 -52.820  1.00  0.00     0.032 A 
HETATM   13  N   UNL     1     -40.104  51.966 -50.362  1.00  0.00    -0.277 N 
HETATM   14  H   UNL     1     -39.860  51.080 -49.935  1.00  0.00     0.189 HD
HETATM   15  N   UNL     1     -40.478  52.980 -49.562  1.00  0.00    -0.168 NA
ENDBRANCH   1   5
BRANCH   2  16
HETATM   16  C   UNL     1     -41.856  57.515 -50.942  1.00  0.00     0.037 A 
HETATM   17  C   UNL     1     -43.146  57.933 -51.276  1.00  0.00     0.069 A 
HETATM   18  C   UNL     1     -43.484  59.290 -51.224  1.00  0.00     0.104 A 
HETATM   19  C   UNL     1     -42.546  60.233 -50.804  1.00  0.00     0.102 A 
HETATM   20  O   UNL     1     -44.786  59.610 -51.504  1.00  0.00    -0.348 OA
HETATM   21  O   UNL     1     -42.840  61.557 -50.628  1.00  0.00    -0.348 OA
HETATM   22  C   UNL     1     -41.268  59.821 -50.437  1.00  0.00     0.042 A 
HETATM   23  C   UNL     1     -43.212  62.194 -51.850  1.00  0.00     0.178 C 
HETATM   24  C   UNL     1     -44.668  61.944 -52.209  1.00  0.00     0.053 C 
HETATM   25  C   UNL     1     -44.892  60.497 -52.617  1.00  0.00     0.178 C 
HETATM   26  C   UNL     1     -40.920  58.470 -50.523  1.00  0.00     0.032 A 
ENDBRANCH   2  16
TORSDOF 2
ENDMDL
MODEL 8
REMARK VINA RESULT:      -7.9      2.299      3.152
REMARK  2 active torsions:
REMARK  status: ('A' for Active; 'I' for Inactive)
REMARK    1  A    between atoms: C_9  and  C_10 
REMARK       I    between atoms: C_10  and  N_11 
REMARK    2  A    between atoms: N_11  and  C_12 
ROOT
HETATM    1  C   UNL     1     -42.494  57.191 -55.152  1.00  0.00     0.277 C 
HETATM    2  N   UNL     1     -41.315  56.665 -54.654  1.00  0.00    -0.322 N 
HETATM    3  O   UNL     1     -43.561  56.600 -55.268  1.00  0.00    -0.266 OA
HETATM    4  H   UNL     1     -40.549  57.335 -54.661  1.00  0.00     0.169 HD
ENDROOT
BRANCH   1   5
HETATM    5  C   UNL     1     -42.329  58.601 -55.555  1.00  0.00     0.157 A 
HETATM    6  C   UNL     1     -42.207  59.119 -56.879  1.00  0.00     0.029 A 
HETATM    7  C   UNL     1     -42.186  58.581 -58.181  1.00  0.00     0.023 A 
HETATM    8  C   UNL     1     -42.078  60.492 -56.720  1.00  0.00     0.063 A 
HETATM    9  C   UNL     1     -42.031  59.440 -59.283  1.00  0.00    -0.061 A 
HETATM   10  C   UNL     1     -41.996  58.888 -60.678  1.00  0.00     0.048 C 
HETATM   11  C   UNL     1     -41.910  60.820 -59.078  1.00  0.00     0.009 A 
HETATM   12  C   UNL     1     -41.932  61.375 -57.793  1.00  0.00     0.032 A 
HETATM   13  N   UNL     1     -42.127  60.706 -55.370  1.00  0.00    -0.277 N 
HETATM   14  H   UNL     1     -42.065  61.596 -54.890  1.00  0.00     0.189 HD
HETATM   15  N   UNL     1     -42.265  59.589 -54.632  1.00  0.00    -0.168 NA
ENDBRANCH   1   5
BRANCH   2  16
HETATM   16  C   UNL     1     -41.062  55.370 -54.175  1.00  0.00     0.037 A 
HETATM   17  C   UNL     1     -41.413  54.926 -52.899  1.00  0.00     0.069 A 
HETATM   18  C   UNL     1     -41.103  53.623 -52.494  1.00  0.00     0.104 A 
HETATM   19  C   UNL     1     -40.471  52.745 -53.376  1.00  0.00     0.102 A 
HETATM   20  O   UNL     1     -41.540  53.245 -51.253  1.00  0.00    -0.348 OA
HETATM   21  O   UNL     1     -40.235  51.429 -53.084  1.00  0.00    -0.348 OA
HETATM   22  C   UNL     1     -40.147  53.170 -54.661  1.00  0.00     0.042 A 
HETATM   23  C   UNL     1     -39.336  51.274 -51.986  1.00  0.00     0.178 C 
HETATM   24  C   UNL     1     -40.037  51.420 -50.644  1.00  0.00     0.053 C 
HETATM   25  C   UNL     1     -40.462  52.859 -50.401  1.00  0.00     0.178 C 
HETATM   26  C   UNL     1     -40.425  54.482 -55.052  1.00  0.00     0.032 A 
ENDBRANCH   2  16
TORSDOF 2
ENDMDL
MODEL 9
REMARK VINA RESULT:      -7.9      2.199      3.708
REMARK  2 active torsions:
REMARK  status: ('A' for Active; 'I' for Inactive)
REMARK    1  A    between atoms: C_9  and  C_10 
REMARK       I    between atoms: C_10  and  N_11 
REMARK    2  A    between atoms: N_11  and  C_12 
ROOT
HETATM    1  C   UNL     1     -42.834  56.226 -56.489  1.00  0.00     0.277 C 
HETATM    2  N   UNL     1     -41.734  55.466 -56.135  1.00  0.00    -0.322 N 
HETATM    3  O   UNL     1     -43.776  56.523 -55.764  1.00  0.00    -0.266 OA
HETATM    4  H   UNL     1     -41.079  55.335 -56.903  1.00  0.00     0.169 HD
ENDROOT
BRANCH   1   5
HETATM    5  C   UNL     1     -42.760  56.660 -57.898  1.00  0.00     0.157 A 
HETATM    6  C   UNL     1     -42.396  57.948 -58.394  1.00  0.00     0.029 A 
HETATM    7  C   UNL     1     -42.015  59.182 -57.831  1.00  0.00     0.023 A 
HETATM    8  C   UNL     1     -42.480  57.840 -59.775  1.00  0.00     0.063 A 
HETATM    9  C   UNL     1     -41.735  60.271 -58.673  1.00  0.00    -0.061 A 
HETATM   10  C   UNL     1     -41.338  61.598 -58.095  1.00  0.00     0.048 C 
HETATM   11  C   UNL     1     -41.825  60.117 -60.063  1.00  0.00     0.009 A 
HETATM   12  C   UNL     1     -42.198  58.899 -60.643  1.00  0.00     0.032 A 
HETATM   13  N   UNL     1     -42.871  56.552 -60.015  1.00  0.00    -0.277 N 
HETATM   14  H   UNL     1     -43.031  56.120 -60.918  1.00  0.00     0.189 HD
HETATM   15  N   UNL     1     -43.063  55.812 -58.908  1.00  0.00    -0.168 NA
ENDBRANCH   1   5
BRANCH   2  16
HETATM   16  C   UNL     1     -41.437  54.868 -54.900  1.00  0.00     0.037 A 
HETATM   17  C   UNL     1     -41.863  55.370 -53.668  1.00  0.00     0.069 A 
HETATM   18  C   UNL     1     -41.504  54.724 -52.481  1.00  0.00     0.104 A 
HETATM   19  C   UNL     1     -40.746  53.552 -52.519  1.00  0.00     0.102 A 
HETATM   20  O   UNL     1     -42.015  55.240 -51.320  1.00  0.00    -0.348 OA
HETATM   21  O   UNL     1     -40.450  52.812 -51.407  1.00  0.00    -0.348 OA
HETATM   22  C   UNL     1     -40.346  53.028 -53.745  1.00  0.00     0.042 A 
HETATM   23  C   UNL     1     -39.636  53.532 -50.482  1.00  0.00     0.178 C 
HETATM   24  C   UNL     1     -40.452  54.473 -49.609  1.00  0.00     0.053 C 
HETATM   25  C   UNL     1     -40.988  55.645 -50.416  1.00  0.00     0.178 C 
HETATM   26  C   UNL     1     -40.675  53.693 -54.929  1.00  0.00     0.032 A 
ENDBRANCH   2  16
TORSDOF 2
ENDMDL
MODEL 10
REMARK VINA RESULT:      -7.9      4.902      8.574
REMARK  2 active torsions:
REMARK  status: ('A' for Active; 'I' for Inactive)
REMARK    1  A    between atoms: C_9  and  C_10 
REMARK       I    between atoms: C_10  and  N_11 
REMARK    2  A    between atoms: N_11  and  C_12 
ROOT
HETATM    1  C   UNL     1     -41.353  55.735 -52.122  1.00  0.00     0.277 C 
HETATM    2  N   UNL     1     -41.977  56.842 -52.668  1.00  0.00    -0.322 N 
HETATM    3  O   UNL     1     -41.128  55.540 -50.933  1.00  0.00    -0.266 OA
HETATM    4  H   UNL     1     -42.047  56.797 -53.683  1.00  0.00     0.169 HD
ENDROOT
BRANCH   1   5
HETATM    5  C   UNL     1     -40.959  54.767 -53.164  1.00  0.00     0.157 A 
HETATM    6  C   UNL     1     -40.520  53.422 -52.981  1.00  0.00     0.029 A 
HETATM    7  C   UNL     1     -40.297  52.567 -51.883  1.00  0.00     0.023 A 
HETATM    8  C   UNL     1     -40.277  52.943 -54.262  1.00  0.00     0.063 A 
HETATM    9  C   UNL     1     -39.832  51.260 -52.106  1.00  0.00    -0.061 A 
HETATM   10  C   UNL     1     -39.578  50.336 -50.951  1.00  0.00     0.048 C 
HETATM   11  C   UNL     1     -39.607  50.815 -53.415  1.00  0.00     0.009 A 
HETATM   12  C   UNL     1     -39.825  51.646 -54.520  1.00  0.00     0.032 A 
HETATM   13  N   UNL     1     -40.573  53.983 -55.099  1.00  0.00    -0.277 N 
HETATM   14  H   UNL     1     -40.512  53.990 -56.110  1.00  0.00     0.189 HD
HETATM   15  N   UNL     1     -40.975  55.105 -54.475  1.00  0.00    -0.168 NA
ENDBRANCH   1   5
BRANCH   2  16
HETATM   16  C   UNL     1     -42.489  57.975 -52.016  1.00  0.00     0.037 A 
HETATM   17  C   UNL     1     -43.835  58.145 -51.688  1.00  0.00     0.069 A 
HETATM   18  C   UNL     1     -44.265  59.317 -51.057  1.00  0.00     0.104 A 
HETATM   19  C   UNL     1     -43.345  60.312 -50.718  1.00  0.00     0.102 A 
HETATM   20  O   UNL     1     -45.588  59.379 -50.710  1.00  0.00    -0.348 OA
HETATM   21  O   UNL     1     -43.679  61.431 -50.007  1.00  0.00    -0.348 OA
HETATM   22  C   UNL     1     -41.997  60.134 -51.013  1.00  0.00     0.042 A 
HETATM   23  C   UNL     1     -44.603  62.262 -50.711  1.00  0.00     0.178 C 
HETATM   24  C   UNL     1     -46.036  61.775 -50.569  1.00  0.00     0.053 C 
HETATM   25  C   UNL     1     -46.254  60.478 -51.332  1.00  0.00     0.178 C 
HETATM   26  C   UNL     1     -41.573  58.979 -51.675  1.00  0.00     0.032 A 
ENDBRANCH   2  16
TORSDOF 2
ENDMDL
