MODEL 1
REMARK VINA RESULT:      -7.8      0.000      0.000
REMARK  3 active torsions:
REMARK  status: ('A' for Active; 'I' for Inactive)
REMARK    1  A    between atoms: C_9  and  C_10 
REMARK    2  A    between atoms: C_16  and  C_17 
REMARK       I    between atoms: C_17  and  N_18 
REMARK    3  A    between atoms: N_18  and  C_19 
ROOT
HETATM    1  C   UNL     1     -41.626  54.671 -49.116  1.00  0.00     0.070 C 
HETATM    2  C   UNL     1     -41.485  55.722 -50.189  1.00  0.00     0.037 C 
HETATM    3  N   UNL     1     -41.336  57.029 -49.731  1.00  0.00    -0.192 N 
HETATM    4  C   UNL     1     -40.942  58.043 -50.526  1.00  0.00     0.725 A 
HETATM    5  N   UNL     1     -40.834  57.836 -51.875  1.00  0.00    -0.084 N 
HETATM    6  N   UNL     1     -40.353  58.930 -52.501  1.00  0.00    -0.149 NA
HETATM    7  C   UNL     1     -40.234  59.773 -51.469  1.00  0.00     0.275 A 
HETATM    8  N   UNL     1     -40.588  59.270 -50.243  1.00  0.00    -0.054 NA
HETATM    9  C   UNL     1     -41.161  56.571 -52.541  1.00  0.00     0.202 C 
HETATM   10  C   UNL     1     -41.425  55.469 -51.520  1.00  0.00     0.062 C 
HETATM   11  H   UNL     1     -41.292  57.172 -48.725  1.00  0.00     0.184 HD
ENDROOT
BRANCH  10  12
HETATM   12  C   UNL     1     -41.489  54.106 -52.110  1.00  0.00     0.256 C 
HETATM   13  N   UNL     1     -40.296  53.423 -52.055  1.00  0.00    -0.322 N 
HETATM   14  H   UNL     1     -39.520  53.873 -51.588  1.00  0.00     0.169 HD
HETATM   15  O   UNL     1     -42.560  53.691 -52.529  1.00  0.00    -0.267 OA
BRANCH  13  16
HETATM   16  C   UNL     1     -40.034  52.147 -52.603  1.00  0.00     0.052 A 
HETATM   17  C   UNL     1     -39.678  51.018 -51.871  1.00  0.00     0.145 A 
HETATM   18  N   UNL     1     -39.457  49.794 -52.419  1.00  0.00    -0.271 NA
HETATM   19  C   UNL     1     -39.597  49.689 -53.755  1.00  0.00     0.116 A 
HETATM   20  C   UNL     1     -39.946  50.749 -54.573  1.00  0.00     0.021 A 
HETATM   21  C   UNL     1     -40.165  51.994 -53.985  1.00  0.00     0.032 A 
ENDBRANCH  13  16
ENDBRANCH  10  12
BRANCH   9  22
HETATM   22  C   UNL     1     -42.340  56.754 -53.491  1.00  0.00    -0.025 A 
HETATM   23  C   UNL     1     -43.597  57.103 -52.983  1.00  0.00     0.029 A 
HETATM   24  C   UNL     1     -44.649  57.290 -53.866  1.00  0.00     0.117 A 
HETATM   25  N   UNL     1     -44.535  57.160 -55.205  1.00  0.00    -0.273 NA
HETATM   26  C   UNL     1     -43.320  56.821 -55.682  1.00  0.00     0.117 A 
HETATM   27  C   UNL     1     -42.206  56.620 -54.881  1.00  0.00     0.029 A 
ENDBRANCH   9  22
TORSDOF 3
ENDMDL
MODEL 2
REMARK VINA RESULT:      -7.7      2.441      4.918
REMARK  3 active torsions:
REMARK  status: ('A' for Active; 'I' for Inactive)
REMARK    1  A    between atoms: C_9  and  C_10 
REMARK    2  A    between atoms: C_16  and  C_17 
REMARK       I    between atoms: C_17  and  N_18 
REMARK    3  A    between atoms: N_18  and  C_19 
ROOT
HETATM    1  C   UNL     1     -40.700  53.903 -55.076  1.00  0.00     0.070 C 
HETATM    2  C   UNL     1     -41.662  55.061 -55.179  1.00  0.00     0.037 C 
HETATM    3  N   UNL     1     -41.775  55.636 -56.442  1.00  0.00    -0.192 N 
HETATM    4  C   UNL     1     -42.762  56.493 -56.771  1.00  0.00     0.725 A 
HETATM    5  N   UNL     1     -43.604  56.955 -55.796  1.00  0.00    -0.084 N 
HETATM    6  N   UNL     1     -44.575  57.734 -56.315  1.00  0.00    -0.149 NA
HETATM    7  C   UNL     1     -44.228  57.731 -57.607  1.00  0.00     0.275 A 
HETATM    8  N   UNL     1     -43.121  56.987 -57.928  1.00  0.00    -0.054 NA
HETATM    9  C   UNL     1     -43.485  56.607 -54.376  1.00  0.00     0.202 C 
HETATM   10  C   UNL     1     -42.447  55.509 -54.167  1.00  0.00     0.062 C 
HETATM   11  H   UNL     1     -41.242  55.216 -57.199  1.00  0.00     0.184 HD
ENDROOT
BRANCH  10  12
HETATM   12  C   UNL     1     -42.467  54.914 -52.806  1.00  0.00     0.256 C 
HETATM   13  N   UNL     1     -41.381  55.259 -52.034  1.00  0.00    -0.322 N 
HETATM   14  H   UNL     1     -40.713  55.907 -52.431  1.00  0.00     0.169 HD
HETATM   15  O   UNL     1     -43.429  54.239 -52.468  1.00  0.00    -0.267 OA
BRANCH  13  16
HETATM   16  C   UNL     1     -41.091  54.786 -50.735  1.00  0.00     0.052 A 
HETATM   17  C   UNL     1     -41.306  55.495 -49.557  1.00  0.00     0.145 A 
HETATM   18  N   UNL     1     -41.043  55.007 -48.316  1.00  0.00    -0.271 NA
HETATM   19  C   UNL     1     -40.545  53.758 -48.244  1.00  0.00     0.116 A 
HETATM   20  C   UNL     1     -40.293  52.970 -49.353  1.00  0.00     0.021 A 
HETATM   21  C   UNL     1     -40.570  53.496 -50.614  1.00  0.00     0.032 A 
ENDBRANCH  13  16
ENDBRANCH  10  12
BRANCH   9  22
HETATM   22  C   UNL     1     -43.169  57.846 -53.545  1.00  0.00    -0.025 A 
HETATM   23  C   UNL     1     -44.075  58.280 -52.568  1.00  0.00     0.029 A 
HETATM   24  C   UNL     1     -43.757  59.394 -51.807  1.00  0.00     0.117 A 
HETATM   25  N   UNL     1     -42.611  60.094 -51.945  1.00  0.00    -0.273 NA
HETATM   26  C   UNL     1     -41.748  59.668 -52.889  1.00  0.00     0.117 A 
HETATM   27  C   UNL     1     -41.972  58.562 -53.696  1.00  0.00     0.029 A 
ENDBRANCH   9  22
TORSDOF 3
ENDMDL
MODEL 3
REMARK VINA RESULT:      -7.7      1.627      4.241
REMARK  3 active torsions:
REMARK  status: ('A' for Active; 'I' for Inactive)
REMARK    1  A    between atoms: C_9  and  C_10 
REMARK    2  A    between atoms: C_16  and  C_17 
REMARK       I    between atoms: C_17  and  N_18 
REMARK    3  A    between atoms: N_18  and  C_19 
ROOT
HETATM    1  C   UNL     1     -43.204  54.617 -56.266  1.00  0.00     0.070 C 
HETATM    2  C   UNL     1     -43.398  55.825 -55.383  1.00  0.00     0.037 C 
HETATM    3  N   UNL     1     -43.924  56.950 -56.013  1.00  0.00    -0.192 N 
HETATM    4  C   UNL     1     -44.400  58.013 -55.336  1.00  0.00     0.725 A 
HETATM    5  N   UNL     1     -44.222  58.081 -53.980  1.00  0.00    -0.084 N 
HETATM    6  N   UNL     1     -44.829  59.167 -53.460  1.00  0.00    -0.149 NA
HETATM    7  C   UNL     1     -45.318  59.732 -54.570  1.00  0.00     0.275 A 
HETATM    8  N   UNL     1     -45.073  59.059 -55.741  1.00  0.00    -0.054 NA
HETATM    9  C   UNL     1     -43.500  57.074 -53.195  1.00  0.00     0.202 C 
HETATM   10  C   UNL     1     -43.167  55.853 -54.047  1.00  0.00     0.062 C 
HETATM   11  H   UNL     1     -44.173  56.865 -56.995  1.00  0.00     0.184 HD
ENDROOT
BRANCH  10  12
HETATM   12  C   UNL     1     -42.687  54.686 -53.262  1.00  0.00     0.256 C 
HETATM   13  N   UNL     1     -41.390  54.322 -53.548  1.00  0.00    -0.322 N 
HETATM   14  H   UNL     1     -40.878  54.894 -54.207  1.00  0.00     0.169 HD
HETATM   15  O   UNL     1     -43.424  54.194 -52.420  1.00  0.00    -0.267 OA
BRANCH  13  16
HETATM   16  C   UNL     1     -40.695  53.212 -53.020  1.00  0.00     0.052 A 
HETATM   17  C   UNL     1     -40.334  53.052 -51.685  1.00  0.00     0.145 A 
HETATM   18  N   UNL     1     -39.688  51.962 -51.196  1.00  0.00    -0.271 NA
HETATM   19  C   UNL     1     -39.388  50.985 -52.073  1.00  0.00     0.116 A 
HETATM   20  C   UNL     1     -39.700  51.046 -53.421  1.00  0.00     0.021 A 
HETATM   21  C   UNL     1     -40.361  52.177 -53.896  1.00  0.00     0.032 A 
ENDBRANCH  13  16
ENDBRANCH  10  12
BRANCH   9  22
HETATM   22  C   UNL     1     -42.251  57.680 -52.565  1.00  0.00    -0.025 A 
HETATM   23  C   UNL     1     -41.256  58.233 -53.382  1.00  0.00     0.029 A 
HETATM   24  C   UNL     1     -40.140  58.802 -52.788  1.00  0.00     0.117 A 
HETATM   25  N   UNL     1     -39.951  58.863 -51.453  1.00  0.00    -0.273 NA
HETATM   26  C   UNL     1     -40.914  58.326 -50.677  1.00  0.00     0.117 A 
HETATM   27  C   UNL     1     -42.069  57.741 -51.176  1.00  0.00     0.029 A 
ENDBRANCH   9  22
TORSDOF 3
ENDMDL
MODEL 4
REMARK VINA RESULT:      -7.4      2.718      6.038
REMARK  3 active torsions:
REMARK  status: ('A' for Active; 'I' for Inactive)
REMARK    1  A    between atoms: C_9  and  C_10 
REMARK    2  A    between atoms: C_16  and  C_17 
REMARK       I    between atoms: C_17  and  N_18 
REMARK    3  A    between atoms: N_18  and  C_19 
ROOT
HETATM    1  C   UNL     1     -42.061  60.046 -55.692  1.00  0.00     0.070 C 
HETATM    2  C   UNL     1     -41.896  58.972 -54.645  1.00  0.00     0.037 C 
HETATM    3  N   UNL     1     -41.080  59.305 -53.568  1.00  0.00    -0.192 N 
HETATM    4  C   UNL     1     -41.031  58.580 -52.433  1.00  0.00     0.725 A 
HETATM    5  N   UNL     1     -41.679  57.375 -52.377  1.00  0.00    -0.084 N 
HETATM    6  N   UNL     1     -41.592  56.828 -51.148  1.00  0.00    -0.149 NA
HETATM    7  C   UNL     1     -40.838  57.741 -50.525  1.00  0.00     0.275 A 
HETATM    8  N   UNL     1     -40.469  58.827 -51.278  1.00  0.00    -0.054 NA
HETATM    9  C   UNL     1     -42.410  56.783 -53.503  1.00  0.00     0.202 C 
HETATM   10  C   UNL     1     -42.531  57.774 -54.658  1.00  0.00     0.062 C 
HETATM   11  H   UNL     1     -40.694  60.246 -53.544  1.00  0.00     0.184 HD
ENDROOT
BRANCH  10  12
HETATM   12  C   UNL     1     -43.487  57.351 -55.714  1.00  0.00     0.256 C 
HETATM   13  N   UNL     1     -42.896  57.117 -56.935  1.00  0.00    -0.322 N 
HETATM   14  H   UNL     1     -41.889  57.200 -56.990  1.00  0.00     0.169 HD
HETATM   15  O   UNL     1     -44.664  57.195 -55.420  1.00  0.00    -0.267 OA
BRANCH  13  16
HETATM   16  C   UNL     1     -43.558  56.781 -58.136  1.00  0.00     0.052 A 
HETATM   17  C   UNL     1     -44.363  57.642 -58.876  1.00  0.00     0.145 A 
HETATM   18  N   UNL     1     -44.968  57.302 -60.044  1.00  0.00    -0.271 NA
HETATM   19  C   UNL     1     -44.765  56.049 -60.496  1.00  0.00     0.116 A 
HETATM   20  C   UNL     1     -43.985  55.116 -59.836  1.00  0.00     0.021 A 
HETATM   21  C   UNL     1     -43.377  55.490 -58.639  1.00  0.00     0.032 A 
ENDBRANCH  13  16
ENDBRANCH  10  12
BRANCH   9  22
HETATM   22  C   UNL     1     -41.751  55.481 -53.945  1.00  0.00    -0.025 A 
HETATM   23  C   UNL     1     -40.539  55.516 -54.646  1.00  0.00     0.029 A 
HETATM   24  C   UNL     1     -39.944  54.319 -55.015  1.00  0.00     0.117 A 
HETATM   25  N   UNL     1     -40.463  53.105 -54.733  1.00  0.00    -0.273 NA
HETATM   26  C   UNL     1     -41.631  53.085 -54.060  1.00  0.00     0.117 A 
HETATM   27  C   UNL     1     -42.299  54.226 -53.641  1.00  0.00     0.029 A 
ENDBRANCH   9  22
TORSDOF 3
ENDMDL
MODEL 5
REMARK VINA RESULT:      -7.2      3.918      6.356
REMARK  3 active torsions:
REMARK  status: ('A' for Active; 'I' for Inactive)
REMARK    1  A    between atoms: C_9  and  C_10 
REMARK    2  A    between atoms: C_16  and  C_17 
REMARK       I    between atoms: C_17  and  N_18 
REMARK    3  A    between atoms: N_18  and  C_19 
ROOT
HETATM    1  C   UNL     1     -42.707  59.658 -55.287  1.00  0.00     0.070 C 
HETATM    2  C   UNL     1     -42.662  59.184 -56.718  1.00  0.00     0.037 C 
HETATM    3  N   UNL     1     -42.582  60.188 -57.679  1.00  0.00    -0.192 N 
HETATM    4  C   UNL     1     -42.274  59.945 -58.969  1.00  0.00     0.725 A 
HETATM    5  N   UNL     1     -42.190  58.651 -59.407  1.00  0.00    -0.084 N 
HETATM    6  N   UNL     1     -41.796  58.594 -60.696  1.00  0.00    -0.149 NA
HETATM    7  C   UNL     1     -41.702  59.898 -60.982  1.00  0.00     0.275 A 
HETATM    8  N   UNL     1     -41.991  60.758 -59.953  1.00  0.00    -0.054 NA
HETATM    9  C   UNL     1     -42.455  57.479 -58.565  1.00  0.00     0.202 C 
HETATM   10  C   UNL     1     -42.622  57.884 -57.103  1.00  0.00     0.062 C 
HETATM   11  H   UNL     1     -42.519  61.149 -57.352  1.00  0.00     0.184 HD
ENDROOT
BRANCH  10  12
HETATM   12  C   UNL     1     -42.617  56.738 -56.158  1.00  0.00     0.256 C 
HETATM   13  N   UNL     1     -41.370  56.440 -55.656  1.00  0.00    -0.322 N 
HETATM   14  H   UNL     1     -40.602  57.040 -55.926  1.00  0.00     0.169 HD
HETATM   15  O   UNL     1     -43.678  56.204 -55.867  1.00  0.00    -0.267 OA
BRANCH  13  16
HETATM   16  C   UNL     1     -41.046  55.362 -54.804  1.00  0.00     0.052 A 
HETATM   17  C   UNL     1     -41.190  55.362 -53.419  1.00  0.00     0.145 A 
HETATM   18  N   UNL     1     -40.895  54.301 -52.622  1.00  0.00    -0.271 NA
HETATM   19  C   UNL     1     -40.435  53.190 -53.230  1.00  0.00     0.116 A 
HETATM   20  C   UNL     1     -40.254  53.087 -54.598  1.00  0.00     0.021 A 
HETATM   21  C   UNL     1     -40.562  54.190 -55.392  1.00  0.00     0.032 A 
ENDBRANCH  13  16
ENDBRANCH  10  12
BRANCH   9  22
HETATM   22  C   UNL     1     -43.669  56.712 -59.079  1.00  0.00    -0.025 A 
HETATM   23  C   UNL     1     -44.922  57.337 -59.123  1.00  0.00     0.029 A 
HETATM   24  C   UNL     1     -46.006  56.630 -59.618  1.00  0.00     0.117 A 
HETATM   25  N   UNL     1     -45.929  55.362 -60.073  1.00  0.00    -0.273 NA
HETATM   26  C   UNL     1     -44.719  54.770 -60.024  1.00  0.00     0.117 A 
HETATM   27  C   UNL     1     -43.574  55.395 -59.553  1.00  0.00     0.029 A 
ENDBRANCH   9  22
TORSDOF 3
ENDMDL
MODEL 6
REMARK VINA RESULT:      -7.1      2.468      5.314
REMARK  3 active torsions:
REMARK  status: ('A' for Active; 'I' for Inactive)
REMARK    1  A    between atoms: C_9  and  C_10 
REMARK    2  A    between atoms: C_16  and  C_17 
REMARK       I    between atoms: C_17  and  N_18 
REMARK    3  A    between atoms: N_18  and  C_19 
ROOT
HETATM    1  C   UNL     1     -41.199  52.568 -53.970  1.00  0.00     0.070 C 
HETATM    2  C   UNL     1     -41.221  53.491 -52.777  1.00  0.00     0.037 C 
HETATM    3  N   UNL     1     -41.141  52.868 -51.535  1.00  0.00    -0.192 N 
HETATM    4  C   UNL     1     -40.888  53.538 -50.394  1.00  0.00     0.725 A 
HETATM    5  N   UNL     1     -40.863  54.906 -50.409  1.00  0.00    -0.084 N 
HETATM    6  N   UNL     1     -40.517  55.404 -49.204  1.00  0.00    -0.149 NA
HETATM    7  C   UNL     1     -40.389  54.274 -48.499  1.00  0.00     0.275 A 
HETATM    8  N   UNL     1     -40.612  53.110 -49.189  1.00  0.00    -0.054 NA
HETATM    9  C   UNL     1     -41.137  55.719 -51.599  1.00  0.00     0.202 C 
HETATM   10  C   UNL     1     -41.239  54.846 -52.846  1.00  0.00     0.062 C 
HETATM   11  H   UNL     1     -41.035  51.856 -51.523  1.00  0.00     0.184 HD
ENDROOT
BRANCH  10  12
HETATM   12  C   UNL     1     -41.238  55.613 -54.118  1.00  0.00     0.256 C 
HETATM   13  N   UNL     1     -42.473  55.685 -54.722  1.00  0.00    -0.322 N 
HETATM   14  H   UNL     1     -43.256  55.267 -54.237  1.00  0.00     0.169 HD
HETATM   15  O   UNL     1     -40.202  56.147 -54.489  1.00  0.00    -0.267 OA
BRANCH  13  16
HETATM   16  C   UNL     1     -42.762  56.278 -55.971  1.00  0.00     0.052 A 
HETATM   17  C   UNL     1     -42.915  57.643 -56.195  1.00  0.00     0.145 A 
HETATM   18  N   UNL     1     -43.168  58.191 -57.413  1.00  0.00    -0.271 NA
HETATM   19  C   UNL     1     -43.272  57.344 -58.454  1.00  0.00     0.116 A 
HETATM   20  C   UNL     1     -43.139  55.970 -58.339  1.00  0.00     0.021 A 
HETATM   21  C   UNL     1     -42.883  55.435 -57.078  1.00  0.00     0.032 A 
ENDBRANCH  13  16
ENDBRANCH  10  12
BRANCH   9  22
HETATM   22  C   UNL     1     -42.393  56.560 -51.396  1.00  0.00    -0.025 A 
HETATM   23  C   UNL     1     -42.337  57.950 -51.569  1.00  0.00     0.029 A 
HETATM   24  C   UNL     1     -43.496  58.692 -51.405  1.00  0.00     0.117 A 
HETATM   25  N   UNL     1     -44.693  58.153 -51.090  1.00  0.00    -0.273 NA
HETATM   26  C   UNL     1     -44.733  56.816 -50.924  1.00  0.00     0.117 A 
HETATM   27  C   UNL     1     -43.632  55.987 -51.073  1.00  0.00     0.029 A 
ENDBRANCH   9  22
TORSDOF 3
ENDMDL
MODEL 7
REMARK VINA RESULT:      -7.1      2.277      2.641
REMARK  3 active torsions:
REMARK  status: ('A' for Active; 'I' for Inactive)
REMARK    1  A    between atoms: C_9  and  C_10 
REMARK    2  A    between atoms: C_16  and  C_17 
REMARK       I    between atoms: C_17  and  N_18 
REMARK    3  A    between atoms: N_18  and  C_19 
ROOT
HETATM    1  C   UNL     1     -44.365  56.363 -50.823  1.00  0.00     0.070 C 
HETATM    2  C   UNL     1     -43.832  57.228 -51.939  1.00  0.00     0.037 C 
HETATM    3  N   UNL     1     -44.067  58.593 -51.804  1.00  0.00    -0.192 N 
HETATM    4  C   UNL     1     -43.447  59.521 -52.558  1.00  0.00     0.725 A 
HETATM    5  N   UNL     1     -42.672  59.122 -53.613  1.00  0.00    -0.084 N 
HETATM    6  N   UNL     1     -42.067  60.174 -54.203  1.00  0.00    -0.149 NA
HETATM    7  C   UNL     1     -42.559  61.182 -53.474  1.00  0.00     0.275 A 
HETATM    8  N   UNL     1     -43.412  60.825 -52.460  1.00  0.00    -0.054 NA
HETATM    9  C   UNL     1     -42.493  57.723 -54.017  1.00  0.00     0.202 C 
HETATM   10  C   UNL     1     -43.102  56.775 -52.989  1.00  0.00     0.062 C 
HETATM   11  H   UNL     1     -44.536  58.908 -50.958  1.00  0.00     0.184 HD
ENDROOT
BRANCH  10  12
HETATM   12  C   UNL     1     -42.722  55.352 -53.185  1.00  0.00     0.256 C 
HETATM   13  N   UNL     1     -41.440  55.060 -52.778  1.00  0.00    -0.322 N 
HETATM   14  H   UNL     1     -40.906  55.803 -52.347  1.00  0.00     0.169 HD
HETATM   15  O   UNL     1     -43.555  54.570 -53.621  1.00  0.00    -0.267 OA
BRANCH  13  16
HETATM   16  C   UNL     1     -40.781  53.818 -52.911  1.00  0.00     0.052 A 
HETATM   17  C   UNL     1     -40.260  53.069 -51.860  1.00  0.00     0.145 A 
HETATM   18  N   UNL     1     -39.653  51.863 -52.012  1.00  0.00    -0.271 NA
HETATM   19  C   UNL     1     -39.558  51.381 -53.267  1.00  0.00     0.116 A 
HETATM   20  C   UNL     1     -40.041  52.046 -54.380  1.00  0.00     0.021 A 
HETATM   21  C   UNL     1     -40.658  53.282 -54.196  1.00  0.00     0.032 A 
ENDBRANCH  13  16
ENDBRANCH  10  12
BRANCH   9  22
HETATM   22  C   UNL     1     -43.068  57.490 -55.410  1.00  0.00    -0.025 A 
HETATM   23  C   UNL     1     -44.312  58.037 -55.751  1.00  0.00     0.029 A 
HETATM   24  C   UNL     1     -44.805  57.834 -57.031  1.00  0.00     0.117 A 
HETATM   25  N   UNL     1     -44.151  57.138 -57.985  1.00  0.00    -0.273 NA
HETATM   26  C   UNL     1     -42.956  56.615 -57.644  1.00  0.00     0.117 A 
HETATM   27  C   UNL     1     -42.376  56.768 -56.393  1.00  0.00     0.029 A 
ENDBRANCH   9  22
TORSDOF 3
ENDMDL
MODEL 8
REMARK VINA RESULT:      -6.9      2.297      6.148
REMARK  3 active torsions:
REMARK  status: ('A' for Active; 'I' for Inactive)
REMARK    1  A    between atoms: C_9  and  C_10 
REMARK    2  A    between atoms: C_16  and  C_17 
REMARK       I    between atoms: C_17  and  N_18 
REMARK    3  A    between atoms: N_18  and  C_19 
ROOT
HETATM    1  C   UNL     1     -40.706  54.839 -49.405  1.00  0.00     0.070 C 
HETATM    2  C   UNL     1     -40.918  54.305 -50.799  1.00  0.00     0.037 C 
HETATM    3  N   UNL     1     -39.935  53.436 -51.265  1.00  0.00    -0.192 N 
HETATM    4  C   UNL     1     -40.092  52.673 -52.364  1.00  0.00     0.725 A 
HETATM    5  N   UNL     1     -41.189  52.861 -53.162  1.00  0.00    -0.084 N 
HETATM    6  N   UNL     1     -41.224  51.961 -54.166  1.00  0.00    -0.149 NA
HETATM    7  C   UNL     1     -40.091  51.289 -53.935  1.00  0.00     0.275 A 
HETATM    8  N   UNL     1     -39.366  51.696 -52.844  1.00  0.00    -0.054 NA
HETATM    9  C   UNL     1     -42.213  53.884 -52.922  1.00  0.00     0.202 C 
HETATM   10  C   UNL     1     -42.007  54.556 -51.568  1.00  0.00     0.062 C 
HETATM   11  H   UNL     1     -39.179  53.197 -50.627  1.00  0.00     0.184 HD
ENDROOT
BRANCH  10  12
HETATM   12  C   UNL     1     -43.153  55.398 -51.136  1.00  0.00     0.256 C 
HETATM   13  N   UNL     1     -43.059  56.710 -51.543  1.00  0.00    -0.322 N 
HETATM   14  H   UNL     1     -42.271  56.964 -52.124  1.00  0.00     0.169 HD
HETATM   15  O   UNL     1     -44.077  54.877 -50.529  1.00  0.00    -0.267 OA
BRANCH  13  16
HETATM   16  C   UNL     1     -43.953  57.754 -51.218  1.00  0.00     0.052 A 
HETATM   17  C   UNL     1     -45.296  57.587 -50.891  1.00  0.00     0.145 A 
HETATM   18  N   UNL     1     -46.130  58.606 -50.556  1.00  0.00    -0.271 NA
HETATM   19  C   UNL     1     -45.606  59.847 -50.546  1.00  0.00     0.116 A 
HETATM   20  C   UNL     1     -44.285  60.121 -50.857  1.00  0.00     0.021 A 
HETATM   21  C   UNL     1     -43.452  59.057 -51.199  1.00  0.00     0.032 A 
ENDBRANCH  13  16
ENDBRANCH  10  12
BRANCH   9  22
HETATM   22  C   UNL     1     -42.231  54.900 -54.059  1.00  0.00    -0.025 A 
HETATM   23  C   UNL     1     -41.166  55.799 -54.207  1.00  0.00     0.029 A 
HETATM   24  C   UNL     1     -41.190  56.697 -55.263  1.00  0.00     0.117 A 
HETATM   25  N   UNL     1     -42.186  56.759 -56.172  1.00  0.00    -0.273 NA
HETATM   26  C   UNL     1     -43.206  55.891 -56.017  1.00  0.00     0.117 A 
HETATM   27  C   UNL     1     -43.270  54.951 -54.999  1.00  0.00     0.029 A 
ENDBRANCH   9  22
TORSDOF 3
ENDMDL
MODEL 9
REMARK VINA RESULT:      -6.7     15.013     17.061
REMARK  3 active torsions:
REMARK  status: ('A' for Active; 'I' for Inactive)
REMARK    1  A    between atoms: C_9  and  C_10 
REMARK    2  A    between atoms: C_16  and  C_17 
REMARK       I    between atoms: C_17  and  N_18 
REMARK    3  A    between atoms: N_18  and  C_19 
ROOT
HETATM    1  C   UNL     1     -38.112  41.029 -52.417  1.00  0.00     0.070 C 
HETATM    2  C   UNL     1     -37.195  41.120 -53.612  1.00  0.00     0.037 C 
HETATM    3  N   UNL     1     -37.829  41.203 -54.848  1.00  0.00    -0.192 N 
HETATM    4  C   UNL     1     -37.185  41.548 -55.981  1.00  0.00     0.725 A 
HETATM    5  N   UNL     1     -35.822  41.671 -55.968  1.00  0.00    -0.084 N 
HETATM    6  N   UNL     1     -35.357  42.099 -57.159  1.00  0.00    -0.149 NA
HETATM    7  C   UNL     1     -36.497  42.172 -57.856  1.00  0.00     0.275 A 
HETATM    8  N   UNL     1     -37.638  41.839 -57.173  1.00  0.00    -0.054 NA
HETATM    9  C   UNL     1     -34.985  41.409 -54.791  1.00  0.00     0.202 C 
HETATM   10  C   UNL     1     -35.843  41.197 -53.547  1.00  0.00     0.062 C 
HETATM   11  H   UNL     1     -38.846  41.237 -54.854  1.00  0.00     0.184 HD
ENDROOT
BRANCH  10  12
HETATM   12  C   UNL     1     -35.070  41.203 -52.278  1.00  0.00     0.256 C 
HETATM   13  N   UNL     1     -34.606  39.961 -51.906  1.00  0.00    -0.322 N 
HETATM   14  H   UNL     1     -34.782  39.189 -52.536  1.00  0.00     0.169 HD
HETATM   15  O   UNL     1     -34.866  42.268 -51.713  1.00  0.00    -0.267 OA
BRANCH  13  16
HETATM   16  C   UNL     1     -33.913  39.647 -50.717  1.00  0.00     0.052 A 
HETATM   17  C   UNL     1     -34.434  38.913 -49.654  1.00  0.00     0.145 A 
HETATM   18  N   UNL     1     -33.738  38.602 -48.530  1.00  0.00    -0.271 NA
HETATM   19  C   UNL     1     -32.466  39.039 -48.459  1.00  0.00     0.116 A 
HETATM   20  C   UNL     1     -31.854  39.778 -49.457  1.00  0.00     0.021 A 
HETATM   21  C   UNL     1     -32.592  40.085 -50.599  1.00  0.00     0.032 A 
ENDBRANCH  13  16
ENDBRANCH  10  12
BRANCH   9  22
HETATM   22  C   UNL     1     -34.057  40.226 -55.046  1.00  0.00    -0.025 A 
HETATM   23  C   UNL     1     -32.670  40.398 -54.964  1.00  0.00     0.029 A 
HETATM   24  C   UNL     1     -31.845  39.304 -55.173  1.00  0.00     0.117 A 
HETATM   25  N   UNL     1     -32.302  38.063 -55.449  1.00  0.00    -0.273 NA
HETATM   26  C   UNL     1     -33.639  37.911 -55.528  1.00  0.00     0.117 A 
HETATM   27  C   UNL     1     -34.545  38.942 -55.328  1.00  0.00     0.029 A 
ENDBRANCH   9  22
TORSDOF 3
ENDMDL
MODEL 10
REMARK VINA RESULT:      -6.7     15.132     18.028
REMARK  3 active torsions:
REMARK  status: ('A' for Active; 'I' for Inactive)
REMARK    1  A    between atoms: C_9  and  C_10 
REMARK    2  A    between atoms: C_16  and  C_17 
REMARK       I    between atoms: C_17  and  N_18 
REMARK    3  A    between atoms: N_18  and  C_19 
ROOT
HETATM    1  C   UNL     1     -35.819  42.355 -53.635  1.00  0.00     0.070 C 
HETATM    2  C   UNL     1     -34.814  41.242 -53.470  1.00  0.00     0.037 C 
HETATM    3  N   UNL     1     -33.988  41.340 -52.354  1.00  0.00    -0.192 N 
HETATM    4  C   UNL     1     -33.225  40.320 -51.915  1.00  0.00     0.725 A 
HETATM    5  N   UNL     1     -33.120  39.185 -52.673  1.00  0.00    -0.084 N 
HETATM    6  N   UNL     1     -32.386  38.243 -52.046  1.00  0.00    -0.149 NA
HETATM    7  C   UNL     1     -32.046  38.899 -50.930  1.00  0.00     0.275 A 
HETATM    8  N   UNL     1     -32.536  40.175 -50.813  1.00  0.00    -0.054 NA
HETATM    9  C   UNL     1     -33.762  39.008 -53.980  1.00  0.00     0.202 C 
HETATM   10  C   UNL     1     -34.723  40.155 -54.277  1.00  0.00     0.062 C 
HETATM   11  H   UNL     1     -34.146  42.119 -51.719  1.00  0.00     0.184 HD
ENDROOT
BRANCH  10  12
HETATM   12  C   UNL     1     -35.609  39.909 -55.443  1.00  0.00     0.256 C 
HETATM   13  N   UNL     1     -35.220  40.574 -56.585  1.00  0.00    -0.322 N 
HETATM   14  H   UNL     1     -34.364  41.112 -56.543  1.00  0.00     0.169 HD
HETATM   15  O   UNL     1     -36.542  39.128 -55.325  1.00  0.00    -0.267 OA
BRANCH  13  16
HETATM   16  C   UNL     1     -35.907  40.593 -57.818  1.00  0.00     0.052 A 
HETATM   17  C   UNL     1     -36.002  39.521 -58.701  1.00  0.00     0.145 A 
HETATM   18  N   UNL     1     -36.692  39.557 -59.871  1.00  0.00    -0.271 NA
HETATM   19  C   UNL     1     -37.314  40.711 -60.178  1.00  0.00     0.116 A 
HETATM   20  C   UNL     1     -37.281  41.836 -59.372  1.00  0.00     0.021 A 
HETATM   21  C   UNL     1     -36.564  41.772 -58.178  1.00  0.00     0.032 A 
ENDBRANCH  13  16
ENDBRANCH  10  12
BRANCH   9  22
HETATM   22  C   UNL     1     -32.713  38.853 -55.076  1.00  0.00    -0.025 A 
HETATM   23  C   UNL     1     -32.645  37.664 -55.814  1.00  0.00     0.029 A 
HETATM   24  C   UNL     1     -31.701  37.555 -56.823  1.00  0.00     0.117 A 
HETATM   25  N   UNL     1     -30.834  38.537 -57.148  1.00  0.00    -0.273 NA
HETATM   26  C   UNL     1     -30.907  39.675 -56.429  1.00  0.00     0.117 A 
HETATM   27  C   UNL     1     -31.821  39.884 -55.406  1.00  0.00     0.029 A 
ENDBRANCH   9  22
TORSDOF 3
ENDMDL
