MODEL 1
REMARK VINA RESULT:      -8.3      0.000      0.000
REMARK  8 active torsions:
REMARK  status: ('A' for Active; 'I' for Inactive)
REMARK    1  A    between atoms: N_4  and  C_5 
REMARK    2  A    between atoms: C_11  and  O_12 
REMARK    3  A    between atoms: C_13  and  C_14 
REMARK    4  A    between atoms: N_15  and  N_16 
REMARK       I    between atoms: N_16  and  C_17 
REMARK    5  A    between atoms: C_17  and  C_18 
REMARK    6  A    between atoms: C_18  and  C_19 
REMARK    7  A    between atoms: C_19  and  N_20 
REMARK       I    between atoms: N_20  and  C_21 
REMARK    8  A    between atoms: C_21  and  C_22 
ROOT
HETATM    1  C   UNL     1     -42.346  57.841 -54.740  1.00  0.00     0.156 C 
HETATM    2  N   UNL     1     -41.773  56.763 -54.306  1.00  0.00    -0.184 NA
ENDROOT
BRANCH   2   3
HETATM    3  N   UNL     1     -41.411  56.730 -52.979  1.00  0.00    -0.247 N 
HETATM    4  C   UNL     1     -42.193  56.182 -51.963  1.00  0.00     0.239 C 
HETATM    5  O   UNL     1     -43.325  55.729 -52.106  1.00  0.00    -0.272 OA
HETATM    6  H   UNL     1     -40.406  56.760 -52.832  1.00  0.00     0.192 HD
BRANCH   4   7
HETATM    7  C   UNL     1     -41.506  56.262 -50.617  1.00  0.00     0.124 C 
BRANCH   7   8
HETATM    8  C   UNL     1     -41.615  54.938 -49.868  1.00  0.00     0.132 C 
BRANCH   8   9
HETATM    9  N   UNL     1     -41.408  53.773 -50.714  1.00  0.00    -0.356 N 
HETATM   10  C   UNL     1     -40.147  53.282 -50.986  1.00  0.00     0.251 C 
HETATM   11  O   UNL     1     -39.130  53.712 -50.451  1.00  0.00    -0.268 OA
HETATM   12  H   UNL     1     -42.149  53.560 -51.367  1.00  0.00     0.162 HD
BRANCH  10  13
HETATM   13  C   UNL     1     -40.058  52.200 -52.010  1.00  0.00     0.032 A 
HETATM   14  C   UNL     1     -39.618  50.905 -51.699  1.00  0.00     0.017 A 
HETATM   15  C   UNL     1     -39.565  49.925 -52.695  1.00  0.00     0.001 A 
HETATM   16  C   UNL     1     -39.936  50.235 -54.003  1.00  0.00     0.000 A 
HETATM   17  C   UNL     1     -40.354  51.526 -54.323  1.00  0.00     0.001 A 
HETATM   18  C   UNL     1     -40.413  52.506 -53.330  1.00  0.00     0.017 A 
ENDBRANCH  10  13
ENDBRANCH   8   9
ENDBRANCH   7   8
ENDBRANCH   4   7
ENDBRANCH   2   3
BRANCH   1  19
HETATM   19  C   UNL     1     -42.769  57.917 -56.118  1.00  0.00     0.062 C 
HETATM   20  C   UNL     1     -42.642  58.953 -57.074  1.00  0.00     0.067 C 
HETATM   21  C   UNL     1     -42.015  60.288 -56.906  1.00  0.00     0.073 C 
HETATM   22  N   UNL     1     -43.140  58.601 -58.265  1.00  0.00    -0.169 NA
HETATM   23  N   UNL     1     -43.703  57.380 -58.063  1.00  0.00    -0.210 N 
HETATM   24  C   UNL     1     -43.364  56.877 -56.807  1.00  0.00     0.177 C 
BRANCH  23  25
HETATM   25  C   UNL     1     -44.523  56.797 -59.074  1.00  0.00     0.061 A 
HETATM   26  C   UNL     1     -45.861  57.204 -59.189  1.00  0.00     0.031 A 
HETATM   27  C   UNL     1     -46.685  56.651 -60.172  1.00  0.00     0.002 A 
HETATM   28  C   UNL     1     -46.185  55.677 -61.035  1.00  0.00     0.000 A 
HETATM   29  C   UNL     1     -44.867  55.245 -60.907  1.00  0.00     0.002 A 
HETATM   30  C   UNL     1     -44.037  55.796 -59.926  1.00  0.00     0.031 A 
ENDBRANCH  23  25
BRANCH  24  31
HETATM   31  O   UNL     1     -43.572  55.621 -56.399  1.00  0.00    -0.344 OA
HETATM   32  H   UNL     1     -43.550  55.038 -57.181  1.00  0.00     0.219 HD
ENDBRANCH  24  31
ENDBRANCH   1  19
TORSDOF 8
ENDMDL
MODEL 2
REMARK VINA RESULT:      -7.7      2.584      9.335
REMARK  8 active torsions:
REMARK  status: ('A' for Active; 'I' for Inactive)
REMARK    1  A    between atoms: N_4  and  C_5 
REMARK    2  A    between atoms: C_11  and  O_12 
REMARK    3  A    between atoms: C_13  and  C_14 
REMARK    4  A    between atoms: N_15  and  N_16 
REMARK       I    between atoms: N_16  and  C_17 
REMARK    5  A    between atoms: C_17  and  C_18 
REMARK    6  A    between atoms: C_18  and  C_19 
REMARK    7  A    between atoms: C_19  and  N_20 
REMARK       I    between atoms: N_20  and  C_21 
REMARK    8  A    between atoms: C_21  and  C_22 
ROOT
HETATM    1  C   UNL     1     -42.822  56.596 -56.108  1.00  0.00     0.156 C 
HETATM    2  N   UNL     1     -43.068  55.905 -57.177  1.00  0.00    -0.184 NA
ENDROOT
BRANCH   2   3
HETATM    3  N   UNL     1     -43.754  56.534 -58.190  1.00  0.00    -0.247 N 
HETATM    4  C   UNL     1     -43.382  56.499 -59.533  1.00  0.00     0.239 C 
HETATM    5  O   UNL     1     -42.364  55.971 -59.974  1.00  0.00    -0.272 OA
HETATM    6  H   UNL     1     -44.737  56.686 -57.980  1.00  0.00     0.192 HD
BRANCH   4   7
HETATM    7  C   UNL     1     -44.359  57.253 -60.409  1.00  0.00     0.124 C 
BRANCH   7   8
HETATM    8  C   UNL     1     -44.594  58.663 -59.880  1.00  0.00     0.132 C 
BRANCH   8   9
HETATM    9  N   UNL     1     -43.526  59.594 -60.210  1.00  0.00    -0.356 N 
HETATM   10  C   UNL     1     -42.544  59.930 -59.301  1.00  0.00     0.251 C 
HETATM   11  O   UNL     1     -42.431  59.391 -58.204  1.00  0.00    -0.268 OA
HETATM   12  H   UNL     1     -43.717  60.243 -60.961  1.00  0.00     0.162 HD
BRANCH  10  13
HETATM   13  C   UNL     1     -41.615  61.030 -59.696  1.00  0.00     0.032 A 
HETATM   14  C   UNL     1     -40.858  61.747 -58.759  1.00  0.00     0.017 A 
HETATM   15  C   UNL     1     -39.994  62.761 -59.185  1.00  0.00     0.001 A 
HETATM   16  C   UNL     1     -39.893  63.071 -60.541  1.00  0.00     0.000 A 
HETATM   17  C   UNL     1     -40.659  62.376 -61.475  1.00  0.00     0.001 A 
HETATM   18  C   UNL     1     -41.519  61.360 -61.054  1.00  0.00     0.017 A 
ENDBRANCH  10  13
ENDBRANCH   8   9
ENDBRANCH   7   8
ENDBRANCH   4   7
ENDBRANCH   2   3
BRANCH   1  19
HETATM   19  C   UNL     1     -42.081  55.991 -55.026  1.00  0.00     0.062 C 
HETATM   20  C   UNL     1     -41.313  56.571 -53.988  1.00  0.00     0.067 C 
HETATM   21  C   UNL     1     -41.056  58.009 -53.725  1.00  0.00     0.073 C 
HETATM   22  N   UNL     1     -40.816  55.647 -53.156  1.00  0.00    -0.169 NA
HETATM   23  N   UNL     1     -41.155  54.454 -53.713  1.00  0.00    -0.210 N 
HETATM   24  C   UNL     1     -42.049  54.634 -54.770  1.00  0.00     0.177 C 
BRANCH  23  25
HETATM   25  C   UNL     1     -40.596  53.245 -53.204  1.00  0.00     0.061 A 
HETATM   26  C   UNL     1     -40.439  53.094 -51.817  1.00  0.00     0.031 A 
HETATM   27  C   UNL     1     -39.897  51.919 -51.293  1.00  0.00     0.002 A 
HETATM   28  C   UNL     1     -39.492  50.894 -52.146  1.00  0.00     0.000 A 
HETATM   29  C   UNL     1     -39.616  51.048 -53.526  1.00  0.00     0.002 A 
HETATM   30  C   UNL     1     -40.160  52.222 -54.057  1.00  0.00     0.031 A 
ENDBRANCH  23  25
BRANCH  24  31
HETATM   31  O   UNL     1     -42.735  53.657 -55.371  1.00  0.00    -0.344 OA
HETATM   32  H   UNL     1     -43.516  54.052 -55.801  1.00  0.00     0.219 HD
ENDBRANCH  24  31
ENDBRANCH   1  19
TORSDOF 8
ENDMDL
MODEL 3
REMARK VINA RESULT:      -7.7      5.103      8.175
REMARK  8 active torsions:
REMARK  status: ('A' for Active; 'I' for Inactive)
REMARK    1  A    between atoms: N_4  and  C_5 
REMARK    2  A    between atoms: C_11  and  O_12 
REMARK    3  A    between atoms: C_13  and  C_14 
REMARK    4  A    between atoms: N_15  and  N_16 
REMARK       I    between atoms: N_16  and  C_17 
REMARK    5  A    between atoms: C_17  and  C_18 
REMARK    6  A    between atoms: C_18  and  C_19 
REMARK    7  A    between atoms: C_19  and  N_20 
REMARK       I    between atoms: N_20  and  C_21 
REMARK    8  A    between atoms: C_21  and  C_22 
ROOT
HETATM    1  C   UNL     1     -45.237  59.252 -52.074  1.00  0.00     0.156 C 
HETATM    2  N   UNL     1     -44.748  58.106 -51.715  1.00  0.00    -0.184 NA
ENDROOT
BRANCH   2   3
HETATM    3  N   UNL     1     -44.770  57.092 -52.645  1.00  0.00    -0.247 N 
HETATM    4  C   UNL     1     -43.669  56.698 -53.405  1.00  0.00     0.239 C 
HETATM    5  O   UNL     1     -42.570  57.245 -53.399  1.00  0.00    -0.272 OA
HETATM    6  H   UNL     1     -45.492  56.399 -52.472  1.00  0.00     0.192 HD
BRANCH   4   7
HETATM    7  C   UNL     1     -43.998  55.530 -54.310  1.00  0.00     0.124 C 
BRANCH   7   8
HETATM    8  C   UNL     1     -42.754  55.037 -55.041  1.00  0.00     0.132 C 
BRANCH   8   9
HETATM    9  N   UNL     1     -42.224  53.790 -54.512  1.00  0.00    -0.356 N 
HETATM   10  C   UNL     1     -41.011  53.731 -53.856  1.00  0.00     0.251 C 
HETATM   11  O   UNL     1     -40.353  54.726 -53.572  1.00  0.00    -0.268 OA
HETATM   12  H   UNL     1     -42.573  52.942 -54.938  1.00  0.00     0.162 HD
BRANCH  10  13
HETATM   13  C   UNL     1     -40.496  52.370 -53.525  1.00  0.00     0.032 A 
HETATM   14  C   UNL     1     -40.533  51.309 -54.442  1.00  0.00     0.017 A 
HETATM   15  C   UNL     1     -40.025  50.056 -54.084  1.00  0.00     0.001 A 
HETATM   16  C   UNL     1     -39.494  49.854 -52.811  1.00  0.00     0.000 A 
HETATM   17  C   UNL     1     -39.474  50.898 -51.888  1.00  0.00     0.001 A 
HETATM   18  C   UNL     1     -39.975  52.152 -52.243  1.00  0.00     0.017 A 
ENDBRANCH  10  13
ENDBRANCH   8   9
ENDBRANCH   7   8
ENDBRANCH   4   7
ENDBRANCH   2   3
BRANCH   1  19
HETATM   19  C   UNL     1     -45.214  60.356 -51.144  1.00  0.00     0.062 C 
HETATM   20  C   UNL     1     -44.999  61.740 -51.350  1.00  0.00     0.067 C 
HETATM   21  C   UNL     1     -44.730  62.451 -52.626  1.00  0.00     0.073 C 
HETATM   22  N   UNL     1     -45.101  62.438 -50.212  1.00  0.00    -0.169 NA
HETATM   23  N   UNL     1     -45.264  61.503 -49.240  1.00  0.00    -0.210 N 
HETATM   24  C   UNL     1     -45.483  60.241 -49.794  1.00  0.00     0.177 C 
BRANCH  23  25
HETATM   25  C   UNL     1     -45.188  61.882 -47.867  1.00  0.00     0.061 A 
HETATM   26  C   UNL     1     -45.408  63.222 -47.513  1.00  0.00     0.031 A 
HETATM   27  C   UNL     1     -45.342  63.618 -46.175  1.00  0.00     0.002 A 
HETATM   28  C   UNL     1     -45.040  62.686 -45.184  1.00  0.00     0.000 A 
HETATM   29  C   UNL     1     -44.790  61.359 -45.531  1.00  0.00     0.002 A 
HETATM   30  C   UNL     1     -44.856  60.956 -46.868  1.00  0.00     0.031 A 
ENDBRANCH  23  25
BRANCH  24  31
HETATM   31  O   UNL     1     -45.895  59.165 -49.117  1.00  0.00    -0.344 OA
HETATM   32  H   UNL     1     -46.014  58.432 -49.749  1.00  0.00     0.219 HD
ENDBRANCH  24  31
ENDBRANCH   1  19
TORSDOF 8
ENDMDL
MODEL 4
REMARK VINA RESULT:      -7.7      2.104      8.114
REMARK  8 active torsions:
REMARK  status: ('A' for Active; 'I' for Inactive)
REMARK    1  A    between atoms: N_4  and  C_5 
REMARK    2  A    between atoms: C_11  and  O_12 
REMARK    3  A    between atoms: C_13  and  C_14 
REMARK    4  A    between atoms: N_15  and  N_16 
REMARK       I    between atoms: N_16  and  C_17 
REMARK    5  A    between atoms: C_17  and  C_18 
REMARK    6  A    between atoms: C_18  and  C_19 
REMARK    7  A    between atoms: C_19  and  N_20 
REMARK       I    between atoms: N_20  and  C_21 
REMARK    8  A    between atoms: C_21  and  C_22 
ROOT
HETATM    1  C   UNL     1     -42.102  56.593 -51.818  1.00  0.00     0.156 C 
HETATM    2  N   UNL     1     -42.119  57.061 -53.026  1.00  0.00    -0.184 NA
ENDROOT
BRANCH   2   3
HETATM    3  N   UNL     1     -42.579  58.346 -53.199  1.00  0.00    -0.247 N 
HETATM    4  C   UNL     1     -41.784  59.420 -53.594  1.00  0.00     0.239 C 
HETATM    5  O   UNL     1     -40.568  59.378 -53.765  1.00  0.00    -0.272 OA
HETATM    6  H   UNL     1     -43.572  58.395 -53.411  1.00  0.00     0.192 HD
BRANCH   4   7
HETATM    7  C   UNL     1     -42.587  60.696 -53.735  1.00  0.00     0.124 C 
BRANCH   7   8
HETATM    8  C   UNL     1     -42.924  60.971 -55.196  1.00  0.00     0.132 C 
BRANCH   8   9
HETATM    9  N   UNL     1     -42.922  59.779 -56.028  1.00  0.00    -0.356 N 
HETATM   10  C   UNL     1     -42.056  59.633 -57.093  1.00  0.00     0.251 C 
HETATM   11  O   UNL     1     -41.159  60.432 -57.343  1.00  0.00    -0.268 OA
HETATM   12  H   UNL     1     -43.777  59.241 -56.039  1.00  0.00     0.162 HD
BRANCH  10  13
HETATM   13  C   UNL     1     -42.277  58.451 -57.977  1.00  0.00     0.032 A 
HETATM   14  C   UNL     1     -42.737  57.220 -57.486  1.00  0.00     0.017 A 
HETATM   15  C   UNL     1     -42.938  56.148 -58.361  1.00  0.00     0.001 A 
HETATM   16  C   UNL     1     -42.669  56.294 -59.721  1.00  0.00     0.000 A 
HETATM   17  C   UNL     1     -42.192  57.508 -60.212  1.00  0.00     0.001 A 
HETATM   18  C   UNL     1     -41.994  58.583 -59.343  1.00  0.00     0.017 A 
ENDBRANCH  10  13
ENDBRANCH   8   9
ENDBRANCH   7   8
ENDBRANCH   4   7
ENDBRANCH   2   3
BRANCH   1  19
HETATM   19  C   UNL     1     -41.603  55.260 -51.578  1.00  0.00     0.062 C 
HETATM   20  C   UNL     1     -41.162  54.632 -50.389  1.00  0.00     0.067 C 
HETATM   21  C   UNL     1     -41.092  55.200 -49.019  1.00  0.00     0.073 C 
HETATM   22  N   UNL     1     -40.812  53.357 -50.595  1.00  0.00    -0.169 NA
HETATM   23  N   UNL     1     -40.908  53.179 -51.938  1.00  0.00    -0.210 N 
HETATM   24  C   UNL     1     -41.527  54.274 -52.543  1.00  0.00     0.177 C 
BRANCH  23  25
HETATM   25  C   UNL     1     -40.396  51.990 -52.539  1.00  0.00     0.061 A 
HETATM   26  C   UNL     1     -39.889  50.972 -51.717  1.00  0.00     0.031 A 
HETATM   27  C   UNL     1     -39.385  49.797 -52.280  1.00  0.00     0.002 A 
HETATM   28  C   UNL     1     -39.367  49.637 -53.664  1.00  0.00     0.000 A 
HETATM   29  C   UNL     1     -39.840  50.656 -54.488  1.00  0.00     0.002 A 
HETATM   30  C   UNL     1     -40.348  51.834 -53.931  1.00  0.00     0.031 A 
ENDBRANCH  23  25
BRANCH  24  31
HETATM   31  O   UNL     1     -41.964  54.309 -53.805  1.00  0.00    -0.344 OA
HETATM   32  H   UNL     1     -41.206  54.501 -54.387  1.00  0.00     0.219 HD
ENDBRANCH  24  31
ENDBRANCH   1  19
TORSDOF 8
ENDMDL
MODEL 5
REMARK VINA RESULT:      -7.4      6.036      9.855
REMARK  8 active torsions:
REMARK  status: ('A' for Active; 'I' for Inactive)
REMARK    1  A    between atoms: N_4  and  C_5 
REMARK    2  A    between atoms: C_11  and  O_12 
REMARK    3  A    between atoms: C_13  and  C_14 
REMARK    4  A    between atoms: N_15  and  N_16 
REMARK       I    between atoms: N_16  and  C_17 
REMARK    5  A    between atoms: C_17  and  C_18 
REMARK    6  A    between atoms: C_18  and  C_19 
REMARK    7  A    between atoms: C_19  and  N_20 
REMARK       I    between atoms: N_20  and  C_21 
REMARK    8  A    between atoms: C_21  and  C_22 
ROOT
HETATM    1  C   UNL     1     -42.465  58.018 -51.419  1.00  0.00     0.156 C 
HETATM    2  N   UNL     1     -43.720  58.265 -51.210  1.00  0.00    -0.184 NA
ENDROOT
BRANCH   2   3
HETATM    3  N   UNL     1     -44.027  59.319 -50.380  1.00  0.00    -0.247 N 
HETATM    4  C   UNL     1     -45.310  59.609 -49.918  1.00  0.00     0.239 C 
HETATM    5  O   UNL     1     -46.334  59.016 -50.247  1.00  0.00    -0.272 OA
HETATM    6  H   UNL     1     -43.243  59.628 -49.811  1.00  0.00     0.192 HD
BRANCH   4   7
HETATM    7  C   UNL     1     -45.319  60.805 -48.990  1.00  0.00     0.124 C 
BRANCH   7   8
HETATM    8  C   UNL     1     -45.934  60.447 -47.642  1.00  0.00     0.132 C 
BRANCH   8   9
HETATM    9  N   UNL     1     -45.238  61.038 -46.510  1.00  0.00    -0.356 N 
HETATM   10  C   UNL     1     -45.751  62.117 -45.819  1.00  0.00     0.251 C 
HETATM   11  O   UNL     1     -46.868  62.578 -46.028  1.00  0.00    -0.268 OA
HETATM   12  H   UNL     1     -44.240  60.884 -46.471  1.00  0.00     0.162 HD
BRANCH  10  13
HETATM   13  C   UNL     1     -44.858  62.743 -44.800  1.00  0.00     0.032 A 
HETATM   14  C   UNL     1     -44.742  64.133 -44.654  1.00  0.00     0.017 A 
HETATM   15  C   UNL     1     -43.900  64.667 -43.675  1.00  0.00     0.001 A 
HETATM   16  C   UNL     1     -43.161  63.821 -42.848  1.00  0.00     0.000 A 
HETATM   17  C   UNL     1     -43.256  62.439 -43.002  1.00  0.00     0.001 A 
HETATM   18  C   UNL     1     -44.099  61.901 -43.976  1.00  0.00     0.017 A 
ENDBRANCH  10  13
ENDBRANCH   8   9
ENDBRANCH   7   8
ENDBRANCH   4   7
ENDBRANCH   2   3
BRANCH   1  19
HETATM   19  C   UNL     1     -42.090  56.940 -52.303  1.00  0.00     0.062 C 
HETATM   20  C   UNL     1     -42.351  56.733 -53.679  1.00  0.00     0.067 C 
HETATM   21  C   UNL     1     -43.108  57.603 -54.613  1.00  0.00     0.073 C 
HETATM   22  N   UNL     1     -41.783  55.609 -54.133  1.00  0.00    -0.169 NA
HETATM   23  N   UNL     1     -41.250  55.016 -53.033  1.00  0.00    -0.210 N 
HETATM   24  C   UNL     1     -41.294  55.873 -51.933  1.00  0.00     0.177 C 
BRANCH  23  25
HETATM   25  C   UNL     1     -40.752  53.681 -53.113  1.00  0.00     0.061 A 
HETATM   26  C   UNL     1     -40.242  53.070 -51.957  1.00  0.00     0.031 A 
HETATM   27  C   UNL     1     -39.751  51.764 -52.008  1.00  0.00     0.002 A 
HETATM   28  C   UNL     1     -39.751  51.064 -53.214  1.00  0.00     0.000 A 
HETATM   29  C   UNL     1     -40.227  51.674 -54.372  1.00  0.00     0.002 A 
HETATM   30  C   UNL     1     -40.721  52.982 -54.328  1.00  0.00     0.031 A 
ENDBRANCH  23  25
BRANCH  24  31
HETATM   31  O   UNL     1     -40.657  55.673 -50.776  1.00  0.00    -0.344 OA
HETATM   32  H   UNL     1     -40.945  54.815 -50.412  1.00  0.00     0.219 HD
ENDBRANCH  24  31
ENDBRANCH   1  19
TORSDOF 8
ENDMDL
MODEL 6
REMARK VINA RESULT:      -7.4      2.824      3.759
REMARK  8 active torsions:
REMARK  status: ('A' for Active; 'I' for Inactive)
REMARK    1  A    between atoms: N_4  and  C_5 
REMARK    2  A    between atoms: C_11  and  O_12 
REMARK    3  A    between atoms: C_13  and  C_14 
REMARK    4  A    between atoms: N_15  and  N_16 
REMARK       I    between atoms: N_16  and  C_17 
REMARK    5  A    between atoms: C_17  and  C_18 
REMARK    6  A    between atoms: C_18  and  C_19 
REMARK    7  A    between atoms: C_19  and  N_20 
REMARK       I    between atoms: N_20  and  C_21 
REMARK    8  A    between atoms: C_21  and  C_22 
ROOT
HETATM    1  C   UNL     1     -42.999  56.950 -56.903  1.00  0.00     0.156 C 
HETATM    2  N   UNL     1     -42.294  57.721 -56.136  1.00  0.00    -0.184 NA
ENDROOT
BRANCH   2   3
HETATM    3  N   UNL     1     -42.006  57.260 -54.872  1.00  0.00    -0.247 N 
HETATM    4  C   UNL     1     -41.363  58.011 -53.889  1.00  0.00     0.239 C 
HETATM    5  O   UNL     1     -40.909  59.141 -54.042  1.00  0.00    -0.272 OA
HETATM    6  H   UNL     1     -42.621  56.512 -54.564  1.00  0.00     0.192 HD
BRANCH   4   7
HETATM    7  C   UNL     1     -41.226  57.242 -52.592  1.00  0.00     0.124 C 
BRANCH   7   8
HETATM    8  C   UNL     1     -42.130  56.015 -52.584  1.00  0.00     0.132 C 
BRANCH   8   9
HETATM    9  N   UNL     1     -41.405  54.758 -52.484  1.00  0.00    -0.356 N 
HETATM   10  C   UNL     1     -41.143  53.975 -53.590  1.00  0.00     0.251 C 
HETATM   11  O   UNL     1     -41.396  54.328 -54.737  1.00  0.00    -0.268 OA
HETATM   12  H   UNL     1     -41.416  54.308 -51.579  1.00  0.00     0.162 HD
BRANCH  10  13
HETATM   13  C   UNL     1     -40.556  52.627 -53.331  1.00  0.00     0.032 A 
HETATM   14  C   UNL     1     -40.487  51.635 -54.320  1.00  0.00     0.017 A 
HETATM   15  C   UNL     1     -39.916  50.393 -54.026  1.00  0.00     0.001 A 
HETATM   16  C   UNL     1     -39.425  50.132 -52.747  1.00  0.00     0.000 A 
HETATM   17  C   UNL     1     -39.511  51.106 -51.755  1.00  0.00     0.001 A 
HETATM   18  C   UNL     1     -40.076  52.350 -52.044  1.00  0.00     0.017 A 
ENDBRANCH  10  13
ENDBRANCH   8   9
ENDBRANCH   7   8
ENDBRANCH   4   7
ENDBRANCH   2   3
BRANCH   1  19
HETATM   19  C   UNL     1     -43.307  57.375 -58.248  1.00  0.00     0.062 C 
HETATM   20  C   UNL     1     -43.687  56.634 -59.393  1.00  0.00     0.067 C 
HETATM   21  C   UNL     1     -43.879  55.167 -59.518  1.00  0.00     0.073 C 
HETATM   22  N   UNL     1     -43.921  57.425 -60.447  1.00  0.00    -0.169 NA
HETATM   23  N   UNL     1     -43.579  58.673 -60.033  1.00  0.00    -0.210 N 
HETATM   24  C   UNL     1     -43.343  58.694 -58.658  1.00  0.00     0.177 C 
BRANCH  23  25
HETATM   25  C   UNL     1     -43.495  59.739 -60.976  1.00  0.00     0.061 A 
HETATM   26  C   UNL     1     -42.233  60.236 -61.339  1.00  0.00     0.031 A 
HETATM   27  C   UNL     1     -42.123  61.277 -62.262  1.00  0.00     0.002 A 
HETATM   28  C   UNL     1     -43.269  61.843 -62.817  1.00  0.00     0.000 A 
HETATM   29  C   UNL     1     -44.527  61.377 -62.440  1.00  0.00     0.002 A 
HETATM   30  C   UNL     1     -44.644  60.333 -61.517  1.00  0.00     0.031 A 
ENDBRANCH  23  25
BRANCH  24  31
HETATM   31  O   UNL     1     -43.207  59.799 -57.918  1.00  0.00    -0.344 OA
HETATM   32  H   UNL     1     -42.729  59.563 -57.101  1.00  0.00     0.219 HD
ENDBRANCH  24  31
ENDBRANCH   1  19
TORSDOF 8
ENDMDL
MODEL 7
REMARK VINA RESULT:      -7.3      2.045      2.797
REMARK  8 active torsions:
REMARK  status: ('A' for Active; 'I' for Inactive)
REMARK    1  A    between atoms: N_4  and  C_5 
REMARK    2  A    between atoms: C_11  and  O_12 
REMARK    3  A    between atoms: C_13  and  C_14 
REMARK    4  A    between atoms: N_15  and  N_16 
REMARK       I    between atoms: N_16  and  C_17 
REMARK    5  A    between atoms: C_17  and  C_18 
REMARK    6  A    between atoms: C_18  and  C_19 
REMARK    7  A    between atoms: C_19  and  N_20 
REMARK       I    between atoms: N_20  and  C_21 
REMARK    8  A    between atoms: C_21  and  C_22 
ROOT
HETATM    1  C   UNL     1     -44.593  57.994 -55.730  1.00  0.00     0.156 C 
HETATM    2  N   UNL     1     -44.376  56.940 -55.009  1.00  0.00    -0.184 NA
ENDROOT
BRANCH   2   3
HETATM    3  N   UNL     1     -44.176  57.127 -53.660  1.00  0.00    -0.247 N 
HETATM    4  C   UNL     1     -42.925  57.273 -53.063  1.00  0.00     0.239 C 
HETATM    5  O   UNL     1     -41.847  57.181 -53.642  1.00  0.00    -0.272 OA
HETATM    6  H   UNL     1     -44.974  57.543 -53.187  1.00  0.00     0.192 HD
BRANCH   4   7
HETATM    7  C   UNL     1     -43.036  57.504 -51.571  1.00  0.00     0.124 C 
BRANCH   7   8
HETATM    8  C   UNL     1     -43.261  56.191 -50.829  1.00  0.00     0.132 C 
BRANCH   8   9
HETATM    9  N   UNL     1     -42.635  55.045 -51.471  1.00  0.00    -0.356 N 
HETATM   10  C   UNL     1     -41.306  54.732 -51.270  1.00  0.00     0.251 C 
HETATM   11  O   UNL     1     -40.594  55.315 -50.459  1.00  0.00    -0.268 OA
HETATM   12  H   UNL     1     -43.075  54.713 -52.317  1.00  0.00     0.162 HD
BRANCH  10  13
HETATM   13  C   UNL     1     -40.738  53.648 -52.124  1.00  0.00     0.032 A 
HETATM   14  C   UNL     1     -40.903  53.624 -53.517  1.00  0.00     0.017 A 
HETATM   15  C   UNL     1     -40.339  52.591 -54.271  1.00  0.00     0.001 A 
HETATM   16  C   UNL     1     -39.624  51.573 -53.641  1.00  0.00     0.000 A 
HETATM   17  C   UNL     1     -39.475  51.579 -52.256  1.00  0.00     0.001 A 
HETATM   18  C   UNL     1     -40.032  52.612 -51.499  1.00  0.00     0.017 A 
ENDBRANCH  10  13
ENDBRANCH   8   9
ENDBRANCH   7   8
ENDBRANCH   4   7
ENDBRANCH   2   3
BRANCH   1  19
HETATM   19  C   UNL     1     -44.834  57.850 -57.146  1.00  0.00     0.062 C 
HETATM   20  C   UNL     1     -43.937  57.718 -58.233  1.00  0.00     0.067 C 
HETATM   21  C   UNL     1     -42.453  57.689 -58.204  1.00  0.00     0.073 C 
HETATM   22  N   UNL     1     -44.579  57.568 -59.397  1.00  0.00    -0.169 NA
HETATM   23  N   UNL     1     -45.895  57.722 -59.096  1.00  0.00    -0.210 N 
HETATM   24  C   UNL     1     -46.090  57.749 -57.714  1.00  0.00     0.177 C 
BRANCH  23  25
HETATM   25  C   UNL     1     -46.858  57.842 -60.141  1.00  0.00     0.061 A 
HETATM   26  C   UNL     1     -47.216  56.701 -60.876  1.00  0.00     0.031 A 
HETATM   27  C   UNL     1     -48.158  56.790 -61.903  1.00  0.00     0.002 A 
HETATM   28  C   UNL     1     -48.736  58.019 -62.216  1.00  0.00     0.000 A 
HETATM   29  C   UNL     1     -48.362  59.163 -61.512  1.00  0.00     0.002 A 
HETATM   30  C   UNL     1     -47.421  59.080 -60.482  1.00  0.00     0.031 A 
ENDBRANCH  23  25
BRANCH  24  31
HETATM   31  O   UNL     1     -47.275  57.666 -57.102  1.00  0.00    -0.344 OA
HETATM   32  H   UNL     1     -47.798  58.454 -57.340  1.00  0.00     0.219 HD
ENDBRANCH  24  31
ENDBRANCH   1  19
TORSDOF 8
ENDMDL
MODEL 8
REMARK VINA RESULT:      -7.3      1.653      8.324
REMARK  8 active torsions:
REMARK  status: ('A' for Active; 'I' for Inactive)
REMARK    1  A    between atoms: N_4  and  C_5 
REMARK    2  A    between atoms: C_11  and  O_12 
REMARK    3  A    between atoms: C_13  and  C_14 
REMARK    4  A    between atoms: N_15  and  N_16 
REMARK       I    between atoms: N_16  and  C_17 
REMARK    5  A    between atoms: C_17  and  C_18 
REMARK    6  A    between atoms: C_18  and  C_19 
REMARK    7  A    between atoms: C_19  and  N_20 
REMARK       I    between atoms: N_20  and  C_21 
REMARK    8  A    between atoms: C_21  and  C_22 
ROOT
HETATM    1  C   UNL     1     -42.341  57.327 -53.481  1.00  0.00     0.156 C 
HETATM    2  N   UNL     1     -41.764  57.810 -54.536  1.00  0.00    -0.184 NA
ENDROOT
BRANCH   2   3
HETATM    3  N   UNL     1     -42.281  58.971 -55.063  1.00  0.00    -0.247 N 
HETATM    4  C   UNL     1     -42.295  59.281 -56.422  1.00  0.00     0.239 C 
HETATM    5  O   UNL     1     -41.786  58.602 -57.310  1.00  0.00    -0.272 OA
HETATM    6  H   UNL     1     -42.993  59.400 -54.477  1.00  0.00     0.192 HD
BRANCH   4   7
HETATM    7  C   UNL     1     -42.967  60.610 -56.691  1.00  0.00     0.124 C 
BRANCH   7   8
HETATM    8  C   UNL     1     -44.406  60.412 -57.155  1.00  0.00     0.132 C 
BRANCH   8   9
HETATM    9  N   UNL     1     -44.558  59.355 -58.142  1.00  0.00    -0.356 N 
HETATM   10  C   UNL     1     -45.361  58.255 -57.915  1.00  0.00     0.251 C 
HETATM   11  O   UNL     1     -46.085  58.143 -56.931  1.00  0.00    -0.268 OA
HETATM   12  H   UNL     1     -43.811  59.263 -58.816  1.00  0.00     0.162 HD
BRANCH  10  13
HETATM   13  C   UNL     1     -45.289  57.156 -58.923  1.00  0.00     0.032 A 
HETATM   14  C   UNL     1     -46.374  56.816 -59.743  1.00  0.00     0.017 A 
HETATM   15  C   UNL     1     -46.249  55.786 -60.679  1.00  0.00     0.001 A 
HETATM   16  C   UNL     1     -45.050  55.083 -60.792  1.00  0.00     0.000 A 
HETATM   17  C   UNL     1     -43.974  55.402 -59.965  1.00  0.00     0.001 A 
HETATM   18  C   UNL     1     -44.093  56.433 -59.031  1.00  0.00     0.017 A 
ENDBRANCH  10  13
ENDBRANCH   8   9
ENDBRANCH   7   8
ENDBRANCH   4   7
ENDBRANCH   2   3
BRANCH   1  19
HETATM   19  C   UNL     1     -41.821  56.125 -52.873  1.00  0.00     0.062 C 
HETATM   20  C   UNL     1     -41.364  55.872 -51.557  1.00  0.00     0.067 C 
HETATM   21  C   UNL     1     -41.298  56.810 -50.408  1.00  0.00     0.073 C 
HETATM   22  N   UNL     1     -40.995  54.596 -51.392  1.00  0.00    -0.169 NA
HETATM   23  N   UNL     1     -41.094  54.038 -52.627  1.00  0.00    -0.210 N 
HETATM   24  C   UNL     1     -41.733  54.905 -53.516  1.00  0.00     0.177 C 
BRANCH  23  25
HETATM   25  C   UNL     1     -40.567  52.735 -52.866  1.00  0.00     0.061 A 
HETATM   26  C   UNL     1     -39.946  52.044 -51.814  1.00  0.00     0.031 A 
HETATM   27  C   UNL     1     -39.424  50.766 -52.021  1.00  0.00     0.002 A 
HETATM   28  C   UNL     1     -39.501  50.174 -53.280  1.00  0.00     0.000 A 
HETATM   29  C   UNL     1     -40.088  50.866 -54.338  1.00  0.00     0.002 A 
HETATM   30  C   UNL     1     -40.614  52.146 -54.138  1.00  0.00     0.031 A 
ENDBRANCH  23  25
BRANCH  24  31
HETATM   31  O   UNL     1     -42.176  54.572 -54.731  1.00  0.00    -0.344 OA
HETATM   32  H   UNL     1     -42.603  53.697 -54.672  1.00  0.00     0.219 HD
ENDBRANCH  24  31
ENDBRANCH   1  19
TORSDOF 8
ENDMDL
MODEL 9
REMARK VINA RESULT:      -7.3      2.578      4.160
REMARK  8 active torsions:
REMARK  status: ('A' for Active; 'I' for Inactive)
REMARK    1  A    between atoms: N_4  and  C_5 
REMARK    2  A    between atoms: C_11  and  O_12 
REMARK    3  A    between atoms: C_13  and  C_14 
REMARK    4  A    between atoms: N_15  and  N_16 
REMARK       I    between atoms: N_16  and  C_17 
REMARK    5  A    between atoms: C_17  and  C_18 
REMARK    6  A    between atoms: C_18  and  C_19 
REMARK    7  A    between atoms: C_19  and  N_20 
REMARK       I    between atoms: N_20  and  C_21 
REMARK    8  A    between atoms: C_21  and  C_22 
ROOT
HETATM    1  C   UNL     1     -42.555  58.549 -55.352  1.00  0.00     0.156 C 
HETATM    2  N   UNL     1     -41.967  59.175 -54.382  1.00  0.00    -0.184 NA
ENDROOT
BRANCH   2   3
HETATM    3  N   UNL     1     -42.195  58.716 -53.105  1.00  0.00    -0.247 N 
HETATM    4  C   UNL     1     -41.557  57.613 -52.539  1.00  0.00     0.239 C 
HETATM    5  O   UNL     1     -40.773  56.870 -53.124  1.00  0.00    -0.272 OA
HETATM    6  H   UNL     1     -42.539  59.433 -52.472  1.00  0.00     0.192 HD
BRANCH   4   7
HETATM    7  C   UNL     1     -41.990  57.383 -51.107  1.00  0.00     0.124 C 
BRANCH   7   8
HETATM    8  C   UNL     1     -42.837  56.122 -50.987  1.00  0.00     0.132 C 
BRANCH   8   9
HETATM    9  N   UNL     1     -42.273  54.974 -51.681  1.00  0.00    -0.356 N 
HETATM   10  C   UNL     1     -41.317  54.167 -51.099  1.00  0.00     0.251 C 
HETATM   11  O   UNL     1     -40.961  54.282 -49.931  1.00  0.00    -0.268 OA
HETATM   12  H   UNL     1     -42.324  54.995 -52.689  1.00  0.00     0.162 HD
BRANCH  10  13
HETATM   13  C   UNL     1     -40.688  53.137 -51.978  1.00  0.00     0.032 A 
HETATM   14  C   UNL     1     -39.937  52.069 -51.467  1.00  0.00     0.017 A 
HETATM   15  C   UNL     1     -39.379  51.126 -52.335  1.00  0.00     0.001 A 
HETATM   16  C   UNL     1     -39.555  51.251 -53.713  1.00  0.00     0.000 A 
HETATM   17  C   UNL     1     -40.281  52.323 -54.228  1.00  0.00     0.001 A 
HETATM   18  C   UNL     1     -40.845  53.265 -53.365  1.00  0.00     0.017 A 
ENDBRANCH  10  13
ENDBRANCH   8   9
ENDBRANCH   7   8
ENDBRANCH   4   7
ENDBRANCH   2   3
BRANCH   1  19
HETATM   19  C   UNL     1     -42.329  58.973 -56.713  1.00  0.00     0.062 C 
HETATM   20  C   UNL     1     -42.462  58.276 -57.938  1.00  0.00     0.067 C 
HETATM   21  C   UNL     1     -42.887  56.871 -58.157  1.00  0.00     0.073 C 
HETATM   22  N   UNL     1     -42.188  59.057 -58.991  1.00  0.00    -0.169 NA
HETATM   23  N   UNL     1     -41.759  60.230 -58.456  1.00  0.00    -0.210 N 
HETATM   24  C   UNL     1     -41.974  60.258 -57.078  1.00  0.00     0.177 C 
BRANCH  23  25
HETATM   25  C   UNL     1     -41.172  61.224 -59.295  1.00  0.00     0.061 A 
HETATM   26  C   UNL     1     -40.237  62.116 -58.748  1.00  0.00     0.031 A 
HETATM   27  C   UNL     1     -39.646  63.096 -59.548  1.00  0.00     0.002 A 
HETATM   28  C   UNL     1     -39.995  63.204 -60.893  1.00  0.00     0.000 A 
HETATM   29  C   UNL     1     -40.945  62.343 -61.436  1.00  0.00     0.002 A 
HETATM   30  C   UNL     1     -41.540  61.358 -60.641  1.00  0.00     0.031 A 
ENDBRANCH  23  25
BRANCH  24  31
HETATM   31  O   UNL     1     -41.868  61.342 -56.304  1.00  0.00    -0.344 OA
HETATM   32  H   UNL     1     -41.837  62.128 -56.882  1.00  0.00     0.219 HD
ENDBRANCH  24  31
ENDBRANCH   1  19
TORSDOF 8
ENDMDL
MODEL 10
REMARK VINA RESULT:      -7.3      2.277      3.168
REMARK  8 active torsions:
REMARK  status: ('A' for Active; 'I' for Inactive)
REMARK    1  A    between atoms: N_4  and  C_5 
REMARK    2  A    between atoms: C_11  and  O_12 
REMARK    3  A    between atoms: C_13  and  C_14 
REMARK    4  A    between atoms: N_15  and  N_16 
REMARK       I    between atoms: N_16  and  C_17 
REMARK    5  A    between atoms: C_17  and  C_18 
REMARK    6  A    between atoms: C_18  and  C_19 
REMARK    7  A    between atoms: C_19  and  N_20 
REMARK       I    between atoms: N_20  and  C_21 
REMARK    8  A    between atoms: C_21  and  C_22 
ROOT
HETATM    1  C   UNL     1     -43.195  57.062 -57.012  1.00  0.00     0.156 C 
HETATM    2  N   UNL     1     -42.706  57.996 -56.258  1.00  0.00    -0.184 NA
ENDROOT
BRANCH   2   3
HETATM    3  N   UNL     1     -42.110  57.608 -55.080  1.00  0.00    -0.247 N 
HETATM    4  C   UNL     1     -41.466  58.477 -54.200  1.00  0.00     0.239 C 
HETATM    5  O   UNL     1     -41.282  59.676 -54.395  1.00  0.00    -0.272 OA
HETATM    6  H   UNL     1     -42.497  56.751 -54.692  1.00  0.00     0.192 HD
BRANCH   4   7
HETATM    7  C   UNL     1     -40.947  57.757 -52.974  1.00  0.00     0.124 C 
BRANCH   7   8
HETATM    8  C   UNL     1     -41.863  56.601 -52.590  1.00  0.00     0.132 C 
BRANCH   8   9
HETATM    9  N   UNL     1     -41.180  55.319 -52.512  1.00  0.00    -0.356 N 
HETATM   10  C   UNL     1     -41.160  54.437 -53.574  1.00  0.00     0.251 C 
HETATM   11  O   UNL     1     -41.608  54.711 -54.682  1.00  0.00    -0.268 OA
HETATM   12  H   UNL     1     -41.040  54.944 -51.585  1.00  0.00     0.162 HD
BRANCH  10  13
HETATM   13  C   UNL     1     -40.587  53.085 -53.308  1.00  0.00     0.032 A 
HETATM   14  C   UNL     1     -40.087  52.713 -52.051  1.00  0.00     0.017 A 
HETATM   15  C   UNL     1     -39.572  51.429 -51.854  1.00  0.00     0.001 A 
HETATM   16  C   UNL     1     -39.540  50.517 -52.909  1.00  0.00     0.000 A 
HETATM   17  C   UNL     1     -40.015  50.887 -54.165  1.00  0.00     0.001 A 
HETATM   18  C   UNL     1     -40.535  52.167 -54.366  1.00  0.00     0.017 A 
ENDBRANCH  10  13
ENDBRANCH   8   9
ENDBRANCH   7   8
ENDBRANCH   4   7
ENDBRANCH   2   3
BRANCH   1  19
HETATM   19  C   UNL     1     -43.807  57.413 -58.271  1.00  0.00     0.062 C 
HETATM   20  C   UNL     1     -43.265  57.500 -59.576  1.00  0.00     0.067 C 
HETATM   21  C   UNL     1     -41.870  57.240 -60.013  1.00  0.00     0.073 C 
HETATM   22  N   UNL     1     -44.194  57.826 -60.484  1.00  0.00    -0.169 NA
HETATM   23  N   UNL     1     -45.319  58.072 -59.763  1.00  0.00    -0.210 N 
HETATM   24  C   UNL     1     -45.152  57.687 -58.432  1.00  0.00     0.177 C 
BRANCH  23  25
HETATM   25  C   UNL     1     -46.455  58.661 -60.393  1.00  0.00     0.061 A 
HETATM   26  C   UNL     1     -46.680  60.039 -60.250  1.00  0.00     0.031 A 
HETATM   27  C   UNL     1     -47.783  60.641 -60.858  1.00  0.00     0.002 A 
HETATM   28  C   UNL     1     -48.678  59.871 -61.599  1.00  0.00     0.000 A 
HETATM   29  C   UNL     1     -48.479  58.498 -61.721  1.00  0.00     0.002 A 
HETATM   30  C   UNL     1     -47.376  57.889 -61.115  1.00  0.00     0.031 A 
ENDBRANCH  23  25
BRANCH  24  31
HETATM   31  O   UNL     1     -46.133  57.594 -57.530  1.00  0.00    -0.344 OA
HETATM   32  H   UNL     1     -46.903  58.092 -57.862  1.00  0.00     0.219 HD
ENDBRANCH  24  31
ENDBRANCH   1  19
TORSDOF 8
ENDMDL
