MODEL 1
REMARK VINA RESULT:      -8.3      0.000      0.000
REMARK  8 active torsions:
REMARK  status: ('A' for Active; 'I' for Inactive)
REMARK    1  A    between atoms: C_3  and  S_4 
REMARK    2  A    between atoms: S_4  and  C_5 
REMARK    3  A    between atoms: C_5  and  C_6 
REMARK       I    between atoms: C_6  and  N_7 
REMARK    4  A    between atoms: N_7  and  C_8 
REMARK    5  A    between atoms: C_8  and  C_9 
REMARK    6  A    between atoms: C_17  and  C_18 
REMARK    7  A    between atoms: C_18  and  O_19 
REMARK    8  A    between atoms: O_19  and  C_20 
ROOT
HETATM    1  C   UNL     1     -42.325  59.059 -53.414  1.00  0.00     0.160 C 
HETATM    2  N   UNL     1     -42.811  58.092 -54.364  1.00  0.00    -0.314 N 
HETATM    3  C   UNL     1     -43.329  58.303 -55.611  1.00  0.00     0.191 A 
HETATM    4  N   UNL     1     -43.656  57.153 -56.154  1.00  0.00    -0.123 NA
HETATM    5  N   UNL     1     -43.327  56.161 -55.271  1.00  0.00    -0.132 NA
HETATM    6  C   UNL     1     -42.822  56.724 -54.190  1.00  0.00     0.154 A 
ENDROOT
BRANCH   3   7
HETATM    7  S   UNL     1     -43.491  59.852 -56.358  1.00  0.00    -0.081 SA
BRANCH   7   8
HETATM    8  C   UNL     1     -41.992  59.913 -57.384  1.00  0.00     0.185 C 
BRANCH   8   9
HETATM    9  C   UNL     1     -42.214  59.199 -58.706  1.00  0.00     0.227 C 
HETATM   10  N   UNL     1     -41.803  57.885 -58.724  1.00  0.00    -0.354 N 
HETATM   11  H   UNL     1     -41.123  57.605 -58.017  1.00  0.00     0.162 HD
HETATM   12  O   UNL     1     -42.721  59.754 -59.678  1.00  0.00    -0.273 OA
BRANCH  10  13
HETATM   13  C   UNL     1     -41.843  57.126 -59.951  1.00  0.00     0.187 C 
BRANCH  13  14
HETATM   14  C   UNL     1     -43.025  56.230 -59.944  1.00  0.00     0.070 A 
HETATM   15  O   UNL     1     -43.960  56.431 -60.919  1.00  0.00    -0.325 OA
HETATM   16  C   UNL     1     -44.937  55.508 -60.728  1.00  0.00     0.142 A 
HETATM   17  C   UNL     1     -44.645  54.710 -59.647  1.00  0.00     0.027 A 
HETATM   18  C   UNL     1     -43.408  55.172 -59.141  1.00  0.00     0.036 A 
ENDBRANCH  13  14
ENDBRANCH  10  13
ENDBRANCH   8   9
ENDBRANCH   7   8
ENDBRANCH   3   7
BRANCH   6  19
HETATM   19  C   UNL     1     -42.321  56.011 -52.984  1.00  0.00     0.256 C 
BRANCH  19  20
HETATM   20  O   UNL     1     -40.960  55.672 -53.243  1.00  0.00    -0.344 OA
BRANCH  20  21
HETATM   21  C   UNL     1     -40.658  54.338 -53.242  1.00  0.00     0.070 A 
HETATM   22  C   UNL     1     -40.415  53.560 -52.108  1.00  0.00     0.049 A 
HETATM   23  C   UNL     1     -40.110  52.191 -52.228  1.00  0.00    -0.023 A 
HETATM   24  C   UNL     1     -40.057  51.599 -53.510  1.00  0.00    -0.026 A 
HETATM   25  C   UNL     1     -39.855  51.396 -51.097  1.00  0.00     0.012 A 
HETATM   26  C   UNL     1     -40.320  52.387 -54.639  1.00  0.00     0.015 A 
HETATM   27  C   UNL     1     -39.746  50.235 -53.628  1.00  0.00     0.012 A 
HETATM   28  C   UNL     1     -40.624  53.743 -54.503  1.00  0.00     0.037 A 
HETATM   29  C   UNL     1     -39.491  49.461 -52.494  1.00  0.00     0.001 A 
HETATM   30  C   UNL     1     -39.546  50.041 -51.231  1.00  0.00     0.001 A 
ENDBRANCH  20  21
ENDBRANCH  19  20
ENDBRANCH   6  19
TORSDOF 8
ENDMDL
MODEL 2
REMARK VINA RESULT:      -8.2      1.113      2.063
REMARK  8 active torsions:
REMARK  status: ('A' for Active; 'I' for Inactive)
REMARK    1  A    between atoms: C_3  and  S_4 
REMARK    2  A    between atoms: S_4  and  C_5 
REMARK    3  A    between atoms: C_5  and  C_6 
REMARK       I    between atoms: C_6  and  N_7 
REMARK    4  A    between atoms: N_7  and  C_8 
REMARK    5  A    between atoms: C_8  and  C_9 
REMARK    6  A    between atoms: C_17  and  C_18 
REMARK    7  A    between atoms: C_18  and  O_19 
REMARK    8  A    between atoms: O_19  and  C_20 
ROOT
HETATM    1  C   UNL     1     -43.527  56.011 -54.539  1.00  0.00     0.160 C 
HETATM    2  N   UNL     1     -43.193  57.145 -53.716  1.00  0.00    -0.314 N 
HETATM    3  C   UNL     1     -43.265  58.475 -54.021  1.00  0.00     0.191 A 
HETATM    4  N   UNL     1     -42.868  59.187 -52.993  1.00  0.00    -0.123 NA
HETATM    5  N   UNL     1     -42.553  58.323 -51.979  1.00  0.00    -0.132 NA
HETATM    6  C   UNL     1     -42.743  57.092 -52.414  1.00  0.00     0.154 A 
ENDROOT
BRANCH   3   7
HETATM    7  S   UNL     1     -43.829  59.107 -55.527  1.00  0.00    -0.081 SA
BRANCH   7   8
HETATM    8  C   UNL     1     -42.334  58.978 -56.552  1.00  0.00     0.185 C 
BRANCH   8   9
HETATM    9  C   UNL     1     -42.692  58.625 -57.986  1.00  0.00     0.227 C 
HETATM   10  N   UNL     1     -42.153  57.440 -58.435  1.00  0.00    -0.354 N 
HETATM   11  H   UNL     1     -41.342  57.082 -57.931  1.00  0.00     0.162 HD
HETATM   12  O   UNL     1     -43.406  59.342 -58.683  1.00  0.00    -0.273 OA
BRANCH  10  13
HETATM   13  C   UNL     1     -42.313  57.045 -59.814  1.00  0.00     0.187 C 
BRANCH  13  14
HETATM   14  C   UNL     1     -43.351  55.990 -59.913  1.00  0.00     0.070 A 
HETATM   15  O   UNL     1     -44.030  55.899 -61.094  1.00  0.00    -0.325 OA
HETATM   16  C   UNL     1     -44.913  54.875 -60.966  1.00  0.00     0.142 A 
HETATM   17  C   UNL     1     -44.811  54.301 -59.721  1.00  0.00     0.027 A 
HETATM   18  C   UNL     1     -43.799  55.017 -59.040  1.00  0.00     0.036 A 
ENDBRANCH  13  14
ENDBRANCH  10  13
ENDBRANCH   8   9
ENDBRANCH   7   8
ENDBRANCH   3   7
BRANCH   6  19
HETATM   19  C   UNL     1     -42.534  55.845 -51.630  1.00  0.00     0.256 C 
BRANCH  19  20
HETATM   20  O   UNL     1     -41.132  55.582 -51.640  1.00  0.00    -0.344 OA
BRANCH  20  21
HETATM   21  C   UNL     1     -40.762  54.279 -51.833  1.00  0.00     0.070 A 
HETATM   22  C   UNL     1     -40.694  53.628 -53.067  1.00  0.00     0.049 A 
HETATM   23  C   UNL     1     -40.301  52.278 -53.146  1.00  0.00    -0.023 A 
HETATM   24  C   UNL     1     -39.966  51.580 -51.964  1.00  0.00    -0.026 A 
HETATM   25  C   UNL     1     -40.235  51.606 -54.378  1.00  0.00     0.012 A 
HETATM   26  C   UNL     1     -40.022  52.251 -50.734  1.00  0.00     0.015 A 
HETATM   27  C   UNL     1     -39.581  50.233 -52.043  1.00  0.00     0.012 A 
HETATM   28  C   UNL     1     -40.411  53.591 -50.673  1.00  0.00     0.037 A 
HETATM   29  C   UNL     1     -39.525  49.579 -53.275  1.00  0.00     0.001 A 
HETATM   30  C   UNL     1     -39.851  50.265 -54.442  1.00  0.00     0.001 A 
ENDBRANCH  20  21
ENDBRANCH  19  20
ENDBRANCH   6  19
TORSDOF 8
ENDMDL
MODEL 3
REMARK VINA RESULT:      -8.2      2.733      3.570
REMARK  8 active torsions:
REMARK  status: ('A' for Active; 'I' for Inactive)
REMARK    1  A    between atoms: C_3  and  S_4 
REMARK    2  A    between atoms: S_4  and  C_5 
REMARK    3  A    between atoms: C_5  and  C_6 
REMARK       I    between atoms: C_6  and  N_7 
REMARK    4  A    between atoms: N_7  and  C_8 
REMARK    5  A    between atoms: C_8  and  C_9 
REMARK    6  A    between atoms: C_17  and  C_18 
REMARK    7  A    between atoms: C_18  and  O_19 
REMARK    8  A    between atoms: O_19  and  C_20 
ROOT
HETATM    1  C   UNL     1     -44.177  57.011 -51.413  1.00  0.00     0.160 C 
HETATM    2  N   UNL     1     -42.862  57.583 -51.282  1.00  0.00    -0.314 N 
HETATM    3  C   UNL     1     -42.427  58.823 -51.657  1.00  0.00     0.191 A 
HETATM    4  N   UNL     1     -41.155  58.953 -51.362  1.00  0.00    -0.123 NA
HETATM    5  N   UNL     1     -40.741  57.796 -50.758  1.00  0.00    -0.132 NA
HETATM    6  C   UNL     1     -41.766  56.967 -50.714  1.00  0.00     0.154 A 
ENDROOT
BRANCH   3   7
HETATM    7  S   UNL     1     -43.423  60.036 -52.378  1.00  0.00    -0.081 SA
BRANCH   7   8
HETATM    8  C   UNL     1     -42.304  60.718 -53.637  1.00  0.00     0.185 C 
BRANCH   8   9
HETATM    9  C   UNL     1     -42.485  60.001 -54.964  1.00  0.00     0.227 C 
HETATM   10  N   UNL     1     -43.698  59.366 -55.111  1.00  0.00    -0.354 N 
HETATM   11  H   UNL     1     -44.212  59.150 -54.257  1.00  0.00     0.162 HD
HETATM   12  O   UNL     1     -41.616  59.993 -55.832  1.00  0.00    -0.273 OA
BRANCH  10  13
HETATM   13  C   UNL     1     -43.953  58.546 -56.272  1.00  0.00     0.187 C 
BRANCH  13  14
HETATM   14  C   UNL     1     -43.583  57.139 -55.979  1.00  0.00     0.070 A 
HETATM   15  O   UNL     1     -44.042  56.610 -54.807  1.00  0.00    -0.325 OA
HETATM   16  C   UNL     1     -43.597  55.329 -54.749  1.00  0.00     0.142 A 
HETATM   17  C   UNL     1     -42.861  55.021 -55.869  1.00  0.00     0.027 A 
HETATM   18  C   UNL     1     -42.854  56.189 -56.667  1.00  0.00     0.036 A 
ENDBRANCH  13  14
ENDBRANCH  10  13
ENDBRANCH   8   9
ENDBRANCH   7   8
ENDBRANCH   3   7
BRANCH   6  19
HETATM   19  C   UNL     1     -41.762  55.600 -50.126  1.00  0.00     0.256 C 
BRANCH  19  20
HETATM   20  O   UNL     1     -40.453  55.070 -50.327  1.00  0.00    -0.344 OA
BRANCH  20  21
HETATM   21  C   UNL     1     -40.347  54.046 -51.228  1.00  0.00     0.070 A 
HETATM   22  C   UNL     1     -40.012  52.725 -50.921  1.00  0.00     0.049 A 
HETATM   23  C   UNL     1     -39.930  51.751 -51.934  1.00  0.00    -0.023 A 
HETATM   24  C   UNL     1     -40.198  52.114 -53.273  1.00  0.00    -0.026 A 
HETATM   25  C   UNL     1     -39.586  50.420 -51.643  1.00  0.00     0.012 A 
HETATM   26  C   UNL     1     -40.550  53.439 -53.565  1.00  0.00     0.015 A 
HETATM   27  C   UNL     1     -40.109  51.143 -54.282  1.00  0.00     0.012 A 
HETATM   28  C   UNL     1     -40.630  54.393 -52.548  1.00  0.00     0.037 A 
HETATM   29  C   UNL     1     -39.761  49.826 -53.976  1.00  0.00     0.001 A 
HETATM   30  C   UNL     1     -39.501  49.465 -52.657  1.00  0.00     0.001 A 
ENDBRANCH  20  21
ENDBRANCH  19  20
ENDBRANCH   6  19
TORSDOF 8
ENDMDL
MODEL 4
REMARK VINA RESULT:      -8.0      1.594      2.438
REMARK  8 active torsions:
REMARK  status: ('A' for Active; 'I' for Inactive)
REMARK    1  A    between atoms: C_3  and  S_4 
REMARK    2  A    between atoms: S_4  and  C_5 
REMARK    3  A    between atoms: C_5  and  C_6 
REMARK       I    between atoms: C_6  and  N_7 
REMARK    4  A    between atoms: N_7  and  C_8 
REMARK    5  A    between atoms: C_8  and  C_9 
REMARK    6  A    between atoms: C_17  and  C_18 
REMARK    7  A    between atoms: C_18  and  O_19 
REMARK    8  A    between atoms: O_19  and  C_20 
ROOT
HETATM    1  C   UNL     1     -44.222  58.388 -53.057  1.00  0.00     0.160 C 
HETATM    2  N   UNL     1     -42.794  58.496 -53.208  1.00  0.00    -0.314 N 
HETATM    3  C   UNL     1     -42.057  59.563 -53.639  1.00  0.00     0.191 A 
HETATM    4  N   UNL     1     -40.782  59.251 -53.632  1.00  0.00    -0.123 NA
HETATM    5  N   UNL     1     -40.663  57.970 -53.165  1.00  0.00    -0.132 NA
HETATM    6  C   UNL     1     -41.875  57.511 -52.914  1.00  0.00     0.154 A 
ENDROOT
BRANCH   3   7
HETATM    7  S   UNL     1     -42.717  61.094 -54.088  1.00  0.00    -0.081 SA
BRANCH   7   8
HETATM    8  C   UNL     1     -43.544  60.684 -55.653  1.00  0.00     0.185 C 
BRANCH   8   9
HETATM    9  C   UNL     1     -42.566  60.056 -56.631  1.00  0.00     0.227 C 
HETATM   10  N   UNL     1     -42.978  58.854 -57.162  1.00  0.00    -0.354 N 
HETATM   11  H   UNL     1     -43.696  58.344 -56.646  1.00  0.00     0.162 HD
HETATM   12  O   UNL     1     -41.495  60.583 -56.922  1.00  0.00    -0.273 OA
BRANCH  10  13
HETATM   13  C   UNL     1     -42.093  58.091 -58.009  1.00  0.00     0.187 C 
BRANCH  13  14
HETATM   14  C   UNL     1     -42.889  57.190 -58.878  1.00  0.00     0.070 A 
HETATM   15  O   UNL     1     -43.210  55.964 -58.369  1.00  0.00    -0.325 OA
HETATM   16  C   UNL     1     -43.936  55.319 -59.317  1.00  0.00     0.142 A 
HETATM   17  C   UNL     1     -44.092  56.111 -60.430  1.00  0.00     0.027 A 
HETATM   18  C   UNL     1     -43.420  57.322 -60.147  1.00  0.00     0.036 A 
ENDBRANCH  13  14
ENDBRANCH  10  13
ENDBRANCH   8   9
ENDBRANCH   7   8
ENDBRANCH   3   7
BRANCH   6  19
HETATM   19  C   UNL     1     -42.206  56.163 -52.378  1.00  0.00     0.256 C 
BRANCH  19  20
HETATM   20  O   UNL     1     -41.064  55.719 -51.646  1.00  0.00    -0.344 OA
BRANCH  20  21
HETATM   21  C   UNL     1     -40.716  54.406 -51.807  1.00  0.00     0.070 A 
HETATM   22  C   UNL     1     -40.659  53.724 -53.025  1.00  0.00     0.049 A 
HETATM   23  C   UNL     1     -40.289  52.367 -53.071  1.00  0.00    -0.023 A 
HETATM   24  C   UNL     1     -39.965  51.692 -51.872  1.00  0.00    -0.026 A 
HETATM   25  C   UNL     1     -40.234  51.664 -54.286  1.00  0.00     0.012 A 
HETATM   26  C   UNL     1     -40.009  52.394 -50.659  1.00  0.00     0.015 A 
HETATM   27  C   UNL     1     -39.602  50.337 -51.919  1.00  0.00     0.012 A 
HETATM   28  C   UNL     1     -40.377  53.740 -50.631  1.00  0.00     0.037 A 
HETATM   29  C   UNL     1     -39.557  49.653 -53.135  1.00  0.00     0.001 A 
HETATM   30  C   UNL     1     -39.872  50.316 -54.318  1.00  0.00     0.001 A 
ENDBRANCH  20  21
ENDBRANCH  19  20
ENDBRANCH   6  19
TORSDOF 8
ENDMDL
MODEL 5
REMARK VINA RESULT:      -7.8      2.505      4.795
REMARK  8 active torsions:
REMARK  status: ('A' for Active; 'I' for Inactive)
REMARK    1  A    between atoms: C_3  and  S_4 
REMARK    2  A    between atoms: S_4  and  C_5 
REMARK    3  A    between atoms: C_5  and  C_6 
REMARK       I    between atoms: C_6  and  N_7 
REMARK    4  A    between atoms: N_7  and  C_8 
REMARK    5  A    between atoms: C_8  and  C_9 
REMARK    6  A    between atoms: C_17  and  C_18 
REMARK    7  A    between atoms: C_18  and  O_19 
REMARK    8  A    between atoms: O_19  and  C_20 
ROOT
HETATM    1  C   UNL     1     -44.373  56.921 -54.614  1.00  0.00     0.160 C 
HETATM    2  N   UNL     1     -43.692  57.246 -55.841  1.00  0.00    -0.314 N 
HETATM    3  C   UNL     1     -43.767  58.390 -56.584  1.00  0.00     0.191 A 
HETATM    4  N   UNL     1     -42.988  58.286 -57.635  1.00  0.00    -0.123 NA
HETATM    5  N   UNL     1     -42.364  57.069 -57.579  1.00  0.00    -0.132 NA
HETATM    6  C   UNL     1     -42.791  56.438 -56.502  1.00  0.00     0.154 A 
ENDROOT
BRANCH   3   7
HETATM    7  S   UNL     1     -44.721  59.769 -56.169  1.00  0.00    -0.081 SA
BRANCH   7   8
HETATM    8  C   UNL     1     -43.442  60.941 -55.629  1.00  0.00     0.185 C 
BRANCH   8   9
HETATM    9  C   UNL     1     -42.615  60.354 -54.498  1.00  0.00     0.227 C 
HETATM   10  N   UNL     1     -43.229  60.381 -53.266  1.00  0.00    -0.354 N 
HETATM   11  H   UNL     1     -43.992  61.046 -53.146  1.00  0.00     0.162 HD
HETATM   12  O   UNL     1     -41.490  59.894 -54.675  1.00  0.00    -0.273 OA
BRANCH  10  13
HETATM   13  C   UNL     1     -42.508  59.967 -52.085  1.00  0.00     0.187 C 
BRANCH  13  14
HETATM   14  C   UNL     1     -43.003  58.642 -51.639  1.00  0.00     0.070 A 
HETATM   15  O   UNL     1     -44.336  58.542 -51.360  1.00  0.00    -0.325 OA
HETATM   16  C   UNL     1     -44.567  57.258 -50.982  1.00  0.00     0.142 A 
HETATM   17  C   UNL     1     -43.403  56.527 -51.017  1.00  0.00     0.027 A 
HETATM   18  C   UNL     1     -42.392  57.419 -51.445  1.00  0.00     0.036 A 
ENDBRANCH  13  14
ENDBRANCH  10  13
ENDBRANCH   8   9
ENDBRANCH   7   8
ENDBRANCH   3   7
BRANCH   6  19
HETATM   19  C   UNL     1     -42.359  55.088 -56.049  1.00  0.00     0.256 C 
BRANCH  19  20
HETATM   20  O   UNL     1     -41.152  55.268 -55.310  1.00  0.00    -0.344 OA
BRANCH  20  21
HETATM   21  C   UNL     1     -40.818  54.263 -54.444  1.00  0.00     0.070 A 
HETATM   22  C   UNL     1     -40.537  52.943 -54.801  1.00  0.00     0.049 A 
HETATM   23  C   UNL     1     -40.205  51.988 -53.821  1.00  0.00    -0.023 A 
HETATM   24  C   UNL     1     -40.149  52.375 -52.464  1.00  0.00    -0.026 A 
HETATM   25  C   UNL     1     -39.927  50.654 -54.163  1.00  0.00     0.012 A 
HETATM   26  C   UNL     1     -40.417  53.708 -52.121  1.00  0.00     0.015 A 
HETATM   27  C   UNL     1     -39.825  51.421 -51.486  1.00  0.00     0.012 A 
HETATM   28  C   UNL     1     -40.742  54.643 -53.105  1.00  0.00     0.037 A 
HETATM   29  C   UNL     1     -39.556  50.099 -51.843  1.00  0.00     0.001 A 
HETATM   30  C   UNL     1     -39.607  49.716 -53.180  1.00  0.00     0.001 A 
ENDBRANCH  20  21
ENDBRANCH  19  20
ENDBRANCH   6  19
TORSDOF 8
ENDMDL
MODEL 6
REMARK VINA RESULT:      -7.5      1.942      2.645
REMARK  8 active torsions:
REMARK  status: ('A' for Active; 'I' for Inactive)
REMARK    1  A    between atoms: C_3  and  S_4 
REMARK    2  A    between atoms: S_4  and  C_5 
REMARK    3  A    between atoms: C_5  and  C_6 
REMARK       I    between atoms: C_6  and  N_7 
REMARK    4  A    between atoms: N_7  and  C_8 
REMARK    5  A    between atoms: C_8  and  C_9 
REMARK    6  A    between atoms: C_17  and  C_18 
REMARK    7  A    between atoms: C_18  and  O_19 
REMARK    8  A    between atoms: O_19  and  C_20 
ROOT
HETATM    1  C   UNL     1     -42.119  58.151 -56.103  1.00  0.00     0.160 C 
HETATM    2  N   UNL     1     -41.982  59.050 -54.986  1.00  0.00    -0.314 N 
HETATM    3  C   UNL     1     -42.511  60.299 -54.823  1.00  0.00     0.191 A 
HETATM    4  N   UNL     1     -42.146  60.785 -53.659  1.00  0.00    -0.123 NA
HETATM    5  N   UNL     1     -41.387  59.838 -53.026  1.00  0.00    -0.132 NA
HETATM    6  C   UNL     1     -41.281  58.794 -53.826  1.00  0.00     0.154 A 
ENDROOT
BRANCH   3   7
HETATM    7  S   UNL     1     -43.532  61.090 -55.969  1.00  0.00    -0.081 SA
BRANCH   7   8
HETATM    8  C   UNL     1     -45.146  60.347 -55.586  1.00  0.00     0.185 C 
BRANCH   8   9
HETATM    9  C   UNL     1     -45.408  59.140 -56.472  1.00  0.00     0.227 C 
HETATM   10  N   UNL     1     -45.131  59.339 -57.806  1.00  0.00    -0.354 N 
HETATM   11  H   UNL     1     -45.096  60.305 -58.131  1.00  0.00     0.162 HD
HETATM   12  O   UNL     1     -45.832  58.077 -56.027  1.00  0.00    -0.273 OA
BRANCH  10  13
HETATM   13  C   UNL     1     -45.449  58.317 -58.775  1.00  0.00     0.187 C 
BRANCH  13  14
HETATM   14  C   UNL     1     -44.204  57.640 -59.212  1.00  0.00     0.070 A 
HETATM   15  O   UNL     1     -44.112  56.299 -58.972  1.00  0.00    -0.325 OA
HETATM   16  C   UNL     1     -42.910  55.891 -59.454  1.00  0.00     0.142 A 
HETATM   17  C   UNL     1     -42.226  56.949 -60.007  1.00  0.00     0.027 A 
HETATM   18  C   UNL     1     -43.063  58.079 -59.855  1.00  0.00     0.036 A 
ENDBRANCH  13  14
ENDBRANCH  10  13
ENDBRANCH   8   9
ENDBRANCH   7   8
ENDBRANCH   3   7
BRANCH   6  19
HETATM   19  C   UNL     1     -40.553  57.532 -53.526  1.00  0.00     0.256 C 
BRANCH  19  20
HETATM   20  O   UNL     1     -41.542  56.530 -53.298  1.00  0.00    -0.344 OA
BRANCH  20  21
HETATM   21  C   UNL     1     -41.114  55.232 -53.361  1.00  0.00     0.070 A 
HETATM   22  C   UNL     1     -40.824  54.418 -52.264  1.00  0.00     0.049 A 
HETATM   23  C   UNL     1     -40.386  53.093 -52.448  1.00  0.00    -0.023 A 
HETATM   24  C   UNL     1     -40.248  52.582 -53.759  1.00  0.00    -0.026 A 
HETATM   25  C   UNL     1     -40.083  52.263 -51.356  1.00  0.00     0.012 A 
HETATM   26  C   UNL     1     -40.559  53.404 -54.850  1.00  0.00     0.015 A 
HETATM   27  C   UNL     1     -39.805  51.262 -53.942  1.00  0.00     0.012 A 
HETATM   28  C   UNL     1     -40.994  54.716 -54.650  1.00  0.00     0.037 A 
HETATM   29  C   UNL     1     -39.504  50.453 -52.845  1.00  0.00     0.001 A 
HETATM   30  C   UNL     1     -39.643  50.953 -51.553  1.00  0.00     0.001 A 
ENDBRANCH  20  21
ENDBRANCH  19  20
ENDBRANCH   6  19
TORSDOF 8
ENDMDL
MODEL 7
REMARK VINA RESULT:      -7.4      2.682      3.487
REMARK  8 active torsions:
REMARK  status: ('A' for Active; 'I' for Inactive)
REMARK    1  A    between atoms: C_3  and  S_4 
REMARK    2  A    between atoms: S_4  and  C_5 
REMARK    3  A    between atoms: C_5  and  C_6 
REMARK       I    between atoms: C_6  and  N_7 
REMARK    4  A    between atoms: N_7  and  C_8 
REMARK    5  A    between atoms: C_8  and  C_9 
REMARK    6  A    between atoms: C_17  and  C_18 
REMARK    7  A    between atoms: C_18  and  O_19 
REMARK    8  A    between atoms: O_19  and  C_20 
ROOT
HETATM    1  C   UNL     1     -42.114  58.875 -56.129  1.00  0.00     0.160 C 
HETATM    2  N   UNL     1     -42.409  57.532 -56.558  1.00  0.00    -0.314 N 
HETATM    3  C   UNL     1     -42.993  57.115 -57.721  1.00  0.00     0.191 A 
HETATM    4  N   UNL     1     -43.083  55.806 -57.725  1.00  0.00    -0.123 NA
HETATM    5  N   UNL     1     -42.527  55.341 -56.563  1.00  0.00    -0.132 NA
HETATM    6  C   UNL     1     -42.125  56.380 -55.856  1.00  0.00     0.154 A 
ENDROOT
BRANCH   3   7
HETATM    7  S   UNL     1     -43.499  58.163 -58.997  1.00  0.00    -0.081 SA
BRANCH   7   8
HETATM    8  C   UNL     1     -45.069  58.798 -58.338  1.00  0.00     0.185 C 
BRANCH   8   9
HETATM    9  C   UNL     1     -46.211  57.847 -58.655  1.00  0.00     0.227 C 
HETATM   10  N   UNL     1     -46.085  57.180 -59.853  1.00  0.00    -0.354 N 
HETATM   11  H   UNL     1     -45.458  57.590 -60.545  1.00  0.00     0.162 HD
HETATM   12  O   UNL     1     -47.167  57.691 -57.899  1.00  0.00    -0.273 OA
BRANCH  10  13
HETATM   13  C   UNL     1     -47.156  56.340 -60.333  1.00  0.00     0.187 C 
BRANCH  13  14
HETATM   14  C   UNL     1     -47.843  57.007 -61.466  1.00  0.00     0.070 A 
HETATM   15  O   UNL     1     -47.865  58.371 -61.459  1.00  0.00    -0.325 OA
HETATM   16  C   UNL     1     -48.529  58.763 -62.577  1.00  0.00     0.142 A 
HETATM   17  C   UNL     1     -48.931  57.671 -63.309  1.00  0.00     0.027 A 
HETATM   18  C   UNL     1     -48.485  56.535 -62.595  1.00  0.00     0.036 A 
ENDBRANCH  13  14
ENDBRANCH  10  13
ENDBRANCH   8   9
ENDBRANCH   7   8
ENDBRANCH   3   7
BRANCH   6  19
HETATM   19  C   UNL     1     -41.452  56.329 -54.531  1.00  0.00     0.256 C 
BRANCH  19  20
HETATM   20  O   UNL     1     -42.201  55.422 -53.723  1.00  0.00    -0.344 OA
BRANCH  20  21
HETATM   21  C   UNL     1     -41.543  54.296 -53.310  1.00  0.00     0.070 A 
HETATM   22  C   UNL     1     -41.260  53.182 -54.105  1.00  0.00     0.049 A 
HETATM   23  C   UNL     1     -40.576  52.074 -53.570  1.00  0.00    -0.023 A 
HETATM   24  C   UNL     1     -40.167  52.094 -52.218  1.00  0.00    -0.026 A 
HETATM   25  C   UNL     1     -40.290  50.943 -54.354  1.00  0.00     0.012 A 
HETATM   26  C   UNL     1     -40.443  53.225 -51.436  1.00  0.00     0.015 A 
HETATM   27  C   UNL     1     -39.492  50.985 -51.685  1.00  0.00     0.012 A 
HETATM   28  C   UNL     1     -41.120  54.317 -51.982  1.00  0.00     0.037 A 
HETATM   29  C   UNL     1     -39.220  49.868 -52.476  1.00  0.00     0.001 A 
HETATM   30  C   UNL     1     -39.618  49.847 -53.809  1.00  0.00     0.001 A 
ENDBRANCH  20  21
ENDBRANCH  19  20
ENDBRANCH   6  19
TORSDOF 8
ENDMDL
MODEL 8
REMARK VINA RESULT:      -7.2     15.300     18.339
REMARK  8 active torsions:
REMARK  status: ('A' for Active; 'I' for Inactive)
REMARK    1  A    between atoms: C_3  and  S_4 
REMARK    2  A    between atoms: S_4  and  C_5 
REMARK    3  A    between atoms: C_5  and  C_6 
REMARK       I    between atoms: C_6  and  N_7 
REMARK    4  A    between atoms: N_7  and  C_8 
REMARK    5  A    between atoms: C_8  and  C_9 
REMARK    6  A    between atoms: C_17  and  C_18 
REMARK    7  A    between atoms: C_18  and  O_19 
REMARK    8  A    between atoms: O_19  and  C_20 
ROOT
HETATM    1  C   UNL     1     -37.139  39.151 -51.268  1.00  0.00     0.160 C 
HETATM    2  N   UNL     1     -36.068  40.112 -51.209  1.00  0.00    -0.314 N 
HETATM    3  C   UNL     1     -34.911  40.061 -50.483  1.00  0.00     0.191 A 
HETATM    4  N   UNL     1     -34.198  41.139 -50.710  1.00  0.00    -0.123 NA
HETATM    5  N   UNL     1     -34.874  41.908 -51.619  1.00  0.00    -0.132 NA
HETATM    6  C   UNL     1     -36.003  41.294 -51.917  1.00  0.00     0.154 A 
ENDROOT
BRANCH   3   7
HETATM    7  S   UNL     1     -34.455  38.751 -49.454  1.00  0.00    -0.081 SA
BRANCH   7   8
HETATM    8  C   UNL     1     -32.642  38.831 -49.552  1.00  0.00     0.185 C 
BRANCH   8   9
HETATM    9  C   UNL     1     -32.139  38.140 -50.808  1.00  0.00     0.227 C 
HETATM   10  N   UNL     1     -31.955  38.975 -51.887  1.00  0.00    -0.354 N 
HETATM   11  H   UNL     1     -32.452  39.866 -51.871  1.00  0.00     0.162 HD
HETATM   12  O   UNL     1     -31.915  36.933 -50.851  1.00  0.00    -0.273 OA
BRANCH  10  13
HETATM   13  C   UNL     1     -31.597  38.431 -53.176  1.00  0.00     0.187 C 
BRANCH  13  14
HETATM   14  C   UNL     1     -32.112  39.315 -54.250  1.00  0.00     0.070 A 
HETATM   15  O   UNL     1     -31.529  39.199 -55.479  1.00  0.00    -0.325 OA
HETATM   16  C   UNL     1     -32.151  40.084 -56.299  1.00  0.00     0.142 A 
HETATM   17  C   UNL     1     -33.132  40.767 -55.618  1.00  0.00     0.027 A 
HETATM   18  C   UNL     1     -33.111  40.268 -54.295  1.00  0.00     0.036 A 
ENDBRANCH  13  14
ENDBRANCH  10  13
ENDBRANCH   8   9
ENDBRANCH   7   8
ENDBRANCH   3   7
BRANCH   6  19
HETATM   19  C   UNL     1     -37.034  41.773 -52.878  1.00  0.00     0.256 C 
BRANCH  19  20
HETATM   20  O   UNL     1     -36.335  42.277 -54.014  1.00  0.00    -0.344 OA
BRANCH  20  21
HETATM   21  C   UNL     1     -36.634  41.694 -55.215  1.00  0.00     0.070 A 
HETATM   22  C   UNL     1     -36.667  42.347 -56.449  1.00  0.00     0.049 A 
HETATM   23  C   UNL     1     -36.992  41.645 -57.626  1.00  0.00    -0.023 A 
HETATM   24  C   UNL     1     -37.278  40.263 -57.554  1.00  0.00    -0.026 A 
HETATM   25  C   UNL     1     -37.038  42.289 -58.873  1.00  0.00     0.012 A 
HETATM   26  C   UNL     1     -37.224  39.616 -56.312  1.00  0.00     0.015 A 
HETATM   27  C   UNL     1     -37.608  39.566 -58.727  1.00  0.00     0.012 A 
HETATM   28  C   UNL     1     -36.898  40.327 -55.155  1.00  0.00     0.037 A 
HETATM   29  C   UNL     1     -37.653  40.222 -59.958  1.00  0.00     0.001 A 
HETATM   30  C   UNL     1     -37.368  41.582 -60.031  1.00  0.00     0.001 A 
ENDBRANCH  20  21
ENDBRANCH  19  20
ENDBRANCH   6  19
TORSDOF 8
ENDMDL
MODEL 9
REMARK VINA RESULT:      -7.1      2.585      8.581
REMARK  8 active torsions:
REMARK  status: ('A' for Active; 'I' for Inactive)
REMARK    1  A    between atoms: C_3  and  S_4 
REMARK    2  A    between atoms: S_4  and  C_5 
REMARK    3  A    between atoms: C_5  and  C_6 
REMARK       I    between atoms: C_6  and  N_7 
REMARK    4  A    between atoms: N_7  and  C_8 
REMARK    5  A    between atoms: C_8  and  C_9 
REMARK    6  A    between atoms: C_17  and  C_18 
REMARK    7  A    between atoms: C_18  and  O_19 
REMARK    8  A    between atoms: O_19  and  C_20 
ROOT
HETATM    1  C   UNL     1     -40.558  55.849 -54.376  1.00  0.00     0.160 C 
HETATM    2  N   UNL     1     -41.970  56.089 -54.225  1.00  0.00    -0.314 N 
HETATM    3  C   UNL     1     -42.640  56.614 -53.156  1.00  0.00     0.191 A 
HETATM    4  N   UNL     1     -43.924  56.666 -53.421  1.00  0.00    -0.123 NA
HETATM    5  N   UNL     1     -44.112  56.197 -54.693  1.00  0.00    -0.132 NA
HETATM    6  C   UNL     1     -42.937  55.844 -55.178  1.00  0.00     0.154 A 
ENDROOT
BRANCH   3   7
HETATM    7  S   UNL     1     -41.890  57.153 -51.696  1.00  0.00    -0.081 SA
BRANCH   7   8
HETATM    8  C   UNL     1     -42.338  55.818 -50.548  1.00  0.00     0.185 C 
BRANCH   8   9
HETATM    9  C   UNL     1     -41.145  54.917 -50.276  1.00  0.00     0.227 C 
HETATM   10  N   UNL     1     -40.878  54.004 -51.271  1.00  0.00    -0.354 N 
HETATM   11  H   UNL     1     -41.640  53.784 -51.912  1.00  0.00     0.162 HD
HETATM   12  O   UNL     1     -40.477  55.002 -49.248  1.00  0.00    -0.273 OA
BRANCH  10  13
HETATM   13  C   UNL     1     -39.850  53.008 -51.087  1.00  0.00     0.187 C 
BRANCH  13  14
HETATM   14  C   UNL     1     -39.877  52.049 -52.219  1.00  0.00     0.070 A 
HETATM   15  O   UNL     1     -40.344  52.516 -53.413  1.00  0.00    -0.325 OA
HETATM   16  C   UNL     1     -40.274  51.486 -54.296  1.00  0.00     0.142 A 
HETATM   17  C   UNL     1     -39.763  50.363 -53.690  1.00  0.00     0.027 A 
HETATM   18  C   UNL     1     -39.501  50.726 -52.348  1.00  0.00     0.036 A 
ENDBRANCH  13  14
ENDBRANCH  10  13
ENDBRANCH   8   9
ENDBRANCH   7   8
ENDBRANCH   3   7
BRANCH   6  19
HETATM   19  C   UNL     1     -42.679  55.294 -56.536  1.00  0.00     0.256 C 
BRANCH  19  20
HETATM   20  O   UNL     1     -42.716  56.397 -57.440  1.00  0.00    -0.344 OA
BRANCH  20  21
HETATM   21  C   UNL     1     -43.752  56.413 -58.333  1.00  0.00     0.070 A 
HETATM   22  C   UNL     1     -44.577  57.508 -58.599  1.00  0.00     0.049 A 
HETATM   23  C   UNL     1     -45.620  57.410 -59.540  1.00  0.00    -0.023 A 
HETATM   24  C   UNL     1     -45.826  56.192 -60.226  1.00  0.00    -0.026 A 
HETATM   25  C   UNL     1     -46.463  58.499 -59.814  1.00  0.00     0.012 A 
HETATM   26  C   UNL     1     -44.979  55.106 -59.962  1.00  0.00     0.015 A 
HETATM   27  C   UNL     1     -46.870  56.093 -61.159  1.00  0.00     0.012 A 
HETATM   28  C   UNL     1     -43.948  55.221 -59.027  1.00  0.00     0.037 A 
HETATM   29  C   UNL     1     -47.701  57.185 -61.416  1.00  0.00     0.001 A 
HETATM   30  C   UNL     1     -47.498  58.387 -60.744  1.00  0.00     0.001 A 
ENDBRANCH  20  21
ENDBRANCH  19  20
ENDBRANCH   6  19
TORSDOF 8
ENDMDL
MODEL 10
REMARK VINA RESULT:      -7.1     15.559     18.217
REMARK  8 active torsions:
REMARK  status: ('A' for Active; 'I' for Inactive)
REMARK    1  A    between atoms: C_3  and  S_4 
REMARK    2  A    between atoms: S_4  and  C_5 
REMARK    3  A    between atoms: C_5  and  C_6 
REMARK       I    between atoms: C_6  and  N_7 
REMARK    4  A    between atoms: N_7  and  C_8 
REMARK    5  A    between atoms: C_8  and  C_9 
REMARK    6  A    between atoms: C_17  and  C_18 
REMARK    7  A    between atoms: C_18  and  O_19 
REMARK    8  A    between atoms: O_19  and  C_20 
ROOT
HETATM    1  C   UNL     1     -34.649  41.850 -51.369  1.00  0.00     0.160 C 
HETATM    2  N   UNL     1     -35.267  40.628 -51.813  1.00  0.00    -0.314 N 
HETATM    3  C   UNL     1     -35.182  39.378 -51.268  1.00  0.00     0.191 A 
HETATM    4  N   UNL     1     -35.896  38.536 -51.977  1.00  0.00    -0.123 NA
HETATM    5  N   UNL     1     -36.488  39.237 -52.993  1.00  0.00    -0.132 NA
HETATM    6  C   UNL     1     -36.107  40.497 -52.900  1.00  0.00     0.154 A 
ENDROOT
BRANCH   3   7
HETATM    7  S   UNL     1     -34.291  38.989 -49.840  1.00  0.00    -0.081 SA
BRANCH   7   8
HETATM    8  C   UNL     1     -32.877  38.084 -50.534  1.00  0.00     0.185 C 
BRANCH   8   9
HETATM    9  C   UNL     1     -32.228  38.876 -51.657  1.00  0.00     0.227 C 
HETATM   10  N   UNL     1     -32.317  38.288 -52.899  1.00  0.00    -0.354 N 
HETATM   11  H   UNL     1     -32.497  37.284 -52.921  1.00  0.00     0.162 HD
HETATM   12  O   UNL     1     -31.671  39.954 -51.466  1.00  0.00    -0.273 OA
BRANCH  10  13
HETATM   13  C   UNL     1     -31.639  38.872 -54.031  1.00  0.00     0.187 C 
BRANCH  13  14
HETATM   14  C   UNL     1     -32.637  39.422 -54.980  1.00  0.00     0.070 A 
HETATM   15  O   UNL     1     -32.626  40.773 -55.176  1.00  0.00    -0.325 OA
HETATM   16  C   UNL     1     -33.604  41.052 -56.076  1.00  0.00     0.142 A 
HETATM   17  C   UNL     1     -34.244  39.900 -56.468  1.00  0.00     0.027 A 
HETATM   18  C   UNL     1     -33.618  38.845 -55.764  1.00  0.00     0.036 A 
ENDBRANCH  13  14
ENDBRANCH  10  13
ENDBRANCH   8   9
ENDBRANCH   7   8
ENDBRANCH   3   7
BRANCH   6  19
HETATM   19  C   UNL     1     -36.526  41.607 -53.797  1.00  0.00     0.256 C 
BRANCH  19  20
HETATM   20  O   UNL     1     -37.710  41.173 -54.463  1.00  0.00    -0.344 OA
BRANCH  20  21
HETATM   21  C   UNL     1     -37.631  41.061 -55.824  1.00  0.00     0.070 A 
HETATM   22  C   UNL     1     -37.982  39.932 -56.568  1.00  0.00     0.049 A 
HETATM   23  C   UNL     1     -37.856  39.928 -57.970  1.00  0.00    -0.023 A 
HETATM   24  C   UNL     1     -37.378  41.083 -58.629  1.00  0.00    -0.026 A 
HETATM   25  C   UNL     1     -38.197  38.798 -58.732  1.00  0.00     0.012 A 
HETATM   26  C   UNL     1     -37.046  42.215 -57.872  1.00  0.00     0.015 A 
HETATM   27  C   UNL     1     -37.247  41.075 -60.027  1.00  0.00     0.012 A 
HETATM   28  C   UNL     1     -37.178  42.203 -56.482  1.00  0.00     0.037 A 
HETATM   29  C   UNL     1     -37.586  39.942 -60.768  1.00  0.00     0.001 A 
HETATM   30  C   UNL     1     -38.061  38.805 -60.122  1.00  0.00     0.001 A 
ENDBRANCH  20  21
ENDBRANCH  19  20
ENDBRANCH   6  19
TORSDOF 8
ENDMDL
