MODEL 1
REMARK VINA RESULT:      -8.3      0.000      0.000
REMARK  4 active torsions:
REMARK  status: ('A' for Active; 'I' for Inactive)
REMARK    1  A    between atoms: O_2  and  C_3 
REMARK    2  A    between atoms: C_4  and  C_5 
REMARK    3  A    between atoms: C_9  and  N_10 
REMARK    4  A    between atoms: C_13  and  C_14 
ROOT
HETATM    1  C   UNL     1     -41.572  54.048 -53.889  1.00  0.00     0.167 C 
HETATM    2  N   UNL     1     -42.333  54.544 -52.745  1.00  0.00    -0.074 N 
HETATM    3  C   UNL     1     -42.503  55.875 -52.465  1.00  0.00     0.736 A 
HETATM    4  N   UNL     1     -43.351  55.998 -51.478  1.00  0.00     0.131 NA
HETATM    5  C   UNL     1     -43.712  54.710 -51.219  1.00  0.00     0.753 A 
HETATM    6  N   UNL     1     -43.133  53.782 -51.975  1.00  0.00     0.037 NA
HETATM    7  N   UNL     1     -41.894  56.836 -53.190  1.00  0.00    -0.214 N 
HETATM    8  C   UNL     1     -41.250  56.514 -54.456  1.00  0.00     0.135 C 
HETATM    9  C   UNL     1     -40.589  55.126 -54.387  1.00  0.00     0.063 C 
HETATM   10  H   UNL     1     -42.261  57.779 -53.101  1.00  0.00     0.178 HD
ENDROOT
BRANCH   1  11
HETATM   11  C   UNL     1     -40.843  52.747 -53.575  1.00  0.00     0.001 A 
HETATM   12  C   UNL     1     -40.040  52.629 -52.427  1.00  0.00     0.076 A 
HETATM   13  C   UNL     1     -39.401  51.418 -52.136  1.00  0.00     0.037 A 
HETATM   14  C   UNL     1     -39.528  50.327 -52.996  1.00  0.00     0.003 A 
HETATM   15  C   UNL     1     -40.301  50.437 -54.146  1.00  0.00     0.001 A 
HETATM   16  C   UNL     1     -40.954  51.635 -54.435  1.00  0.00     0.012 A 
BRANCH  12  17
HETATM   17  O   UNL     1     -39.969  53.716 -51.595  1.00  0.00    -0.355 OA
HETATM   18  C   UNL     1     -40.038  53.406 -50.205  1.00  0.00     0.210 C 
ENDBRANCH  12  17
ENDBRANCH   1  11
BRANCH   8  19
HETATM   19  C   UNL     1     -42.164  56.681 -55.662  1.00  0.00    -0.035 A 
HETATM   20  C   UNL     1     -42.812  57.917 -55.848  1.00  0.00     0.010 A 
HETATM   21  C   UNL     1     -43.649  58.136 -56.945  1.00  0.00     0.019 A 
HETATM   22  C   UNL     1     -43.845  57.120 -57.876  1.00  0.00     0.011 A 
HETATM   23 BR   UNL     1     -44.974  57.414 -59.363  1.00  0.00    -0.051 Br
HETATM   24  C   UNL     1     -43.214  55.891 -57.717  1.00  0.00     0.019 A 
HETATM   25  C   UNL     1     -42.379  55.672 -56.616  1.00  0.00     0.010 A 
ENDBRANCH   8  19
BRANCH   5  26
HETATM   26  N   UNL     1     -44.590  54.477 -50.248  1.00  0.00    -0.229 N 
HETATM   27  H   UNL     1     -44.894  55.279 -49.715  1.00  0.00     0.174 HD
HETATM   28  H   UNL     1     -44.446  53.635 -49.706  1.00  0.00     0.174 HD
ENDBRANCH   5  26
TORSDOF 4
ENDMDL
MODEL 2
REMARK VINA RESULT:      -7.9      3.339      6.819
REMARK  4 active torsions:
REMARK  status: ('A' for Active; 'I' for Inactive)
REMARK    1  A    between atoms: O_2  and  C_3 
REMARK    2  A    between atoms: C_4  and  C_5 
REMARK    3  A    between atoms: C_9  and  N_10 
REMARK    4  A    between atoms: C_13  and  C_14 
ROOT
HETATM    1  C   UNL     1     -41.845  57.846 -53.359  1.00  0.00     0.167 C 
HETATM    2  N   UNL     1     -41.090  58.321 -52.201  1.00  0.00    -0.074 N 
HETATM    3  C   UNL     1     -41.170  57.754 -50.957  1.00  0.00     0.736 A 
HETATM    4  N   UNL     1     -40.269  58.298 -50.181  1.00  0.00     0.131 NA
HETATM    5  C   UNL     1     -39.627  59.162 -51.015  1.00  0.00     0.753 A 
HETATM    6  N   UNL     1     -40.076  59.204 -52.266  1.00  0.00     0.037 NA
HETATM    7  N   UNL     1     -42.035  56.754 -50.687  1.00  0.00    -0.214 N 
HETATM    8  C   UNL     1     -42.726  56.059 -51.766  1.00  0.00     0.135 C 
HETATM    9  C   UNL     1     -43.074  57.038 -52.900  1.00  0.00     0.063 C 
HETATM   10  H   UNL     1     -41.864  56.214 -49.844  1.00  0.00     0.178 HD
ENDROOT
BRANCH   1  11
HETATM   11  C   UNL     1     -42.254  58.984 -54.286  1.00  0.00     0.001 A 
HETATM   12  C   UNL     1     -42.316  58.793 -55.678  1.00  0.00     0.076 A 
HETATM   13  C   UNL     1     -42.724  59.839 -56.515  1.00  0.00     0.037 A 
HETATM   14  C   UNL     1     -43.043  61.087 -55.981  1.00  0.00     0.003 A 
HETATM   15  C   UNL     1     -42.965  61.296 -54.608  1.00  0.00     0.001 A 
HETATM   16  C   UNL     1     -42.574  60.255 -53.767  1.00  0.00     0.012 A 
BRANCH  12  17
HETATM   17  O   UNL     1     -42.024  57.541 -56.155  1.00  0.00    -0.355 OA
HETATM   18  C   UNL     1     -43.123  56.866 -56.763  1.00  0.00     0.210 C 
ENDBRANCH  12  17
ENDBRANCH   1  11
BRANCH   8  19
HETATM   19  C   UNL     1     -41.994  54.816 -52.252  1.00  0.00    -0.035 A 
HETATM   20  C   UNL     1     -42.308  54.307 -53.528  1.00  0.00     0.010 A 
HETATM   21  C   UNL     1     -41.657  53.180 -54.035  1.00  0.00     0.019 A 
HETATM   22  C   UNL     1     -40.677  52.548 -53.275  1.00  0.00     0.011 A 
HETATM   23 BR   UNL     1     -39.793  51.026 -53.961  1.00  0.00    -0.051 Br
HETATM   24  C   UNL     1     -40.346  53.033 -52.014  1.00  0.00     0.019 A 
HETATM   25  C   UNL     1     -41.001  54.159 -51.506  1.00  0.00     0.010 A 
ENDBRANCH   8  19
BRANCH   5  26
HETATM   26  N   UNL     1     -38.624  59.890 -50.529  1.00  0.00    -0.229 N 
HETATM   27  H   UNL     1     -38.285  60.637 -51.119  1.00  0.00     0.174 HD
HETATM   28  H   UNL     1     -37.908  59.385 -50.025  1.00  0.00     0.174 HD
ENDBRANCH   5  26
TORSDOF 4
ENDMDL
MODEL 3
REMARK VINA RESULT:      -7.9     14.125     15.859
REMARK  4 active torsions:
REMARK  status: ('A' for Active; 'I' for Inactive)
REMARK    1  A    between atoms: O_2  and  C_3 
REMARK    2  A    between atoms: C_4  and  C_5 
REMARK    3  A    between atoms: C_9  and  N_10 
REMARK    4  A    between atoms: C_13  and  C_14 
ROOT
HETATM    1  C   UNL     1     -35.247  40.429 -52.735  1.00  0.00     0.167 C 
HETATM    2  N   UNL     1     -36.461  39.962 -52.069  1.00  0.00    -0.074 N 
HETATM    3  C   UNL     1     -37.669  40.601 -52.156  1.00  0.00     0.736 A 
HETATM    4  N   UNL     1     -38.585  39.862 -51.586  1.00  0.00     0.131 NA
HETATM    5  C   UNL     1     -37.892  38.752 -51.208  1.00  0.00     0.753 A 
HETATM    6  N   UNL     1     -36.594  38.752 -51.494  1.00  0.00     0.037 NA
HETATM    7  N   UNL     1     -37.805  41.778 -52.802  1.00  0.00    -0.214 N 
HETATM    8  C   UNL     1     -36.738  42.283 -53.657  1.00  0.00     0.135 C 
HETATM    9  C   UNL     1     -35.362  41.930 -53.065  1.00  0.00     0.063 C 
HETATM   10  H   UNL     1     -38.749  42.058 -53.051  1.00  0.00     0.178 HD
ENDROOT
BRANCH   1  11
HETATM   11  C   UNL     1     -33.994  40.145 -51.914  1.00  0.00     0.001 A 
HETATM   12  C   UNL     1     -32.927  39.409 -52.459  1.00  0.00     0.076 A 
HETATM   13  C   UNL     1     -31.770  39.183 -51.704  1.00  0.00     0.037 A 
HETATM   14  C   UNL     1     -31.676  39.658 -50.396  1.00  0.00     0.003 A 
HETATM   15  C   UNL     1     -32.733  40.368 -49.838  1.00  0.00     0.001 A 
HETATM   16  C   UNL     1     -33.883  40.611 -50.589  1.00  0.00     0.012 A 
BRANCH  12  17
HETATM   17  O   UNL     1     -33.051  38.989 -53.758  1.00  0.00    -0.355 OA
HETATM   18  C   UNL     1     -32.139  39.599 -54.669  1.00  0.00     0.210 C 
ENDBRANCH  12  17
ENDBRANCH   1  11
BRANCH   8  19
HETATM   19  C   UNL     1     -36.884  41.872 -55.115  1.00  0.00    -0.035 A 
HETATM   20  C   UNL     1     -35.853  42.207 -56.015  1.00  0.00     0.010 A 
HETATM   21  C   UNL     1     -35.923  41.842 -57.361  1.00  0.00     0.019 A 
HETATM   22  C   UNL     1     -37.024  41.130 -57.827  1.00  0.00     0.011 A 
HETATM   23 BR   UNL     1     -37.119  40.631 -59.647  1.00  0.00    -0.051 Br
HETATM   24  C   UNL     1     -38.054  40.784 -56.958  1.00  0.00     0.019 A 
HETATM   25  C   UNL     1     -37.985  41.153 -55.611  1.00  0.00     0.010 A 
ENDBRANCH   8  19
BRANCH   5  26
HETATM   26  N   UNL     1     -38.547  37.773 -50.587  1.00  0.00    -0.229 N 
HETATM   27  H   UNL     1     -39.300  37.339 -51.102  1.00  0.00     0.174 HD
HETATM   28  H   UNL     1     -38.726  37.910 -49.602  1.00  0.00     0.174 HD
ENDBRANCH   5  26
TORSDOF 4
ENDMDL
MODEL 4
REMARK VINA RESULT:      -7.8     14.772     16.739
REMARK  4 active torsions:
REMARK  status: ('A' for Active; 'I' for Inactive)
REMARK    1  A    between atoms: O_2  and  C_3 
REMARK    2  A    between atoms: C_4  and  C_5 
REMARK    3  A    between atoms: C_9  and  N_10 
REMARK    4  A    between atoms: C_13  and  C_14 
ROOT
HETATM    1  C   UNL     1     -36.306  40.729 -56.315  1.00  0.00     0.167 C 
HETATM    2  N   UNL     1     -34.847  40.657 -56.316  1.00  0.00    -0.074 N 
HETATM    3  C   UNL     1     -34.053  41.314 -55.413  1.00  0.00     0.736 A 
HETATM    4  N   UNL     1     -32.814  40.930 -55.576  1.00  0.00     0.131 NA
HETATM    5  C   UNL     1     -32.908  39.995 -56.561  1.00  0.00     0.753 A 
HETATM    6  N   UNL     1     -34.130  39.775 -57.038  1.00  0.00     0.037 NA
HETATM    7  N   UNL     1     -34.569  42.162 -54.500  1.00  0.00    -0.214 N 
HETATM    8  C   UNL     1     -36.005  42.208 -54.259  1.00  0.00     0.135 C 
HETATM    9  C   UNL     1     -36.778  41.994 -55.571  1.00  0.00     0.063 C 
HETATM   10  H   UNL     1     -33.975  42.405 -53.712  1.00  0.00     0.178 HD
ENDROOT
BRANCH   1  11
HETATM   11  C   UNL     1     -36.886  40.674 -57.723  1.00  0.00     0.001 A 
HETATM   12  C   UNL     1     -37.550  39.524 -58.186  1.00  0.00     0.076 A 
HETATM   13  C   UNL     1     -38.105  39.500 -59.471  1.00  0.00     0.037 A 
HETATM   14  C   UNL     1     -37.979  40.603 -60.315  1.00  0.00     0.003 A 
HETATM   15  C   UNL     1     -37.306  41.739 -59.878  1.00  0.00     0.001 A 
HETATM   16  C   UNL     1     -36.764  41.776 -58.594  1.00  0.00     0.012 A 
BRANCH  12  17
HETATM   17  O   UNL     1     -37.677  38.477 -57.310  1.00  0.00    -0.355 OA
HETATM   18  C   UNL     1     -37.001  37.286 -57.707  1.00  0.00     0.210 C 
ENDBRANCH  12  17
ENDBRANCH   1  11
BRANCH   8  19
HETATM   19  C   UNL     1     -36.463  41.285 -53.138  1.00  0.00    -0.035 A 
HETATM   20  C   UNL     1     -37.832  40.967 -53.045  1.00  0.00     0.010 A 
HETATM   21  C   UNL     1     -38.308  40.112 -52.049  1.00  0.00     0.019 A 
HETATM   22  C   UNL     1     -37.420  39.556 -51.133  1.00  0.00     0.011 A 
HETATM   23 BR   UNL     1     -38.061  38.396 -49.787  1.00  0.00    -0.051 Br
HETATM   24  C   UNL     1     -36.063  39.852 -51.205  1.00  0.00     0.019 A 
HETATM   25  C   UNL     1     -35.587  40.711 -52.201  1.00  0.00     0.010 A 
ENDBRANCH   8  19
BRANCH   5  26
HETATM   26  N   UNL     1     -31.798  39.387 -56.972  1.00  0.00    -0.229 N 
HETATM   27  H   UNL     1     -31.216  39.902 -57.617  1.00  0.00     0.174 HD
HETATM   28  H   UNL     1     -31.874  38.397 -57.163  1.00  0.00     0.174 HD
ENDBRANCH   5  26
TORSDOF 4
ENDMDL
MODEL 5
REMARK VINA RESULT:      -7.5     14.455     16.215
REMARK  4 active torsions:
REMARK  status: ('A' for Active; 'I' for Inactive)
REMARK    1  A    between atoms: O_2  and  C_3 
REMARK    2  A    between atoms: C_4  and  C_5 
REMARK    3  A    between atoms: C_9  and  N_10 
REMARK    4  A    between atoms: C_13  and  C_14 
ROOT
HETATM    1  C   UNL     1     -34.882  40.179 -54.605  1.00  0.00     0.167 C 
HETATM    2  N   UNL     1     -36.073  40.503 -53.822  1.00  0.00    -0.074 N 
HETATM    3  C   UNL     1     -36.885  41.576 -54.082  1.00  0.00     0.736 A 
HETATM    4  N   UNL     1     -37.940  41.508 -53.314  1.00  0.00     0.131 NA
HETATM    5  C   UNL     1     -37.751  40.343 -52.633  1.00  0.00     0.753 A 
HETATM    6  N   UNL     1     -36.634  39.679 -52.917  1.00  0.00     0.037 NA
HETATM    7  N   UNL     1     -36.586  42.476 -55.042  1.00  0.00    -0.214 N 
HETATM    8  C   UNL     1     -35.537  42.202 -56.015  1.00  0.00     0.135 C 
HETATM    9  C   UNL     1     -34.381  41.428 -55.358  1.00  0.00     0.063 C 
HETATM   10  H   UNL     1     -37.340  43.081 -55.355  1.00  0.00     0.178 HD
ENDROOT
BRANCH   1  11
HETATM   11  C   UNL     1     -33.775  39.578 -53.748  1.00  0.00     0.001 A 
HETATM   12  C   UNL     1     -33.318  38.268 -53.976  1.00  0.00     0.076 A 
HETATM   13  C   UNL     1     -32.278  37.740 -53.201  1.00  0.00     0.037 A 
HETATM   14  C   UNL     1     -31.708  38.494 -52.176  1.00  0.00     0.003 A 
HETATM   15  C   UNL     1     -32.166  39.783 -51.925  1.00  0.00     0.001 A 
HETATM   16  C   UNL     1     -33.190  40.322 -52.703  1.00  0.00     0.012 A 
BRANCH  12  17
HETATM   17  O   UNL     1     -33.886  37.575 -55.014  1.00  0.00    -0.355 OA
HETATM   18  C   UNL     1     -32.954  36.925 -55.875  1.00  0.00     0.210 C 
ENDBRANCH  12  17
ENDBRANCH   1  11
BRANCH   8  19
HETATM   19  C   UNL     1     -36.048  41.544 -57.289  1.00  0.00    -0.035 A 
HETATM   20  C   UNL     1     -35.632  40.231 -57.582  1.00  0.00     0.010 A 
HETATM   21  C   UNL     1     -36.082  39.569 -58.727  1.00  0.00     0.019 A 
HETATM   22  C   UNL     1     -36.961  40.211 -59.594  1.00  0.00     0.011 A 
HETATM   23 BR   UNL     1     -37.573  39.317 -61.142  1.00  0.00    -0.051 Br
HETATM   24  C   UNL     1     -37.389  41.507 -59.326  1.00  0.00     0.019 A 
HETATM   25  C   UNL     1     -36.936  42.169 -58.182  1.00  0.00     0.010 A 
ENDBRANCH   8  19
BRANCH   5  26
HETATM   26  N   UNL     1     -38.671  39.965 -51.749  1.00  0.00    -0.229 N 
HETATM   27  H   UNL     1     -38.340  39.757 -50.818  1.00  0.00     0.174 HD
HETATM   28  H   UNL     1     -39.395  39.349 -52.093  1.00  0.00     0.174 HD
ENDBRANCH   5  26
TORSDOF 4
ENDMDL
MODEL 6
REMARK VINA RESULT:      -7.5      1.791      3.066
REMARK  4 active torsions:
REMARK  status: ('A' for Active; 'I' for Inactive)
REMARK    1  A    between atoms: O_2  and  C_3 
REMARK    2  A    between atoms: C_4  and  C_5 
REMARK    3  A    between atoms: C_9  and  N_10 
REMARK    4  A    between atoms: C_13  and  C_14 
ROOT
HETATM    1  C   UNL     1     -42.127  55.965 -52.602  1.00  0.00     0.167 C 
HETATM    2  N   UNL     1     -43.047  57.019 -52.184  1.00  0.00    -0.074 N 
HETATM    3  C   UNL     1     -43.140  58.238 -52.804  1.00  0.00     0.736 A 
HETATM    4  N   UNL     1     -44.151  58.896 -52.302  1.00  0.00     0.131 NA
HETATM    5  C   UNL     1     -44.679  58.014 -51.408  1.00  0.00     0.753 A 
HETATM    6  N   UNL     1     -44.055  56.845 -51.308  1.00  0.00     0.037 NA
HETATM    7  N   UNL     1     -42.309  58.588 -53.807  1.00  0.00    -0.214 N 
HETATM    8  C   UNL     1     -41.459  57.593 -54.449  1.00  0.00     0.135 C 
HETATM    9  C   UNL     1     -40.964  56.563 -53.419  1.00  0.00     0.063 C 
HETATM   10  H   UNL     1     -42.592  59.375 -54.385  1.00  0.00     0.178 HD
ENDROOT
BRANCH   1  11
HETATM   11  C   UNL     1     -41.604  55.155 -51.422  1.00  0.00     0.001 A 
HETATM   12  C   UNL     1     -41.323  53.784 -51.556  1.00  0.00     0.076 A 
HETATM   13  C   UNL     1     -40.814  53.059 -50.471  1.00  0.00     0.037 A 
HETATM   14  C   UNL     1     -40.609  53.682 -49.240  1.00  0.00     0.003 A 
HETATM   15  C   UNL     1     -40.904  55.032 -49.088  1.00  0.00     0.001 A 
HETATM   16  C   UNL     1     -41.396  55.764 -50.168  1.00  0.00     0.012 A 
BRANCH  12  17
HETATM   17  O   UNL     1     -41.510  53.222 -52.793  1.00  0.00    -0.355 OA
HETATM   18  C   UNL     1     -40.319  52.745 -53.415  1.00  0.00     0.210 C 
ENDBRANCH  12  17
ENDBRANCH   1  11
BRANCH   8  19
HETATM   19  C   UNL     1     -42.095  56.954 -55.676  1.00  0.00    -0.035 A 
HETATM   20  C   UNL     1     -42.490  57.788 -56.741  1.00  0.00     0.010 A 
HETATM   21  C   UNL     1     -43.062  57.258 -57.899  1.00  0.00     0.019 A 
HETATM   22  C   UNL     1     -43.243  55.883 -58.012  1.00  0.00     0.011 A 
HETATM   23 BR   UNL     1     -44.015  55.162 -59.579  1.00  0.00    -0.051 Br
HETATM   24  C   UNL     1     -42.860  55.037 -56.976  1.00  0.00     0.019 A 
HETATM   25  C   UNL     1     -42.290  55.570 -55.815  1.00  0.00     0.010 A 
ENDBRANCH   8  19
BRANCH   5  26
HETATM   26  N   UNL     1     -45.752  58.379 -50.710  1.00  0.00    -0.229 N 
HETATM   27  H   UNL     1     -45.751  59.321 -50.344  1.00  0.00     0.174 HD
HETATM   28  H   UNL     1     -46.142  57.681 -50.091  1.00  0.00     0.174 HD
ENDBRANCH   5  26
TORSDOF 4
ENDMDL
MODEL 7
REMARK VINA RESULT:      -7.4      1.957      3.360
REMARK  4 active torsions:
REMARK  status: ('A' for Active; 'I' for Inactive)
REMARK    1  A    between atoms: O_2  and  C_3 
REMARK    2  A    between atoms: C_4  and  C_5 
REMARK    3  A    between atoms: C_9  and  N_10 
REMARK    4  A    between atoms: C_13  and  C_14 
ROOT
HETATM    1  C   UNL     1     -42.291  56.306 -52.698  1.00  0.00     0.167 C 
HETATM    2  N   UNL     1     -43.221  57.352 -52.281  1.00  0.00    -0.074 N 
HETATM    3  C   UNL     1     -43.293  58.586 -52.871  1.00  0.00     0.736 A 
HETATM    4  N   UNL     1     -44.317  59.234 -52.383  1.00  0.00     0.131 NA
HETATM    5  C   UNL     1     -44.874  58.331 -51.529  1.00  0.00     0.753 A 
HETATM    6  N   UNL     1     -44.255  57.158 -51.440  1.00  0.00     0.037 NA
HETATM    7  N   UNL     1     -42.430  58.960 -53.839  1.00  0.00    -0.214 N 
HETATM    8  C   UNL     1     -41.564  57.979 -54.481  1.00  0.00     0.135 C 
HETATM    9  C   UNL     1     -41.103  56.921 -53.464  1.00  0.00     0.063 C 
HETATM   10  H   UNL     1     -42.695  59.762 -54.405  1.00  0.00     0.178 HD
ENDROOT
BRANCH   1  11
HETATM   11  C   UNL     1     -41.806  55.464 -51.524  1.00  0.00     0.001 A 
HETATM   12  C   UNL     1     -41.655  54.072 -51.648  1.00  0.00     0.076 A 
HETATM   13  C   UNL     1     -41.178  53.315 -50.570  1.00  0.00     0.037 A 
HETATM   14  C   UNL     1     -40.879  53.930 -49.354  1.00  0.00     0.003 A 
HETATM   15  C   UNL     1     -41.045  55.303 -49.211  1.00  0.00     0.001 A 
HETATM   16  C   UNL     1     -41.504  56.065 -50.285  1.00  0.00     0.012 A 
BRANCH  12  17
HETATM   17  O   UNL     1     -41.931  53.516 -52.871  1.00  0.00    -0.355 OA
HETATM   18  C   UNL     1     -40.793  53.005 -53.562  1.00  0.00     0.210 C 
ENDBRANCH  12  17
ENDBRANCH   1  11
BRANCH   8  19
HETATM   19  C   UNL     1     -42.164  57.374 -55.742  1.00  0.00    -0.035 A 
HETATM   20  C   UNL     1     -42.278  55.972 -55.827  1.00  0.00     0.010 A 
HETATM   21  C   UNL     1     -42.837  55.361 -56.952  1.00  0.00     0.019 A 
HETATM   22  C   UNL     1     -43.294  56.143 -58.008  1.00  0.00     0.011 A 
HETATM   23 BR   UNL     1     -44.052  55.318 -59.529  1.00  0.00    -0.051 Br
HETATM   24  C   UNL     1     -43.195  57.529 -57.948  1.00  0.00     0.019 A 
HETATM   25  C   UNL     1     -42.633  58.141 -56.823  1.00  0.00     0.010 A 
ENDBRANCH   8  19
BRANCH   5  26
HETATM   26  N   UNL     1     -45.966  58.681 -50.854  1.00  0.00    -0.229 N 
HETATM   27  H   UNL     1     -45.998  59.631 -50.511  1.00  0.00     0.174 HD
HETATM   28  H   UNL     1     -46.345  57.987 -50.224  1.00  0.00     0.174 HD
ENDBRANCH   5  26
TORSDOF 4
ENDMDL
MODEL 8
REMARK VINA RESULT:      -7.4     14.371     15.866
REMARK  4 active torsions:
REMARK  status: ('A' for Active; 'I' for Inactive)
REMARK    1  A    between atoms: O_2  and  C_3 
REMARK    2  A    between atoms: C_4  and  C_5 
REMARK    3  A    between atoms: C_9  and  N_10 
REMARK    4  A    between atoms: C_13  and  C_14 
ROOT
HETATM    1  C   UNL     1     -34.889  40.045 -54.445  1.00  0.00     0.167 C 
HETATM    2  N   UNL     1     -36.092  40.378 -53.687  1.00  0.00    -0.074 N 
HETATM    3  C   UNL     1     -36.904  41.443 -53.978  1.00  0.00     0.736 A 
HETATM    4  N   UNL     1     -37.971  41.384 -53.225  1.00  0.00     0.131 NA
HETATM    5  C   UNL     1     -37.789  40.231 -52.522  1.00  0.00     0.753 A 
HETATM    6  N   UNL     1     -36.666  39.567 -52.778  1.00  0.00     0.037 NA
HETATM    7  N   UNL     1     -36.593  42.328 -54.947  1.00  0.00    -0.214 N 
HETATM    8  C   UNL     1     -35.528  42.042 -55.899  1.00  0.00     0.135 C 
HETATM    9  C   UNL     1     -34.380  41.283 -55.211  1.00  0.00     0.063 C 
HETATM   10  H   UNL     1     -37.344  42.925 -55.282  1.00  0.00     0.178 HD
ENDROOT
BRANCH   1  11
HETATM   11  C   UNL     1     -33.793  39.462 -53.561  1.00  0.00     0.001 A 
HETATM   12  C   UNL     1     -33.286  40.187 -52.468  1.00  0.00     0.076 A 
HETATM   13  C   UNL     1     -32.301  39.625 -51.646  1.00  0.00     0.037 A 
HETATM   14  C   UNL     1     -31.793  38.356 -51.920  1.00  0.00     0.003 A 
HETATM   15  C   UNL     1     -32.270  37.637 -53.010  1.00  0.00     0.001 A 
HETATM   16  C   UNL     1     -33.262  38.183 -53.825  1.00  0.00     0.012 A 
BRANCH  12  17
HETATM   17  O   UNL     1     -33.837  41.417 -52.220  1.00  0.00    -0.355 OA
HETATM   18  C   UNL     1     -34.310  41.598 -50.887  1.00  0.00     0.210 C 
ENDBRANCH  12  17
ENDBRANCH   1  11
BRANCH   8  19
HETATM   19  C   UNL     1     -36.017  41.361 -57.170  1.00  0.00    -0.035 A 
HETATM   20  C   UNL     1     -36.952  42.037 -57.978  1.00  0.00     0.010 A 
HETATM   21  C   UNL     1     -37.423  41.470 -59.165  1.00  0.00     0.019 A 
HETATM   22  C   UNL     1     -36.961  40.220 -59.563  1.00  0.00     0.011 A 
HETATM   23 BR   UNL     1     -37.596  39.452 -61.170  1.00  0.00    -0.051 Br
HETATM   24  C   UNL     1     -36.036  39.533 -58.785  1.00  0.00     0.019 A 
HETATM   25  C   UNL     1     -35.567  40.100 -57.595  1.00  0.00     0.010 A 
ENDBRANCH   8  19
BRANCH   5  26
HETATM   26  N   UNL     1     -38.721  39.865 -51.647  1.00  0.00    -0.229 N 
HETATM   27  H   UNL     1     -38.516  40.037 -50.673  1.00  0.00     0.174 HD
HETATM   28  H   UNL     1     -39.193  38.990 -51.835  1.00  0.00     0.174 HD
ENDBRANCH   5  26
TORSDOF 4
ENDMDL
MODEL 9
REMARK VINA RESULT:      -7.3      3.966      7.795
REMARK  4 active torsions:
REMARK  status: ('A' for Active; 'I' for Inactive)
REMARK    1  A    between atoms: O_2  and  C_3 
REMARK    2  A    between atoms: C_4  and  C_5 
REMARK    3  A    between atoms: C_9  and  N_10 
REMARK    4  A    between atoms: C_13  and  C_14 
ROOT
HETATM    1  C   UNL     1     -44.113  57.750 -57.030  1.00  0.00     0.167 C 
HETATM    2  N   UNL     1     -43.199  58.889 -57.010  1.00  0.00    -0.074 N 
HETATM    3  C   UNL     1     -42.601  59.364 -55.872  1.00  0.00     0.736 A 
HETATM    4  N   UNL     1     -41.728  60.281 -56.199  1.00  0.00     0.131 NA
HETATM    5  C   UNL     1     -41.793  60.296 -57.560  1.00  0.00     0.753 A 
HETATM    6  N   UNL     1     -42.663  59.453 -58.109  1.00  0.00     0.037 NA
HETATM    7  N   UNL     1     -42.890  58.859 -54.655  1.00  0.00    -0.214 N 
HETATM    8  C   UNL     1     -43.642  57.617 -54.527  1.00  0.00     0.135 C 
HETATM    9  C   UNL     1     -44.711  57.519 -55.629  1.00  0.00     0.063 C 
HETATM   10  H   UNL     1     -42.237  59.066 -53.905  1.00  0.00     0.178 HD
ENDROOT
BRANCH   1  11
HETATM   11  C   UNL     1     -45.212  57.911 -58.074  1.00  0.00     0.001 A 
HETATM   12  C   UNL     1     -45.242  57.100 -59.222  1.00  0.00     0.076 A 
HETATM   13  C   UNL     1     -46.276  57.239 -60.156  1.00  0.00     0.037 A 
HETATM   14  C   UNL     1     -47.267  58.203 -59.974  1.00  0.00     0.003 A 
HETATM   15  C   UNL     1     -47.237  59.027 -58.854  1.00  0.00     0.001 A 
HETATM   16  C   UNL     1     -46.220  58.884 -57.911  1.00  0.00     0.012 A 
BRANCH  12  17
HETATM   17  O   UNL     1     -44.265  56.146 -59.343  1.00  0.00    -0.355 OA
HETATM   18  C   UNL     1     -44.709  54.907 -59.893  1.00  0.00     0.210 C 
ENDBRANCH  12  17
ENDBRANCH   1  11
BRANCH   8  19
HETATM   19  C   UNL     1     -42.761  56.380 -54.438  1.00  0.00    -0.035 A 
HETATM   20  C   UNL     1     -43.370  55.112 -54.517  1.00  0.00     0.010 A 
HETATM   21  C   UNL     1     -42.611  53.941 -54.459  1.00  0.00     0.019 A 
HETATM   22  C   UNL     1     -41.228  54.021 -54.327  1.00  0.00     0.011 A 
HETATM   23 BR   UNL     1     -40.198  52.439 -54.251  1.00  0.00    -0.051 Br
HETATM   24  C   UNL     1     -40.601  55.261 -54.249  1.00  0.00     0.019 A 
HETATM   25  C   UNL     1     -41.363  56.433 -54.304  1.00  0.00     0.010 A 
ENDBRANCH   8  19
BRANCH   5  26
HETATM   26  N   UNL     1     -41.007  61.138 -58.226  1.00  0.00    -0.229 N 
HETATM   27  H   UNL     1     -40.484  60.749 -58.998  1.00  0.00     0.174 HD
HETATM   28  H   UNL     1     -40.506  61.817 -57.670  1.00  0.00     0.174 HD
ENDBRANCH   5  26
TORSDOF 4
ENDMDL
MODEL 10
REMARK VINA RESULT:      -7.0      2.511      4.638
REMARK  4 active torsions:
REMARK  status: ('A' for Active; 'I' for Inactive)
REMARK    1  A    between atoms: O_2  and  C_3 
REMARK    2  A    between atoms: C_4  and  C_5 
REMARK    3  A    between atoms: C_9  and  N_10 
REMARK    4  A    between atoms: C_13  and  C_14 
ROOT
HETATM    1  C   UNL     1     -41.837  56.388 -53.850  1.00  0.00     0.167 C 
HETATM    2  N   UNL     1     -41.576  54.960 -54.011  1.00  0.00    -0.074 N 
HETATM    3  C   UNL     1     -42.364  54.123 -54.756  1.00  0.00     0.736 A 
HETATM    4  N   UNL     1     -41.789  52.951 -54.833  1.00  0.00     0.131 NA
HETATM    5  C   UNL     1     -40.621  53.137 -54.157  1.00  0.00     0.753 A 
HETATM    6  N   UNL     1     -40.431  54.351 -53.649  1.00  0.00     0.037 NA
HETATM    7  N   UNL     1     -43.508  54.549 -55.330  1.00  0.00    -0.214 N 
HETATM    8  C   UNL     1     -43.814  55.972 -55.407  1.00  0.00     0.135 C 
HETATM    9  C   UNL     1     -43.318  56.698 -54.145  1.00  0.00     0.063 C 
HETATM   10  H   UNL     1     -43.897  53.968 -56.067  1.00  0.00     0.178 HD
ENDROOT
BRANCH   1  11
HETATM   11  C   UNL     1     -41.438  56.895 -52.469  1.00  0.00     0.001 A 
HETATM   12  C   UNL     1     -40.859  58.166 -52.306  1.00  0.00     0.076 A 
HETATM   13  C   UNL     1     -40.527  58.630 -51.028  1.00  0.00     0.037 A 
HETATM   14  C   UNL     1     -40.736  57.826 -49.908  1.00  0.00     0.003 A 
HETATM   15  C   UNL     1     -41.287  56.557 -50.057  1.00  0.00     0.001 A 
HETATM   16  C   UNL     1     -41.636  56.094 -51.325  1.00  0.00     0.012 A 
BRANCH  12  17
HETATM   17  O   UNL     1     -40.701  58.933 -53.431  1.00  0.00    -0.355 OA
HETATM   18  C   UNL     1     -41.683  59.954 -53.598  1.00  0.00     0.210 C 
ENDBRANCH  12  17
ENDBRANCH   1  11
BRANCH   8  19
HETATM   19  C   UNL     1     -43.340  56.625 -56.698  1.00  0.00    -0.035 A 
HETATM   20  C   UNL     1     -43.189  55.820 -57.844  1.00  0.00     0.010 A 
HETATM   21  C   UNL     1     -42.775  56.366 -59.061  1.00  0.00     0.019 A 
HETATM   22  C   UNL     1     -42.510  57.729 -59.151  1.00  0.00     0.011 A 
HETATM   23 BR   UNL     1     -41.951  58.471 -60.797  1.00  0.00    -0.051 Br
HETATM   24  C   UNL     1     -42.653  58.547 -58.034  1.00  0.00     0.019 A 
HETATM   25  C   UNL     1     -43.065  57.998 -56.816  1.00  0.00     0.010 A 
ENDBRANCH   8  19
BRANCH   5  26
HETATM   26  N   UNL     1     -39.778  52.114 -54.049  1.00  0.00    -0.229 N 
HETATM   27  H   UNL     1     -40.105  51.315 -53.525  1.00  0.00     0.174 HD
HETATM   28  H   UNL     1     -38.805  52.349 -53.906  1.00  0.00     0.174 HD
ENDBRANCH   5  26
TORSDOF 4
ENDMDL
