MODEL 1
REMARK VINA RESULT:      -7.5      0.000      0.000
REMARK  4 active torsions:
REMARK  status: ('A' for Active; 'I' for Inactive)
REMARK    1  A    between atoms: C_9  and  C_10 
REMARK       I    between atoms: C_10  and  N_11 
REMARK    2  A    between atoms: N_11  and  C_12 
REMARK    3  A    between atoms: C_12  and  C_13 
REMARK    4  A    between atoms: C_14  and  O_15 
ROOT
HETATM    1  C   UNL     1     -41.156  55.268 -53.350  1.00  0.00     0.273 C 
HETATM    2  N   UNL     1     -42.382  55.845 -53.100  1.00  0.00    -0.347 N 
HETATM    3  O   UNL     1     -40.444  55.560 -54.306  1.00  0.00    -0.266 OA
HETATM    4  H   UNL     1     -42.768  55.615 -52.188  1.00  0.00     0.163 HD
ENDROOT
BRANCH   1   5
HETATM    5  C   UNL     1     -40.775  54.266 -52.341  1.00  0.00     0.157 A 
HETATM    6  C   UNL     1     -40.381  52.914 -52.570  1.00  0.00     0.029 A 
HETATM    7  C   UNL     1     -40.232  52.077 -53.694  1.00  0.00     0.023 A 
HETATM    8  C   UNL     1     -40.107  52.399 -51.310  1.00  0.00     0.063 A 
HETATM    9  C   UNL     1     -39.818  50.745 -53.514  1.00  0.00    -0.061 A 
HETATM   10  C   UNL     1     -39.674  49.829 -54.696  1.00  0.00     0.048 C 
HETATM   11  C   UNL     1     -39.548  50.268 -52.227  1.00  0.00     0.009 A 
HETATM   12  C   UNL     1     -39.685  51.084 -51.097  1.00  0.00     0.032 A 
HETATM   13  N   UNL     1     -40.345  53.427 -50.440  1.00  0.00    -0.277 N 
HETATM   14  H   UNL     1     -40.244  53.411 -49.433  1.00  0.00     0.189 HD
HETATM   15  N   UNL     1     -40.761  54.565 -51.022  1.00  0.00    -0.168 NA
ENDBRANCH   1   5
BRANCH   2  16
HETATM   16  C   UNL     1     -42.857  57.035 -53.782  1.00  0.00     0.116 C 
HETATM   17  C   UNL     1     -43.927  56.711 -54.835  1.00  0.00     0.037 C 
BRANCH  16  18
HETATM   18  C   UNL     1     -43.344  58.044 -52.744  1.00  0.00    -0.003 A 
HETATM   19  C   UNL     1     -42.429  58.847 -52.030  1.00  0.00     0.076 A 
HETATM   20  C   UNL     1     -42.900  59.762 -51.080  1.00  0.00     0.037 A 
HETATM   21  C   UNL     1     -44.265  59.869 -50.811  1.00  0.00     0.003 A 
HETATM   22  C   UNL     1     -45.172  59.056 -51.482  1.00  0.00     0.001 A 
HETATM   23  C   UNL     1     -44.714  58.147 -52.434  1.00  0.00     0.012 A 
BRANCH  19  24
HETATM   24  O   UNL     1     -41.104  58.676 -52.336  1.00  0.00    -0.355 OA
HETATM   25  C   UNL     1     -40.169  58.789 -51.271  1.00  0.00     0.210 C 
ENDBRANCH  19  24
ENDBRANCH  16  18
ENDBRANCH   2  16
TORSDOF 4
ENDMDL
MODEL 2
REMARK VINA RESULT:      -7.3      3.418      6.601
REMARK  4 active torsions:
REMARK  status: ('A' for Active; 'I' for Inactive)
REMARK    1  A    between atoms: C_9  and  C_10 
REMARK       I    between atoms: C_10  and  N_11 
REMARK    2  A    between atoms: N_11  and  C_12 
REMARK    3  A    between atoms: C_12  and  C_13 
REMARK    4  A    between atoms: C_14  and  O_15 
ROOT
HETATM    1  C   UNL     1     -42.731  54.553 -55.751  1.00  0.00     0.273 C 
HETATM    2  N   UNL     1     -41.787  54.516 -54.748  1.00  0.00    -0.347 N 
HETATM    3  O   UNL     1     -43.534  53.651 -55.971  1.00  0.00    -0.266 OA
HETATM    4  H   UNL     1     -41.313  55.401 -54.595  1.00  0.00     0.163 HD
ENDROOT
BRANCH   1   5
HETATM    5  C   UNL     1     -42.689  55.799 -56.534  1.00  0.00     0.157 A 
HETATM    6  C   UNL     1     -43.195  56.011 -57.852  1.00  0.00     0.029 A 
HETATM    7  C   UNL     1     -43.835  55.225 -58.831  1.00  0.00     0.023 A 
HETATM    8  C   UNL     1     -42.931  57.345 -58.130  1.00  0.00     0.063 A 
HETATM    9  C   UNL     1     -44.185  55.806 -60.063  1.00  0.00    -0.061 A 
HETATM   10  C   UNL     1     -44.848  54.982 -61.129  1.00  0.00     0.048 C 
HETATM   11  C   UNL     1     -43.905  57.157 -60.301  1.00  0.00     0.009 A 
HETATM   12  C   UNL     1     -43.275  57.956 -59.339  1.00  0.00     0.032 A 
HETATM   13  N   UNL     1     -42.311  57.831 -57.013  1.00  0.00    -0.277 N 
HETATM   14  H   UNL     1     -41.978  58.776 -56.860  1.00  0.00     0.189 HD
HETATM   15  N   UNL     1     -42.135  56.927 -56.034  1.00  0.00    -0.168 NA
ENDBRANCH   1   5
BRANCH   2  16
HETATM   16  C   UNL     1     -41.797  53.533 -53.681  1.00  0.00     0.116 C 
HETATM   17  C   UNL     1     -40.769  52.416 -53.912  1.00  0.00     0.037 C 
BRANCH  16  18
HETATM   18  C   UNL     1     -41.597  54.244 -52.345  1.00  0.00    -0.003 A 
HETATM   19  C   UNL     1     -42.462  55.284 -51.941  1.00  0.00     0.076 A 
HETATM   20  C   UNL     1     -42.255  55.924 -50.713  1.00  0.00     0.037 A 
HETATM   21  C   UNL     1     -41.182  55.565 -49.896  1.00  0.00     0.003 A 
HETATM   22  C   UNL     1     -40.302  54.569 -50.301  1.00  0.00     0.001 A 
HETATM   23  C   UNL     1     -40.504  53.920 -51.518  1.00  0.00     0.012 A 
BRANCH  19  24
HETATM   24  O   UNL     1     -43.482  55.592 -52.803  1.00  0.00    -0.355 OA
HETATM   25  C   UNL     1     -43.962  56.932 -52.792  1.00  0.00     0.210 C 
ENDBRANCH  19  24
ENDBRANCH  16  18
ENDBRANCH   2  16
TORSDOF 4
ENDMDL
MODEL 3
REMARK VINA RESULT:      -7.2      2.202      7.191
REMARK  4 active torsions:
REMARK  status: ('A' for Active; 'I' for Inactive)
REMARK    1  A    between atoms: C_9  and  C_10 
REMARK       I    between atoms: C_10  and  N_11 
REMARK    2  A    between atoms: N_11  and  C_12 
REMARK    3  A    between atoms: C_12  and  C_13 
REMARK    4  A    between atoms: C_14  and  O_15 
ROOT
HETATM    1  C   UNL     1     -42.845  55.204 -53.860  1.00  0.00     0.273 C 
HETATM    2  N   UNL     1     -41.700  54.510 -53.534  1.00  0.00    -0.347 N 
HETATM    3  O   UNL     1     -43.294  55.287 -54.999  1.00  0.00    -0.266 OA
HETATM    4  H   UNL     1     -41.554  54.401 -52.534  1.00  0.00     0.163 HD
ENDROOT
BRANCH   1   5
HETATM    5  C   UNL     1     -43.489  55.831 -52.694  1.00  0.00     0.157 A 
HETATM    6  C   UNL     1     -44.131  57.104 -52.642  1.00  0.00     0.029 A 
HETATM    7  C   UNL     1     -44.368  58.159 -53.545  1.00  0.00     0.023 A 
HETATM    8  C   UNL     1     -44.589  57.225 -51.336  1.00  0.00     0.063 A 
HETATM    9  C   UNL     1     -45.053  59.306 -53.106  1.00  0.00    -0.061 A 
HETATM   10  C   UNL     1     -45.296  60.452 -54.046  1.00  0.00     0.048 C 
HETATM   11  C   UNL     1     -45.502  59.384 -51.783  1.00  0.00     0.009 A 
HETATM   12  C   UNL     1     -45.282  58.345 -50.870  1.00  0.00     0.032 A 
HETATM   13  N   UNL     1     -44.210  56.068 -50.713  1.00  0.00    -0.277 N 
HETATM   14  H   UNL     1     -44.381  55.809 -49.749  1.00  0.00     0.189 HD
HETATM   15  N   UNL     1     -43.534  55.209 -51.494  1.00  0.00    -0.168 NA
ENDBRANCH   1   5
BRANCH   2  16
HETATM   16  C   UNL     1     -41.039  53.591 -54.442  1.00  0.00     0.116 C 
HETATM   17  C   UNL     1     -39.932  54.277 -55.256  1.00  0.00     0.037 C 
BRANCH  16  18
HETATM   18  C   UNL     1     -40.524  52.391 -53.651  1.00  0.00    -0.003 A 
HETATM   19  C   UNL     1     -40.123  52.529 -52.305  1.00  0.00     0.076 A 
HETATM   20  C   UNL     1     -39.650  51.414 -51.601  1.00  0.00     0.037 A 
HETATM   21  C   UNL     1     -39.543  50.171 -52.227  1.00  0.00     0.003 A 
HETATM   22  C   UNL     1     -39.900  50.032 -53.562  1.00  0.00     0.001 A 
HETATM   23  C   UNL     1     -40.379  51.134 -54.270  1.00  0.00     0.012 A 
BRANCH  19  24
HETATM   24  O   UNL     1     -40.240  53.783 -51.763  1.00  0.00    -0.355 OA
HETATM   25  C   UNL     1     -40.016  53.912 -50.364  1.00  0.00     0.210 C 
ENDBRANCH  19  24
ENDBRANCH  16  18
ENDBRANCH   2  16
TORSDOF 4
ENDMDL
MODEL 4
REMARK VINA RESULT:      -7.2      1.861      7.043
REMARK  4 active torsions:
REMARK  status: ('A' for Active; 'I' for Inactive)
REMARK    1  A    between atoms: C_9  and  C_10 
REMARK       I    between atoms: C_10  and  N_11 
REMARK    2  A    between atoms: N_11  and  C_12 
REMARK    3  A    between atoms: C_12  and  C_13 
REMARK    4  A    between atoms: C_14  and  O_15 
ROOT
HETATM    1  C   UNL     1     -41.866  55.967 -50.557  1.00  0.00     0.273 C 
HETATM    2  N   UNL     1     -41.627  54.707 -51.061  1.00  0.00    -0.347 N 
HETATM    3  O   UNL     1     -41.135  56.532 -49.749  1.00  0.00    -0.266 OA
HETATM    4  H   UNL     1     -42.232  54.451 -51.836  1.00  0.00     0.163 HD
ENDROOT
BRANCH   1   5
HETATM    5  C   UNL     1     -43.090  56.580 -51.098  1.00  0.00     0.157 A 
HETATM    6  C   UNL     1     -43.187  57.524 -52.163  1.00  0.00     0.029 A 
HETATM    7  C   UNL     1     -42.282  58.193 -53.012  1.00  0.00     0.023 A 
HETATM    8  C   UNL     1     -44.546  57.774 -52.303  1.00  0.00     0.063 A 
HETATM    9  C   UNL     1     -42.772  59.096 -53.972  1.00  0.00    -0.061 A 
HETATM   10  C   UNL     1     -41.825  59.836 -54.872  1.00  0.00     0.048 C 
HETATM   11  C   UNL     1     -44.151  59.314 -54.082  1.00  0.00     0.009 A 
HETATM   12  C   UNL     1     -45.067  58.657 -53.252  1.00  0.00     0.032 A 
HETATM   13  N   UNL     1     -45.154  56.999 -51.355  1.00  0.00    -0.277 N 
HETATM   14  H   UNL     1     -46.148  56.925 -51.171  1.00  0.00     0.189 HD
HETATM   15  N   UNL     1     -44.310  56.275 -50.600  1.00  0.00    -0.168 NA
ENDBRANCH   1   5
BRANCH   2  16
HETATM   16  C   UNL     1     -40.365  54.010 -50.898  1.00  0.00     0.116 C 
HETATM   17  C   UNL     1     -40.243  53.348 -49.517  1.00  0.00     0.037 C 
BRANCH  16  18
HETATM   18  C   UNL     1     -40.194  53.013 -52.041  1.00  0.00    -0.003 A 
HETATM   19  C   UNL     1     -40.406  53.404 -53.381  1.00  0.00     0.076 A 
HETATM   20  C   UNL     1     -40.248  52.470 -54.413  1.00  0.00     0.037 A 
HETATM   21  C   UNL     1     -39.910  51.146 -54.127  1.00  0.00     0.003 A 
HETATM   22  C   UNL     1     -39.734  50.741 -52.809  1.00  0.00     0.001 A 
HETATM   23  C   UNL     1     -39.883  51.665 -51.776  1.00  0.00     0.012 A 
BRANCH  19  24
HETATM   24  O   UNL     1     -40.752  54.715 -53.582  1.00  0.00    -0.355 OA
HETATM   25  C   UNL     1     -41.513  55.017 -54.745  1.00  0.00     0.210 C 
ENDBRANCH  19  24
ENDBRANCH  16  18
ENDBRANCH   2  16
TORSDOF 4
ENDMDL
MODEL 5
REMARK VINA RESULT:      -7.1      2.523      6.422
REMARK  4 active torsions:
REMARK  status: ('A' for Active; 'I' for Inactive)
REMARK    1  A    between atoms: C_9  and  C_10 
REMARK       I    between atoms: C_10  and  N_11 
REMARK    2  A    between atoms: N_11  and  C_12 
REMARK    3  A    between atoms: C_12  and  C_13 
REMARK    4  A    between atoms: C_14  and  O_15 
ROOT
HETATM    1  C   UNL     1     -41.545  57.406 -52.030  1.00  0.00     0.273 C 
HETATM    2  N   UNL     1     -42.467  56.384 -52.086  1.00  0.00    -0.347 N 
HETATM    3  O   UNL     1     -40.704  57.522 -51.143  1.00  0.00    -0.266 OA
HETATM    4  H   UNL     1     -42.981  56.339 -52.962  1.00  0.00     0.163 HD
ENDROOT
BRANCH   1   5
HETATM    5  C   UNL     1     -41.660  58.347 -53.157  1.00  0.00     0.157 A 
HETATM    6  C   UNL     1     -42.007  58.042 -54.506  1.00  0.00     0.029 A 
HETATM    7  C   UNL     1     -42.319  56.878 -55.236  1.00  0.00     0.023 A 
HETATM    8  C   UNL     1     -41.998  59.264 -55.167  1.00  0.00     0.063 A 
HETATM    9  C   UNL     1     -42.607  56.978 -56.609  1.00  0.00    -0.061 A 
HETATM   10  C   UNL     1     -42.920  55.747 -57.410  1.00  0.00     0.048 C 
HETATM   11  C   UNL     1     -42.591  58.230 -57.234  1.00  0.00     0.009 A 
HETATM   12  C   UNL     1     -42.289  59.400 -56.526  1.00  0.00     0.032 A 
HETATM   13  N   UNL     1     -41.660  60.186 -54.215  1.00  0.00    -0.277 N 
HETATM   14  H   UNL     1     -41.562  61.186 -54.340  1.00  0.00     0.189 HD
HETATM   15  N   UNL     1     -41.436  59.671 -52.994  1.00  0.00    -0.168 NA
ENDBRANCH   1   5
BRANCH   2  16
HETATM   16  C   UNL     1     -42.391  55.195 -51.257  1.00  0.00     0.116 C 
HETATM   17  C   UNL     1     -43.780  54.701 -50.825  1.00  0.00     0.037 C 
BRANCH  16  18
HETATM   18  C   UNL     1     -41.592  54.123 -51.994  1.00  0.00    -0.003 A 
HETATM   19  C   UNL     1     -40.673  53.303 -51.305  1.00  0.00     0.076 A 
HETATM   20  C   UNL     1     -39.949  52.329 -52.003  1.00  0.00     0.037 A 
HETATM   21  C   UNL     1     -40.104  52.180 -53.382  1.00  0.00     0.003 A 
HETATM   22  C   UNL     1     -40.978  53.007 -54.077  1.00  0.00     0.001 A 
HETATM   23  C   UNL     1     -41.710  53.975 -53.390  1.00  0.00     0.012 A 
BRANCH  19  24
HETATM   24  O   UNL     1     -40.562  53.518 -49.956  1.00  0.00    -0.355 OA
HETATM   25  C   UNL     1     -39.432  54.254 -49.503  1.00  0.00     0.210 C 
ENDBRANCH  19  24
ENDBRANCH  16  18
ENDBRANCH   2  16
TORSDOF 4
ENDMDL
MODEL 6
REMARK VINA RESULT:      -7.1      4.118      6.374
REMARK  4 active torsions:
REMARK  status: ('A' for Active; 'I' for Inactive)
REMARK    1  A    between atoms: C_9  and  C_10 
REMARK       I    between atoms: C_10  and  N_11 
REMARK    2  A    between atoms: N_11  and  C_12 
REMARK    3  A    between atoms: C_12  and  C_13 
REMARK    4  A    between atoms: C_14  and  O_15 
ROOT
HETATM    1  C   UNL     1     -42.888  57.339 -56.512  1.00  0.00     0.273 C 
HETATM    2  N   UNL     1     -43.196  56.575 -57.616  1.00  0.00    -0.347 N 
HETATM    3  O   UNL     1     -42.386  58.458 -56.571  1.00  0.00    -0.266 OA
HETATM    4  H   UNL     1     -43.751  55.751 -57.405  1.00  0.00     0.163 HD
ENDROOT
BRANCH   1   5
HETATM    5  C   UNL     1     -43.236  56.681 -55.241  1.00  0.00     0.157 A 
HETATM    6  C   UNL     1     -42.595  55.552 -54.648  1.00  0.00     0.029 A 
HETATM    7  C   UNL     1     -41.528  54.697 -54.988  1.00  0.00     0.023 A 
HETATM    8  C   UNL     1     -43.277  55.334 -53.458  1.00  0.00     0.063 A 
HETATM    9  C   UNL     1     -41.183  53.644 -54.122  1.00  0.00    -0.061 A 
HETATM   10  C   UNL     1     -40.064  52.707 -54.474  1.00  0.00     0.048 C 
HETATM   11  C   UNL     1     -41.894  53.463 -52.929  1.00  0.00     0.009 A 
HETATM   12  C   UNL     1     -42.954  54.304 -52.571  1.00  0.00     0.032 A 
HETATM   13  N   UNL     1     -44.242  56.302 -53.412  1.00  0.00    -0.277 N 
HETATM   14  H   UNL     1     -44.926  56.449 -52.680  1.00  0.00     0.189 HD
HETATM   15  N   UNL     1     -44.257  57.125 -54.474  1.00  0.00    -0.168 NA
ENDBRANCH   1   5
BRANCH   2  16
HETATM   16  C   UNL     1     -43.203  57.097 -58.970  1.00  0.00     0.116 C 
HETATM   17  C   UNL     1     -42.065  56.515 -59.821  1.00  0.00     0.037 C 
BRANCH  16  18
HETATM   18  C   UNL     1     -44.577  56.859 -59.590  1.00  0.00    -0.003 A 
HETATM   19  C   UNL     1     -45.687  57.648 -59.216  1.00  0.00     0.076 A 
HETATM   20  C   UNL     1     -46.939  57.407 -59.795  1.00  0.00     0.037 A 
HETATM   21  C   UNL     1     -47.109  56.375 -60.719  1.00  0.00     0.003 A 
HETATM   22  C   UNL     1     -46.031  55.569 -61.066  1.00  0.00     0.001 A 
HETATM   23  C   UNL     1     -44.779  55.804 -60.501  1.00  0.00     0.012 A 
BRANCH  19  24
HETATM   24  O   UNL     1     -45.448  58.631 -58.291  1.00  0.00    -0.355 OA
HETATM   25  C   UNL     1     -46.291  58.669 -57.147  1.00  0.00     0.210 C 
ENDBRANCH  19  24
ENDBRANCH  16  18
ENDBRANCH   2  16
TORSDOF 4
ENDMDL
MODEL 7
REMARK VINA RESULT:      -7.1      3.199      7.461
REMARK  4 active torsions:
REMARK  status: ('A' for Active; 'I' for Inactive)
REMARK    1  A    between atoms: C_9  and  C_10 
REMARK       I    between atoms: C_10  and  N_11 
REMARK    2  A    between atoms: N_11  and  C_12 
REMARK    3  A    between atoms: C_12  and  C_13 
REMARK    4  A    between atoms: C_14  and  O_15 
ROOT
HETATM    1  C   UNL     1     -42.561  56.339 -54.736  1.00  0.00     0.273 C 
HETATM    2  N   UNL     1     -42.536  55.036 -54.289  1.00  0.00    -0.347 N 
HETATM    3  O   UNL     1     -42.546  57.318 -53.996  1.00  0.00    -0.266 OA
HETATM    4  H   UNL     1     -42.389  54.351 -55.024  1.00  0.00     0.163 HD
ENDROOT
BRANCH   1   5
HETATM    5  C   UNL     1     -42.597  56.443 -56.205  1.00  0.00     0.157 A 
HETATM    6  C   UNL     1     -42.397  57.614 -56.994  1.00  0.00     0.029 A 
HETATM    7  C   UNL     1     -42.140  58.976 -56.742  1.00  0.00     0.023 A 
HETATM    8  C   UNL     1     -42.510  57.186 -58.311  1.00  0.00     0.063 A 
HETATM    9  C   UNL     1     -42.011  59.868 -57.822  1.00  0.00    -0.061 A 
HETATM   10  C   UNL     1     -41.760  61.327 -57.576  1.00  0.00     0.048 C 
HETATM   11  C   UNL     1     -42.128  59.393 -59.134  1.00  0.00     0.009 A 
HETATM   12  C   UNL     1     -42.378  58.043 -59.407  1.00  0.00     0.032 A 
HETATM   13  N   UNL     1     -42.761  55.844 -58.234  1.00  0.00    -0.277 N 
HETATM   14  H   UNL     1     -42.898  55.202 -59.005  1.00  0.00     0.189 HD
HETATM   15  N   UNL     1     -42.834  55.361 -56.982  1.00  0.00    -0.168 NA
ENDBRANCH   1   5
BRANCH   2  16
HETATM   16  C   UNL     1     -42.230  54.670 -52.918  1.00  0.00     0.116 C 
HETATM   17  C   UNL     1     -43.497  54.379 -52.101  1.00  0.00     0.037 C 
BRANCH  16  18
HETATM   18  C   UNL     1     -41.254  53.497 -52.921  1.00  0.00    -0.003 A 
HETATM   19  C   UNL     1     -40.471  53.203 -51.784  1.00  0.00     0.076 A 
HETATM   20  C   UNL     1     -39.579  52.124 -51.812  1.00  0.00     0.037 A 
HETATM   21  C   UNL     1     -39.433  51.352 -52.965  1.00  0.00     0.003 A 
HETATM   22  C   UNL     1     -40.171  51.656 -54.103  1.00  0.00     0.001 A 
HETATM   23  C   UNL     1     -41.067  52.723 -54.083  1.00  0.00     0.012 A 
BRANCH  19  24
HETATM   24  O   UNL     1     -40.657  54.015 -50.694  1.00  0.00    -0.355 OA
HETATM   25  C   UNL     1     -39.570  54.145 -49.786  1.00  0.00     0.210 C 
ENDBRANCH  19  24
ENDBRANCH  16  18
ENDBRANCH   2  16
TORSDOF 4
ENDMDL
MODEL 8
REMARK VINA RESULT:      -7.1      1.911      7.252
REMARK  4 active torsions:
REMARK  status: ('A' for Active; 'I' for Inactive)
REMARK    1  A    between atoms: C_9  and  C_10 
REMARK       I    between atoms: C_10  and  N_11 
REMARK    2  A    between atoms: N_11  and  C_12 
REMARK    3  A    between atoms: C_12  and  C_13 
REMARK    4  A    between atoms: C_14  and  O_15 
ROOT
HETATM    1  C   UNL     1     -42.813  56.661 -53.067  1.00  0.00     0.273 C 
HETATM    2  N   UNL     1     -41.941  55.629 -53.338  1.00  0.00    -0.347 N 
HETATM    3  O   UNL     1     -44.016  56.622 -53.307  1.00  0.00    -0.266 OA
HETATM    4  H   UNL     1     -41.017  55.752 -52.933  1.00  0.00     0.163 HD
ENDROOT
BRANCH   1   5
HETATM    5  C   UNL     1     -42.155  57.821 -52.445  1.00  0.00     0.157 A 
HETATM    6  C   UNL     1     -42.770  58.860 -51.685  1.00  0.00     0.029 A 
HETATM    7  C   UNL     1     -44.082  59.184 -51.285  1.00  0.00     0.023 A 
HETATM    8  C   UNL     1     -41.728  59.697 -51.307  1.00  0.00     0.063 A 
HETATM    9  C   UNL     1     -44.306  60.344 -50.522  1.00  0.00    -0.061 A 
HETATM   10  C   UNL     1     -45.698  60.720 -50.104  1.00  0.00     0.048 C 
HETATM   11  C   UNL     1     -43.226  61.157 -50.157  1.00  0.00     0.009 A 
HETATM   12  C   UNL     1     -41.915  60.850 -50.540  1.00  0.00     0.032 A 
HETATM   13  N   UNL     1     -40.602  59.134 -51.839  1.00  0.00    -0.277 N 
HETATM   14  H   UNL     1     -39.652  59.476 -51.760  1.00  0.00     0.189 HD
HETATM   15  N   UNL     1     -40.819  58.010 -52.543  1.00  0.00    -0.168 NA
ENDBRANCH   1   5
BRANCH   2  16
HETATM   16  C   UNL     1     -42.376  54.291 -53.695  1.00  0.00     0.116 C 
HETATM   17  C   UNL     1     -42.703  54.169 -55.191  1.00  0.00     0.037 C 
BRANCH  16  18
HETATM   18  C   UNL     1     -41.321  53.285 -53.243  1.00  0.00    -0.003 A 
HETATM   19  C   UNL     1     -40.913  53.221 -51.894  1.00  0.00     0.076 A 
HETATM   20  C   UNL     1     -39.939  52.292 -51.503  1.00  0.00     0.037 A 
HETATM   21  C   UNL     1     -39.345  51.448 -52.443  1.00  0.00     0.003 A 
HETATM   22  C   UNL     1     -39.713  51.529 -53.781  1.00  0.00     0.001 A 
HETATM   23  C   UNL     1     -40.686  52.444 -54.178  1.00  0.00     0.012 A 
BRANCH  19  24
HETATM   24  O   UNL     1     -41.528  54.092 -51.032  1.00  0.00    -0.355 OA
HETATM   25  C   UNL     1     -40.696  54.823 -50.139  1.00  0.00     0.210 C 
ENDBRANCH  19  24
ENDBRANCH  16  18
ENDBRANCH   2  16
TORSDOF 4
ENDMDL
MODEL 9
REMARK VINA RESULT:      -7.0      3.542      5.868
REMARK  4 active torsions:
REMARK  status: ('A' for Active; 'I' for Inactive)
REMARK    1  A    between atoms: C_9  and  C_10 
REMARK       I    between atoms: C_10  and  N_11 
REMARK    2  A    between atoms: N_11  and  C_12 
REMARK    3  A    between atoms: C_12  and  C_13 
REMARK    4  A    between atoms: C_14  and  O_15 
ROOT
HETATM    1  C   UNL     1     -41.848  56.495 -55.211  1.00  0.00     0.273 C 
HETATM    2  N   UNL     1     -42.151  56.428 -56.553  1.00  0.00    -0.347 N 
HETATM    3  O   UNL     1     -42.042  57.486 -54.513  1.00  0.00    -0.266 OA
HETATM    4  H   UNL     1     -42.083  55.493 -56.945  1.00  0.00     0.163 HD
ENDROOT
BRANCH   1   5
HETATM    5  C   UNL     1     -41.274  55.244 -54.687  1.00  0.00     0.157 A 
HETATM    6  C   UNL     1     -41.108  54.874 -53.319  1.00  0.00     0.029 A 
HETATM    7  C   UNL     1     -41.363  55.471 -52.069  1.00  0.00     0.023 A 
HETATM    8  C   UNL     1     -40.548  53.604 -53.354  1.00  0.00     0.063 A 
HETATM    9  C   UNL     1     -41.040  54.774 -50.891  1.00  0.00    -0.061 A 
HETATM   10  C   UNL     1     -41.282  55.401 -49.548  1.00  0.00     0.048 C 
HETATM   11  C   UNL     1     -40.481  53.493 -50.971  1.00  0.00     0.009 A 
HETATM   12  C   UNL     1     -40.225  52.880 -52.203  1.00  0.00     0.032 A 
HETATM   13  N   UNL     1     -40.417  53.303 -54.681  1.00  0.00    -0.277 N 
HETATM   14  H   UNL     1     -40.045  52.450 -55.081  1.00  0.00     0.189 HD
HETATM   15  N   UNL     1     -40.832  54.271 -55.516  1.00  0.00    -0.168 NA
ENDBRANCH   1   5
BRANCH   2  16
HETATM   16  C   UNL     1     -42.963  57.418 -57.237  1.00  0.00     0.116 C 
HETATM   17  C   UNL     1     -42.119  58.573 -57.797  1.00  0.00     0.037 C 
BRANCH  16  18
HETATM   18  C   UNL     1     -43.793  56.724 -58.314  1.00  0.00    -0.003 A 
HETATM   19  C   UNL     1     -45.066  57.215 -58.676  1.00  0.00     0.076 A 
HETATM   20  C   UNL     1     -45.811  56.559 -59.664  1.00  0.00     0.037 A 
HETATM   21  C   UNL     1     -45.319  55.405 -60.276  1.00  0.00     0.003 A 
HETATM   22  C   UNL     1     -44.083  54.891 -59.900  1.00  0.00     0.001 A 
HETATM   23  C   UNL     1     -43.331  55.541 -58.923  1.00  0.00     0.012 A 
BRANCH  19  24
HETATM   24  O   UNL     1     -45.489  58.343 -58.021  1.00  0.00    -0.355 OA
HETATM   25  C   UNL     1     -46.851  58.386 -57.611  1.00  0.00     0.210 C 
ENDBRANCH  19  24
ENDBRANCH  16  18
ENDBRANCH   2  16
TORSDOF 4
ENDMDL
MODEL 10
REMARK VINA RESULT:      -6.9      1.873      3.145
REMARK  4 active torsions:
REMARK  status: ('A' for Active; 'I' for Inactive)
REMARK    1  A    between atoms: C_9  and  C_10 
REMARK       I    between atoms: C_10  and  N_11 
REMARK    2  A    between atoms: N_11  and  C_12 
REMARK    3  A    between atoms: C_12  and  C_13 
REMARK    4  A    between atoms: C_14  and  O_15 
ROOT
HETATM    1  C   UNL     1     -41.227  55.542 -52.157  1.00  0.00     0.273 C 
HETATM    2  N   UNL     1     -40.906  56.829 -52.529  1.00  0.00    -0.347 N 
HETATM    3  O   UNL     1     -41.777  55.251 -51.099  1.00  0.00    -0.266 OA
HETATM    4  H   UNL     1     -40.607  56.917 -53.496  1.00  0.00     0.163 HD
ENDROOT
BRANCH   1   5
HETATM    5  C   UNL     1     -40.854  54.541 -53.171  1.00  0.00     0.157 A 
HETATM    6  C   UNL     1     -40.460  53.188 -52.946  1.00  0.00     0.029 A 
HETATM    7  C   UNL     1     -40.264  52.361 -51.822  1.00  0.00     0.023 A 
HETATM    8  C   UNL     1     -40.235  52.662 -54.212  1.00  0.00     0.063 A 
HETATM    9  C   UNL     1     -39.843  51.032 -52.005  1.00  0.00    -0.061 A 
HETATM   10  C   UNL     1     -39.607  50.140 -50.821  1.00  0.00     0.048 C 
HETATM   11  C   UNL     1     -39.633  50.541 -53.299  1.00  0.00     0.009 A 
HETATM   12  C   UNL     1     -39.827  51.344 -54.430  1.00  0.00     0.032 A 
HETATM   13  N   UNL     1     -40.497  53.686 -55.079  1.00  0.00    -0.277 N 
HETATM   14  H   UNL     1     -40.440  53.661 -56.090  1.00  0.00     0.189 HD
HETATM   15  N   UNL     1     -40.860  54.838 -54.490  1.00  0.00    -0.168 NA
ENDBRANCH   1   5
BRANCH   2  16
HETATM   16  C   UNL     1     -41.404  58.005 -51.840  1.00  0.00     0.116 C 
HETATM   17  C   UNL     1     -40.269  58.853 -51.248  1.00  0.00     0.037 C 
BRANCH  16  18
HETATM   18  C   UNL     1     -42.294  58.801 -52.790  1.00  0.00    -0.003 A 
HETATM   19  C   UNL     1     -43.660  58.480 -52.943  1.00  0.00     0.076 A 
HETATM   20  C   UNL     1     -44.456  59.223 -53.824  1.00  0.00     0.037 A 
HETATM   21  C   UNL     1     -43.905  60.260 -54.578  1.00  0.00     0.003 A 
HETATM   22  C   UNL     1     -42.553  60.560 -54.463  1.00  0.00     0.001 A 
HETATM   23  C   UNL     1     -41.753  59.832 -53.583  1.00  0.00     0.012 A 
BRANCH  19  24
HETATM   24  O   UNL     1     -44.127  57.439 -52.183  1.00  0.00    -0.355 OA
HETATM   25  C   UNL     1     -45.111  57.739 -51.200  1.00  0.00     0.210 C 
ENDBRANCH  19  24
ENDBRANCH  16  18
ENDBRANCH   2  16
TORSDOF 4
ENDMDL
