MODEL 1
REMARK VINA RESULT:      -8.6      0.000      0.000
REMARK  5 active torsions:
REMARK  status: ('A' for Active; 'I' for Inactive)
REMARK    1  A    between atoms: C_2  and  N_3 
REMARK       I    between atoms: N_3  and  C_4 
REMARK       I    between atoms: C_4  and  N_5 
REMARK    2  A    between atoms: N_5  and  C_6 
REMARK    3  A    between atoms: C_9  and  C_10 
REMARK    4  A    between atoms: C_10  and  N_11 
REMARK       I    between atoms: N_11  and  C_12 
REMARK    5  A    between atoms: C_12  and  C_13 
ROOT
HETATM    1  N   UNL     1     -42.834  54.713 -53.791  1.00  0.00    -0.353 N 
HETATM    2  C   UNL     1     -41.552  54.440 -54.229  1.00  0.00     0.254 C 
HETATM    3  O   UNL     1     -40.961  55.178 -55.014  1.00  0.00    -0.268 OA
HETATM    4  H   UNL     1     -43.383  54.025 -53.301  1.00  0.00     0.163 HD
ENDROOT
BRANCH   1   5
HETATM    5  C   UNL     1     -43.540  55.828 -54.377  1.00  0.00     0.161 C 
BRANCH   5   6
HETATM    6  C   UNL     1     -43.631  57.013 -53.458  1.00  0.00    -0.040 A 
HETATM    7  C   UNL     1     -44.641  57.967 -53.634  1.00  0.00     0.011 A 
HETATM    8  C   UNL     1     -44.829  58.989 -52.696  1.00  0.00     0.030 A 
HETATM    9  C   UNL     1     -44.010  59.076 -51.570  1.00  0.00     0.036 A 
HETATM   10  C   UNL     1     -42.942  58.179 -51.444  1.00  0.00     0.030 A 
HETATM   11  C   UNL     1     -42.755  57.154 -52.377  1.00  0.00     0.011 A 
BRANCH   9  12
HETATM   12  N   UNL     1     -44.220  59.983 -50.509  1.00  0.00    -0.309 N 
HETATM   13  C   UNL     1     -45.224  59.934 -49.561  1.00  0.00     0.321 C 
HETATM   14  N   UNL     1     -44.986  60.861 -48.564  1.00  0.00    -0.339 N 
HETATM   15  O   UNL     1     -46.165  59.154 -49.535  1.00  0.00    -0.247 OA
HETATM   16  H   UNL     1     -44.503  61.699 -48.848  1.00  0.00     0.164 HD
HETATM   17  H   UNL     1     -43.443  60.580 -50.277  1.00  0.00     0.170 HD
BRANCH  14  18
HETATM   18  C   UNL     1     -45.791  60.965 -47.350  1.00  0.00     0.078 C 
HETATM   19  C   UNL     1     -46.731  62.171 -47.368  1.00  0.00     0.032 C 
HETATM   20  C   UNL     1     -44.941  60.932 -46.084  1.00  0.00     0.032 C 
ENDBRANCH  14  18
ENDBRANCH   9  12
ENDBRANCH   5   6
ENDBRANCH   1   5
BRANCH   2  21
HETATM   21  C   UNL     1     -40.894  53.194 -53.754  1.00  0.00     0.064 A 
HETATM   22  C   UNL     1     -40.618  53.040 -52.403  1.00  0.00     0.077 A 
HETATM   23  C   UNL     1     -39.991  51.900 -51.892  1.00  0.00     0.065 A 
HETATM   24  N   UNL     1     -40.873  53.894 -51.325  1.00  0.00    -0.330 N 
HETATM   25  N   UNL     1     -39.861  52.056 -50.512  1.00  0.00    -0.331 N 
HETATM   26  C   UNL     1     -39.609  50.854 -52.692  1.00  0.00     0.074 A 
HETATM   27  C   UNL     1     -40.414  53.292 -50.152  1.00  0.00     0.176 A 
HETATM   28  H   UNL     1     -39.457  51.399 -49.862  1.00  0.00     0.168 HD
HETATM   29  S   UNL     1     -40.504  53.909 -48.628  1.00  0.00    -0.041 SA
HETATM   30  C   UNL     1     -39.889  50.989 -54.051  1.00  0.00     0.119 A 
HETATM   31  F   UNL     1     -39.546  49.997 -54.883  1.00  0.00    -0.206 F 
HETATM   32  C   UNL     1     -40.523  52.130 -54.588  1.00  0.00     0.061 A 
HETATM   33  H   UNL     1     -41.342  54.790 -51.412  1.00  0.00     0.168 HD
ENDBRANCH   2  21
TORSDOF 5
ENDMDL
MODEL 2
REMARK VINA RESULT:      -8.6      4.708      7.240
REMARK  5 active torsions:
REMARK  status: ('A' for Active; 'I' for Inactive)
REMARK    1  A    between atoms: C_2  and  N_3 
REMARK       I    between atoms: N_3  and  C_4 
REMARK       I    between atoms: C_4  and  N_5 
REMARK    2  A    between atoms: N_5  and  C_6 
REMARK    3  A    between atoms: C_9  and  C_10 
REMARK    4  A    between atoms: C_10  and  N_11 
REMARK       I    between atoms: N_11  and  C_12 
REMARK    5  A    between atoms: C_12  and  C_13 
ROOT
HETATM    1  N   UNL     1     -41.221  55.390 -54.908  1.00  0.00    -0.353 N 
HETATM    2  C   UNL     1     -41.798  54.558 -53.968  1.00  0.00     0.254 C 
HETATM    3  O   UNL     1     -42.885  54.811 -53.454  1.00  0.00    -0.268 OA
HETATM    4  H   UNL     1     -40.259  55.282 -55.191  1.00  0.00     0.163 HD
ENDROOT
BRANCH   1   5
HETATM    5  C   UNL     1     -41.855  56.655 -55.192  1.00  0.00     0.161 C 
BRANCH   5   6
HETATM    6  C   UNL     1     -42.504  56.695 -56.548  1.00  0.00    -0.040 A 
HETATM    7  C   UNL     1     -42.870  55.506 -57.191  1.00  0.00     0.011 A 
HETATM    8  C   UNL     1     -43.611  55.536 -58.378  1.00  0.00     0.030 A 
HETATM    9  C   UNL     1     -43.993  56.753 -58.945  1.00  0.00     0.036 A 
HETATM   10  C   UNL     1     -43.545  57.940 -58.352  1.00  0.00     0.030 A 
HETATM   11  C   UNL     1     -42.810  57.913 -57.163  1.00  0.00     0.011 A 
BRANCH   9  12
HETATM   12  N   UNL     1     -44.856  56.870 -60.055  1.00  0.00    -0.309 N 
HETATM   13  C   UNL     1     -46.217  57.101 -60.028  1.00  0.00     0.321 C 
HETATM   14  N   UNL     1     -46.684  57.363 -61.303  1.00  0.00    -0.339 N 
HETATM   15  O   UNL     1     -46.931  57.144 -59.036  1.00  0.00    -0.247 OA
HETATM   16  H   UNL     1     -46.192  56.905 -62.055  1.00  0.00     0.164 HD
HETATM   17  H   UNL     1     -44.412  57.036 -60.944  1.00  0.00     0.170 HD
BRANCH  14  18
HETATM   18  C   UNL     1     -48.054  57.778 -61.591  1.00  0.00     0.078 C 
HETATM   19  C   UNL     1     -48.772  56.820 -62.542  1.00  0.00     0.032 C 
HETATM   20  C   UNL     1     -48.133  59.221 -62.078  1.00  0.00     0.032 C 
ENDBRANCH  14  18
ENDBRANCH   9  12
ENDBRANCH   5   6
ENDBRANCH   1   5
BRANCH   2  21
HETATM   21  C   UNL     1     -41.054  53.340 -53.551  1.00  0.00     0.064 A 
HETATM   22  C   UNL     1     -40.732  53.162 -52.213  1.00  0.00     0.077 A 
HETATM   23  C   UNL     1     -40.024  52.047 -51.755  1.00  0.00     0.065 A 
HETATM   24  N   UNL     1     -41.007  53.966 -51.102  1.00  0.00    -0.330 N 
HETATM   25  N   UNL     1     -39.865  52.168 -50.375  1.00  0.00    -0.331 N 
HETATM   26  C   UNL     1     -39.602  51.051 -52.598  1.00  0.00     0.074 A 
HETATM   27  C   UNL     1     -40.481  53.357 -49.961  1.00  0.00     0.176 A 
HETATM   28  H   UNL     1     -39.404  51.517 -49.757  1.00  0.00     0.168 HD
HETATM   29  S   UNL     1     -40.565  53.921 -48.416  1.00  0.00    -0.041 SA
HETATM   30  C   UNL     1     -39.927  51.210 -53.944  1.00  0.00     0.119 A 
HETATM   31  F   UNL     1     -39.549  50.266 -54.816  1.00  0.00    -0.206 F 
HETATM   32  C   UNL     1     -40.643  52.326 -54.427  1.00  0.00     0.061 A 
HETATM   33  H   UNL     1     -41.531  54.834 -51.148  1.00  0.00     0.168 HD
ENDBRANCH   2  21
TORSDOF 5
ENDMDL
MODEL 3
REMARK VINA RESULT:      -8.3      3.991      6.672
REMARK  5 active torsions:
REMARK  status: ('A' for Active; 'I' for Inactive)
REMARK    1  A    between atoms: C_2  and  N_3 
REMARK       I    between atoms: N_3  and  C_4 
REMARK       I    between atoms: C_4  and  N_5 
REMARK    2  A    between atoms: N_5  and  C_6 
REMARK    3  A    between atoms: C_9  and  C_10 
REMARK    4  A    between atoms: C_10  and  N_11 
REMARK       I    between atoms: N_11  and  C_12 
REMARK    5  A    between atoms: C_12  and  C_13 
ROOT
HETATM    1  N   UNL     1     -42.971  57.219 -50.683  1.00  0.00    -0.353 N 
HETATM    2  C   UNL     1     -41.621  56.923 -50.691  1.00  0.00     0.254 C 
HETATM    3  O   UNL     1     -40.779  57.736 -51.065  1.00  0.00    -0.268 OA
HETATM    4  H   UNL     1     -43.668  56.502 -50.554  1.00  0.00     0.163 HD
ENDROOT
BRANCH   1   5
HETATM    5  C   UNL     1     -43.407  58.470 -51.255  1.00  0.00     0.161 C 
BRANCH   5   6
HETATM    6  C   UNL     1     -43.987  58.316 -52.633  1.00  0.00    -0.040 A 
HETATM    7  C   UNL     1     -44.030  57.056 -53.243  1.00  0.00     0.011 A 
HETATM    8  C   UNL     1     -44.704  56.874 -54.456  1.00  0.00     0.030 A 
HETATM    9  C   UNL     1     -45.341  57.947 -55.081  1.00  0.00     0.036 A 
HETATM   10  C   UNL     1     -45.217  59.223 -54.518  1.00  0.00     0.030 A 
HETATM   11  C   UNL     1     -44.549  59.407 -53.303  1.00  0.00     0.011 A 
BRANCH   9  12
HETATM   12  N   UNL     1     -46.159  57.822 -56.224  1.00  0.00    -0.309 N 
HETATM   13  C   UNL     1     -45.784  58.018 -57.539  1.00  0.00     0.321 C 
HETATM   14  N   UNL     1     -46.790  57.601 -58.391  1.00  0.00    -0.339 N 
HETATM   15  O   UNL     1     -44.704  58.434 -57.936  1.00  0.00    -0.247 OA
HETATM   16  H   UNL     1     -47.731  57.694 -58.041  1.00  0.00     0.164 HD
HETATM   17  H   UNL     1     -47.023  57.319 -56.097  1.00  0.00     0.170 HD
BRANCH  14  18
HETATM   18  C   UNL     1     -46.648  57.553 -59.844  1.00  0.00     0.078 C 
HETATM   19  C   UNL     1     -47.282  58.758 -60.538  1.00  0.00     0.032 C 
HETATM   20  C   UNL     1     -47.146  56.237 -60.433  1.00  0.00     0.032 C 
ENDBRANCH  14  18
ENDBRANCH   9  12
ENDBRANCH   5   6
ENDBRANCH   1   5
BRANCH   2  21
HETATM   21  C   UNL     1     -41.192  55.565 -50.262  1.00  0.00     0.064 A 
HETATM   22  C   UNL     1     -40.881  54.614 -51.223  1.00  0.00     0.077 A 
HETATM   23  C   UNL     1     -40.483  53.316 -50.890  1.00  0.00     0.065 A 
HETATM   24  N   UNL     1     -40.883  54.703 -52.618  1.00  0.00    -0.330 N 
HETATM   25  N   UNL     1     -40.245  52.615 -52.072  1.00  0.00    -0.331 N 
HETATM   26  C   UNL     1     -40.371  52.896 -49.589  1.00  0.00     0.074 A 
HETATM   27  C   UNL     1     -40.486  53.475 -53.152  1.00  0.00     0.176 A 
HETATM   28  H   UNL     1     -39.937  51.659 -52.160  1.00  0.00     0.168 HD
HETATM   29  S   UNL     1     -40.325  53.100 -54.747  1.00  0.00    -0.041 SA
HETATM   30  C   UNL     1     -40.671  53.844 -48.612  1.00  0.00     0.119 A 
HETATM   31  F   UNL     1     -40.573  53.496 -47.322  1.00  0.00    -0.206 F 
HETATM   32  C   UNL     1     -41.071  55.160 -48.926  1.00  0.00     0.061 A 
HETATM   33  H   UNL     1     -41.115  55.548 -53.131  1.00  0.00     0.168 HD
ENDBRANCH   2  21
TORSDOF 5
ENDMDL
MODEL 4
REMARK VINA RESULT:      -8.1      1.677      2.130
REMARK  5 active torsions:
REMARK  status: ('A' for Active; 'I' for Inactive)
REMARK    1  A    between atoms: C_2  and  N_3 
REMARK       I    between atoms: N_3  and  C_4 
REMARK       I    between atoms: C_4  and  N_5 
REMARK    2  A    between atoms: N_5  and  C_6 
REMARK    3  A    between atoms: C_9  and  C_10 
REMARK    4  A    between atoms: C_10  and  N_11 
REMARK       I    between atoms: N_11  and  C_12 
REMARK    5  A    between atoms: C_12  and  C_13 
ROOT
HETATM    1  N   UNL     1     -42.205  54.353 -54.935  1.00  0.00    -0.353 N 
HETATM    2  C   UNL     1     -40.868  54.240 -54.607  1.00  0.00     0.254 C 
HETATM    3  O   UNL     1     -40.034  55.063 -54.979  1.00  0.00    -0.268 OA
HETATM    4  H   UNL     1     -42.851  53.592 -54.791  1.00  0.00     0.163 HD
ENDROOT
BRANCH   1   5
HETATM    5  C   UNL     1     -42.607  55.397 -55.847  1.00  0.00     0.161 C 
BRANCH   5   6
HETATM    6  C   UNL     1     -43.179  56.598 -55.149  1.00  0.00    -0.040 A 
HETATM    7  C   UNL     1     -44.172  56.442 -54.174  1.00  0.00     0.011 A 
HETATM    8  C   UNL     1     -44.602  57.533 -53.411  1.00  0.00     0.030 A 
HETATM    9  C   UNL     1     -44.050  58.799 -53.612  1.00  0.00     0.036 A 
HETATM   10  C   UNL     1     -43.126  58.973 -54.650  1.00  0.00     0.030 A 
HETATM   11  C   UNL     1     -42.691  57.883 -55.410  1.00  0.00     0.011 A 
BRANCH   9  12
HETATM   12  N   UNL     1     -44.321  59.917 -52.794  1.00  0.00    -0.309 N 
HETATM   13  C   UNL     1     -43.721  60.231 -51.590  1.00  0.00     0.321 C 
HETATM   14  N   UNL     1     -44.090  61.501 -51.188  1.00  0.00    -0.339 N 
HETATM   15  O   UNL     1     -42.922  59.542 -50.971  1.00  0.00    -0.247 OA
HETATM   16  H   UNL     1     -45.010  61.802 -51.469  1.00  0.00     0.164 HD
HETATM   17  H   UNL     1     -44.820  60.674 -53.232  1.00  0.00     0.170 HD
BRANCH  14  18
HETATM   18  C   UNL     1     -43.521  62.176 -50.025  1.00  0.00     0.078 C 
HETATM   19  C   UNL     1     -44.517  62.304 -48.873  1.00  0.00     0.032 C 
HETATM   20  C   UNL     1     -42.896  63.521 -50.382  1.00  0.00     0.032 C 
ENDBRANCH  14  18
ENDBRANCH   9  12
ENDBRANCH   5   6
ENDBRANCH   1   5
BRANCH   2  21
HETATM   21  C   UNL     1     -40.432  53.062 -53.810  1.00  0.00     0.064 A 
HETATM   22  C   UNL     1     -40.436  53.138 -52.425  1.00  0.00     0.077 A 
HETATM   23  C   UNL     1     -40.029  52.074 -51.616  1.00  0.00     0.065 A 
HETATM   24  N   UNL     1     -40.812  54.185 -51.577  1.00  0.00    -0.330 N 
HETATM   25  N   UNL     1     -40.151  52.466 -50.283  1.00  0.00    -0.331 N 
HETATM   26  C   UNL     1     -39.599  50.880 -52.137  1.00  0.00     0.074 A 
HETATM   27  C   UNL     1     -40.645  53.777 -50.252  1.00  0.00     0.176 A 
HETATM   28  H   UNL     1     -39.942  51.914 -49.465  1.00  0.00     0.168 HD
HETATM   29  S   UNL     1     -40.967  54.663 -48.901  1.00  0.00    -0.041 SA
HETATM   30  C   UNL     1     -39.600  50.785 -53.528  1.00  0.00     0.119 A 
HETATM   31  F   UNL     1     -39.198  49.641 -54.098  1.00  0.00    -0.206 F 
HETATM   32  C   UNL     1     -40.010  51.846 -54.363  1.00  0.00     0.061 A 
HETATM   33  H   UNL     1     -41.169  55.077 -51.904  1.00  0.00     0.168 HD
ENDBRANCH   2  21
TORSDOF 5
ENDMDL
MODEL 5
REMARK VINA RESULT:      -7.5      4.755      7.034
REMARK  5 active torsions:
REMARK  status: ('A' for Active; 'I' for Inactive)
REMARK    1  A    between atoms: C_2  and  N_3 
REMARK       I    between atoms: N_3  and  C_4 
REMARK       I    between atoms: C_4  and  N_5 
REMARK    2  A    between atoms: N_5  and  C_6 
REMARK    3  A    between atoms: C_9  and  C_10 
REMARK    4  A    between atoms: C_10  and  N_11 
REMARK       I    between atoms: N_11  and  C_12 
REMARK    5  A    between atoms: C_12  and  C_13 
ROOT
HETATM    1  N   UNL     1     -42.637  54.711 -54.385  1.00  0.00    -0.353 N 
HETATM    2  C   UNL     1     -41.353  54.684 -53.874  1.00  0.00     0.254 C 
HETATM    3  O   UNL     1     -40.364  54.621 -54.601  1.00  0.00    -0.268 OA
HETATM    4  H   UNL     1     -43.444  54.578 -53.795  1.00  0.00     0.163 HD
ENDROOT
BRANCH   1   5
HETATM    5  C   UNL     1     -42.818  54.527 -55.805  1.00  0.00     0.161 C 
BRANCH   5   6
HETATM    6  C   UNL     1     -42.996  55.822 -56.547  1.00  0.00    -0.040 A 
HETATM    7  C   UNL     1     -43.231  57.011 -55.845  1.00  0.00     0.011 A 
HETATM    8  C   UNL     1     -43.244  58.242 -56.511  1.00  0.00     0.030 A 
HETATM    9  C   UNL     1     -43.029  58.305 -57.889  1.00  0.00     0.036 A 
HETATM   10  C   UNL     1     -42.889  57.108 -58.603  1.00  0.00     0.030 A 
HETATM   11  C   UNL     1     -42.869  55.877 -57.939  1.00  0.00     0.011 A 
BRANCH   9  12
HETATM   12  N   UNL     1     -42.885  59.508 -58.611  1.00  0.00    -0.309 N 
HETATM   13  C   UNL     1     -41.886  60.451 -58.466  1.00  0.00     0.321 C 
HETATM   14  N   UNL     1     -41.956  61.384 -59.483  1.00  0.00    -0.339 N 
HETATM   15  O   UNL     1     -41.006  60.456 -57.615  1.00  0.00    -0.247 OA
HETATM   16  H   UNL     1     -42.878  61.575 -59.843  1.00  0.00     0.164 HD
HETATM   17  H   UNL     1     -43.416  59.578 -59.465  1.00  0.00     0.170 HD
BRANCH  14  18
HETATM   18  C   UNL     1     -40.959  62.432 -59.686  1.00  0.00     0.078 C 
HETATM   19  C   UNL     1     -41.399  63.782 -59.120  1.00  0.00     0.032 C 
HETATM   20  C   UNL     1     -40.526  62.546 -61.144  1.00  0.00     0.032 C 
ENDBRANCH  14  18
ENDBRANCH   9  12
ENDBRANCH   5   6
ENDBRANCH   1   5
BRANCH   2  21
HETATM   21  C   UNL     1     -41.180  54.699 -52.397  1.00  0.00     0.064 A 
HETATM   22  C   UNL     1     -41.341  55.889 -51.703  1.00  0.00     0.077 A 
HETATM   23  C   UNL     1     -41.182  55.976 -50.317  1.00  0.00     0.065 A 
HETATM   24  N   UNL     1     -41.672  57.168 -52.164  1.00  0.00    -0.330 N 
HETATM   25  N   UNL     1     -41.411  57.297 -49.933  1.00  0.00    -0.331 N 
HETATM   26  C   UNL     1     -40.857  54.887 -49.548  1.00  0.00     0.074 A 
HETATM   27  C   UNL     1     -41.723  58.043 -51.078  1.00  0.00     0.176 A 
HETATM   28  H   UNL     1     -41.378  57.672 -48.997  1.00  0.00     0.168 HD
HETATM   29  S   UNL     1     -42.084  59.649 -51.122  1.00  0.00    -0.041 SA
HETATM   30  C   UNL     1     -40.702  53.682 -50.230  1.00  0.00     0.119 A 
HETATM   31  F   UNL     1     -40.392  52.580 -49.533  1.00  0.00    -0.206 F 
HETATM   32  C   UNL     1     -40.861  53.571 -51.628  1.00  0.00     0.061 A 
HETATM   33  H   UNL     1     -41.864  57.386 -53.137  1.00  0.00     0.168 HD
ENDBRANCH   2  21
TORSDOF 5
ENDMDL
MODEL 6
REMARK VINA RESULT:      -7.4      6.176      8.402
REMARK  5 active torsions:
REMARK  status: ('A' for Active; 'I' for Inactive)
REMARK    1  A    between atoms: C_2  and  N_3 
REMARK       I    between atoms: N_3  and  C_4 
REMARK       I    between atoms: C_4  and  N_5 
REMARK    2  A    between atoms: N_5  and  C_6 
REMARK    3  A    between atoms: C_9  and  C_10 
REMARK    4  A    between atoms: C_10  and  N_11 
REMARK       I    between atoms: N_11  and  C_12 
REMARK    5  A    between atoms: C_12  and  C_13 
ROOT
HETATM    1  N   UNL     1     -42.483  55.390 -56.446  1.00  0.00    -0.353 N 
HETATM    2  C   UNL     1     -42.743  54.414 -55.503  1.00  0.00     0.254 C 
HETATM    3  O   UNL     1     -43.581  53.535 -55.689  1.00  0.00    -0.268 OA
HETATM    4  H   UNL     1     -41.938  56.208 -56.225  1.00  0.00     0.163 HD
ENDROOT
BRANCH   1   5
HETATM    5  C   UNL     1     -43.315  55.449 -57.625  1.00  0.00     0.161 C 
BRANCH   5   6
HETATM    6  C   UNL     1     -43.025  56.644 -58.488  1.00  0.00    -0.040 A 
HETATM    7  C   UNL     1     -42.161  57.649 -58.036  1.00  0.00     0.011 A 
HETATM    8  C   UNL     1     -41.763  58.686 -58.889  1.00  0.00     0.030 A 
HETATM    9  C   UNL     1     -42.227  58.738 -60.204  1.00  0.00     0.036 A 
HETATM   10  C   UNL     1     -43.164  57.787 -60.626  1.00  0.00     0.030 A 
HETATM   11  C   UNL     1     -43.558  56.747 -59.777  1.00  0.00     0.011 A 
BRANCH   9  12
HETATM   12  N   UNL     1     -41.767  59.662 -61.166  1.00  0.00    -0.309 N 
HETATM   13  C   UNL     1     -41.743  61.038 -61.052  1.00  0.00     0.321 C 
HETATM   14  N   UNL     1     -41.034  61.594 -62.100  1.00  0.00    -0.339 N 
HETATM   15  O   UNL     1     -42.211  61.703 -60.138  1.00  0.00    -0.247 OA
HETATM   16  H   UNL     1     -41.068  61.089 -62.973  1.00  0.00     0.164 HD
HETATM   17  H   UNL     1     -41.189  59.285 -61.901  1.00  0.00     0.170 HD
BRANCH  14  18
HETATM   18  C   UNL     1     -40.715  63.016 -62.194  1.00  0.00     0.078 C 
HETATM   19  C   UNL     1     -40.653  63.512 -63.639  1.00  0.00     0.032 C 
HETATM   20  C   UNL     1     -39.452  63.380 -61.419  1.00  0.00     0.032 C 
ENDBRANCH  14  18
ENDBRANCH   9  12
ENDBRANCH   5   6
ENDBRANCH   1   5
BRANCH   2  21
HETATM   21  C   UNL     1     -42.002  54.463 -54.214  1.00  0.00     0.064 A 
HETATM   22  C   UNL     1     -41.225  53.379 -53.833  1.00  0.00     0.077 A 
HETATM   23  C   UNL     1     -40.513  53.354 -52.631  1.00  0.00     0.065 A 
HETATM   24  N   UNL     1     -40.980  52.167 -54.487  1.00  0.00    -0.330 N 
HETATM   25  N   UNL     1     -39.839  52.135 -52.547  1.00  0.00    -0.331 N 
HETATM   26  C   UNL     1     -40.533  54.402 -51.746  1.00  0.00     0.074 A 
HETATM   27  C   UNL     1     -40.121  51.394 -53.703  1.00  0.00     0.176 A 
HETATM   28  H   UNL     1     -39.235  51.824 -51.801  1.00  0.00     0.168 HD
HETATM   29  S   UNL     1     -39.540  49.896 -54.062  1.00  0.00    -0.041 SA
HETATM   30  C   UNL     1     -41.301  55.503 -52.120  1.00  0.00     0.119 A 
HETATM   31  F   UNL     1     -41.355  56.562 -51.301  1.00  0.00    -0.206 F 
HETATM   32  C   UNL     1     -42.025  55.550 -53.330  1.00  0.00     0.061 A 
HETATM   33  H   UNL     1     -41.361  51.928 -55.397  1.00  0.00     0.168 HD
ENDBRANCH   2  21
TORSDOF 5
ENDMDL
MODEL 7
REMARK VINA RESULT:      -7.3      4.502      6.830
REMARK  5 active torsions:
REMARK  status: ('A' for Active; 'I' for Inactive)
REMARK    1  A    between atoms: C_2  and  N_3 
REMARK       I    between atoms: N_3  and  C_4 
REMARK       I    between atoms: C_4  and  N_5 
REMARK    2  A    between atoms: N_5  and  C_6 
REMARK    3  A    between atoms: C_9  and  C_10 
REMARK    4  A    between atoms: C_10  and  N_11 
REMARK       I    between atoms: N_11  and  C_12 
REMARK    5  A    between atoms: C_12  and  C_13 
ROOT
HETATM    1  N   UNL     1     -42.974  57.316 -50.858  1.00  0.00    -0.353 N 
HETATM    2  C   UNL     1     -41.659  57.077 -50.511  1.00  0.00     0.254 C 
HETATM    3  O   UNL     1     -40.836  57.984 -50.410  1.00  0.00    -0.268 OA
HETATM    4  H   UNL     1     -43.597  56.567 -51.119  1.00  0.00     0.163 HD
ENDROOT
BRANCH   1   5
HETATM    5  C   UNL     1     -43.354  58.655 -51.240  1.00  0.00     0.161 C 
BRANCH   5   6
HETATM    6  C   UNL     1     -43.159  58.925 -52.706  1.00  0.00    -0.040 A 
HETATM    7  C   UNL     1     -42.478  60.073 -53.128  1.00  0.00     0.011 A 
HETATM    8  C   UNL     1     -42.157  60.257 -54.478  1.00  0.00     0.030 A 
HETATM    9  C   UNL     1     -42.515  59.300 -55.428  1.00  0.00     0.036 A 
HETATM   10  C   UNL     1     -43.278  58.199 -55.019  1.00  0.00     0.030 A 
HETATM   11  C   UNL     1     -43.596  58.010 -53.670  1.00  0.00     0.011 A 
BRANCH   9  12
HETATM   12  N   UNL     1     -42.108  59.337 -56.778  1.00  0.00    -0.309 N 
HETATM   13  C   UNL     1     -42.563  60.196 -57.760  1.00  0.00     0.321 C 
HETATM   14  N   UNL     1     -41.788  60.077 -58.898  1.00  0.00    -0.339 N 
HETATM   15  O   UNL     1     -43.473  61.007 -57.655  1.00  0.00    -0.247 OA
HETATM   16  H   UNL     1     -41.393  59.165 -59.069  1.00  0.00     0.164 HD
HETATM   17  H   UNL     1     -41.246  58.862 -56.994  1.00  0.00     0.170 HD
BRANCH  14  18
HETATM   18  C   UNL     1     -41.929  60.944 -60.065  1.00  0.00     0.078 C 
HETATM   19  C   UNL     1     -41.908  60.167 -61.381  1.00  0.00     0.032 C 
HETATM   20  C   UNL     1     -40.918  62.085 -60.067  1.00  0.00     0.032 C 
ENDBRANCH  14  18
ENDBRANCH   9  12
ENDBRANCH   5   6
ENDBRANCH   1   5
BRANCH   2  21
HETATM   21  C   UNL     1     -41.232  55.670 -50.288  1.00  0.00     0.064 A 
HETATM   22  C   UNL     1     -40.927  54.868 -51.378  1.00  0.00     0.077 A 
HETATM   23  C   UNL     1     -40.531  53.535 -51.241  1.00  0.00     0.065 A 
HETATM   24  N   UNL     1     -40.935  55.161 -52.746  1.00  0.00    -0.330 N 
HETATM   25  N   UNL     1     -40.300  53.014 -52.513  1.00  0.00    -0.331 N 
HETATM   26  C   UNL     1     -40.414  52.929 -50.016  1.00  0.00     0.074 A 
HETATM   27  C   UNL     1     -40.543  54.024 -53.455  1.00  0.00     0.176 A 
HETATM   28  H   UNL     1     -39.995  52.080 -52.742  1.00  0.00     0.168 HD
HETATM   29  S   UNL     1     -40.391  53.885 -55.089  1.00  0.00    -0.041 SA
HETATM   30  C   UNL     1     -40.707  53.724 -48.909  1.00  0.00     0.119 A 
HETATM   31  F   UNL     1     -40.604  53.191 -47.684  1.00  0.00    -0.206 F 
HETATM   32  C   UNL     1     -41.105  55.073 -49.025  1.00  0.00     0.061 A 
HETATM   33  H   UNL     1     -41.167  56.072 -53.128  1.00  0.00     0.168 HD
ENDBRANCH   2  21
TORSDOF 5
ENDMDL
MODEL 8
REMARK VINA RESULT:      -7.3      4.353      6.045
REMARK  5 active torsions:
REMARK  status: ('A' for Active; 'I' for Inactive)
REMARK    1  A    between atoms: C_2  and  N_3 
REMARK       I    between atoms: N_3  and  C_4 
REMARK       I    between atoms: C_4  and  N_5 
REMARK    2  A    between atoms: N_5  and  C_6 
REMARK    3  A    between atoms: C_9  and  C_10 
REMARK    4  A    between atoms: C_10  and  N_11 
REMARK       I    between atoms: N_11  and  C_12 
REMARK    5  A    between atoms: C_12  and  C_13 
ROOT
HETATM    1  N   UNL     1     -41.301  55.790 -55.658  1.00  0.00    -0.353 N 
HETATM    2  C   UNL     1     -42.622  55.867 -56.058  1.00  0.00     0.254 C 
HETATM    3  O   UNL     1     -43.551  55.645 -55.284  1.00  0.00    -0.268 OA
HETATM    4  H   UNL     1     -40.546  55.791 -56.325  1.00  0.00     0.163 HD
ENDROOT
BRANCH   1   5
HETATM    5  C   UNL     1     -41.010  55.307 -54.329  1.00  0.00     0.161 C 
BRANCH   5   6
HETATM    6  C   UNL     1     -41.160  56.366 -53.274  1.00  0.00    -0.040 A 
HETATM    7  C   UNL     1     -40.705  57.669 -53.511  1.00  0.00     0.011 A 
HETATM    8  C   UNL     1     -40.977  58.697 -52.600  1.00  0.00     0.030 A 
HETATM    9  C   UNL     1     -41.702  58.439 -51.436  1.00  0.00     0.036 A 
HETATM   10  C   UNL     1     -42.074  57.119 -51.154  1.00  0.00     0.030 A 
HETATM   11  C   UNL     1     -41.809  56.091 -52.065  1.00  0.00     0.011 A 
BRANCH   9  12
HETATM   12  N   UNL     1     -42.139  59.438 -50.542  1.00  0.00    -0.309 N 
HETATM   13  C   UNL     1     -43.337  60.126 -50.584  1.00  0.00     0.321 C 
HETATM   14  N   UNL     1     -43.503  60.870 -49.431  1.00  0.00    -0.339 N 
HETATM   15  O   UNL     1     -44.184  60.061 -51.463  1.00  0.00    -0.247 OA
HETATM   16  H   UNL     1     -42.658  61.212 -49.002  1.00  0.00     0.164 HD
HETATM   17  H   UNL     1     -41.648  59.492 -49.664  1.00  0.00     0.170 HD
BRANCH  14  18
HETATM   18  C   UNL     1     -44.726  61.601 -49.113  1.00  0.00     0.078 C 
HETATM   19  C   UNL     1     -44.468  63.077 -48.808  1.00  0.00     0.032 C 
HETATM   20  C   UNL     1     -45.533  60.930 -48.005  1.00  0.00     0.032 C 
ENDBRANCH  14  18
ENDBRANCH   9  12
ENDBRANCH   5   6
ENDBRANCH   1   5
BRANCH   2  21
HETATM   21  C   UNL     1     -42.912  56.197 -57.479  1.00  0.00     0.064 A 
HETATM   22  C   UNL     1     -42.672  57.482 -57.943  1.00  0.00     0.077 A 
HETATM   23  C   UNL     1     -42.932  57.862 -59.263  1.00  0.00     0.065 A 
HETATM   24  N   UNL     1     -42.160  58.603 -57.281  1.00  0.00    -0.330 N 
HETATM   25  N   UNL     1     -42.585  59.205 -59.407  1.00  0.00    -0.331 N 
HETATM   26  C   UNL     1     -43.441  56.988 -60.189  1.00  0.00     0.074 A 
HETATM   27  C   UNL     1     -42.097  59.670 -58.178  1.00  0.00     0.176 A 
HETATM   28  H   UNL     1     -42.650  59.763 -60.245  1.00  0.00     0.168 HD
HETATM   29  S   UNL     1     -41.551  61.192 -57.863  1.00  0.00    -0.041 SA
HETATM   30  C   UNL     1     -43.678  55.690 -59.740  1.00  0.00     0.119 A 
HETATM   31  F   UNL     1     -44.168  54.788 -60.601  1.00  0.00    -0.206 F 
HETATM   32  C   UNL     1     -43.419  55.285 -58.414  1.00  0.00     0.061 A 
HETATM   33  H   UNL     1     -41.865  58.600 -56.309  1.00  0.00     0.168 HD
ENDBRANCH   2  21
TORSDOF 5
ENDMDL
MODEL 9
REMARK VINA RESULT:      -7.3      5.236      7.317
REMARK  5 active torsions:
REMARK  status: ('A' for Active; 'I' for Inactive)
REMARK    1  A    between atoms: C_2  and  N_3 
REMARK       I    between atoms: N_3  and  C_4 
REMARK       I    between atoms: C_4  and  N_5 
REMARK    2  A    between atoms: N_5  and  C_6 
REMARK    3  A    between atoms: C_9  and  C_10 
REMARK    4  A    between atoms: C_10  and  N_11 
REMARK       I    between atoms: N_11  and  C_12 
REMARK    5  A    between atoms: C_12  and  C_13 
ROOT
HETATM    1  N   UNL     1     -42.511  55.379 -54.961  1.00  0.00    -0.353 N 
HETATM    2  C   UNL     1     -41.384  54.784 -54.427  1.00  0.00     0.254 C 
HETATM    3  O   UNL     1     -40.582  54.165 -55.122  1.00  0.00    -0.268 OA
HETATM    4  H   UNL     1     -43.256  55.723 -54.375  1.00  0.00     0.163 HD
ENDROOT
BRANCH   1   5
HETATM    5  C   UNL     1     -42.816  55.152 -56.354  1.00  0.00     0.161 C 
BRANCH   5   6
HETATM    6  C   UNL     1     -42.848  56.419 -57.161  1.00  0.00    -0.040 A 
HETATM    7  C   UNL     1     -43.200  57.633 -56.557  1.00  0.00     0.011 A 
HETATM    8  C   UNL     1     -43.084  58.839 -57.258  1.00  0.00     0.030 A 
HETATM    9  C   UNL     1     -42.621  58.851 -58.575  1.00  0.00     0.036 A 
HETATM   10  C   UNL     1     -42.361  57.630 -59.208  1.00  0.00     0.030 A 
HETATM   11  C   UNL     1     -42.470  56.424 -58.508  1.00  0.00     0.011 A 
BRANCH   9  12
HETATM   12  N   UNL     1     -42.342  60.028 -59.301  1.00  0.00    -0.309 N 
HETATM   13  C   UNL     1     -41.415  61.001 -58.982  1.00  0.00     0.321 C 
HETATM   14  N   UNL     1     -41.274  61.891 -60.031  1.00  0.00    -0.339 N 
HETATM   15  O   UNL     1     -40.745  61.064 -57.960  1.00  0.00    -0.247 OA
HETATM   16  H   UNL     1     -42.096  62.043 -60.594  1.00  0.00     0.164 HD
HETATM   17  H   UNL     1     -42.672  60.049 -60.253  1.00  0.00     0.170 HD
BRANCH  14  18
HETATM   18  C   UNL     1     -40.274  62.955 -60.057  1.00  0.00     0.078 C 
HETATM   19  C   UNL     1     -40.822  64.291 -59.555  1.00  0.00     0.032 C 
HETATM   20  C   UNL     1     -39.610  63.095 -61.423  1.00  0.00     0.032 C 
ENDBRANCH  14  18
ENDBRANCH   9  12
ENDBRANCH   5   6
ENDBRANCH   1   5
BRANCH   2  21
HETATM   21  C   UNL     1     -41.167  54.874 -52.958  1.00  0.00     0.064 A 
HETATM   22  C   UNL     1     -40.697  53.766 -52.269  1.00  0.00     0.077 A 
HETATM   23  C   UNL     1     -40.482  53.779 -50.888  1.00  0.00     0.065 A 
HETATM   24  N   UNL     1     -40.352  52.492 -52.732  1.00  0.00    -0.330 N 
HETATM   25  N   UNL     1     -40.011  52.522 -50.508  1.00  0.00    -0.331 N 
HETATM   26  C   UNL     1     -40.719  54.890 -50.120  1.00  0.00     0.074 A 
HETATM   27  C   UNL     1     -39.922  51.718 -51.652  1.00  0.00     0.176 A 
HETATM   28  H   UNL     1     -39.757  52.224 -49.578  1.00  0.00     0.168 HD
HETATM   29  S   UNL     1     -39.404  50.156 -51.704  1.00  0.00    -0.041 SA
HETATM   30  C   UNL     1     -41.181  56.016 -50.800  1.00  0.00     0.119 A 
HETATM   31  F   UNL     1     -41.425  57.136 -50.107  1.00  0.00    -0.206 F 
HETATM   32  C   UNL     1     -41.403  56.025 -52.194  1.00  0.00     0.061 A 
HETATM   33  H   UNL     1     -40.394  52.214 -53.707  1.00  0.00     0.168 HD
ENDBRANCH   2  21
TORSDOF 5
ENDMDL
MODEL 10
REMARK VINA RESULT:      -7.3     16.482     19.129
REMARK  5 active torsions:
REMARK  status: ('A' for Active; 'I' for Inactive)
REMARK    1  A    between atoms: C_2  and  N_3 
REMARK       I    between atoms: N_3  and  C_4 
REMARK       I    between atoms: C_4  and  N_5 
REMARK    2  A    between atoms: N_5  and  C_6 
REMARK    3  A    between atoms: C_9  and  C_10 
REMARK    4  A    between atoms: C_10  and  N_11 
REMARK       I    between atoms: N_11  and  C_12 
REMARK    5  A    between atoms: C_12  and  C_13 
ROOT
HETATM    1  N   UNL     1     -35.496  41.405 -53.265  1.00  0.00    -0.353 N 
HETATM    2  C   UNL     1     -34.942  41.867 -52.086  1.00  0.00     0.254 C 
HETATM    3  O   UNL     1     -34.921  43.062 -51.801  1.00  0.00    -0.268 OA
HETATM    4  H   UNL     1     -35.352  40.459 -53.583  1.00  0.00     0.163 HD
ENDROOT
BRANCH   1   5
HETATM    5  C   UNL     1     -35.943  42.370 -54.241  1.00  0.00     0.161 C 
BRANCH   5   6
HETATM    6  C   UNL     1     -36.301  41.746 -55.561  1.00  0.00    -0.040 A 
HETATM    7  C   UNL     1     -37.480  41.002 -55.694  1.00  0.00     0.011 A 
HETATM    8  C   UNL     1     -37.900  40.549 -56.950  1.00  0.00     0.030 A 
HETATM    9  C   UNL     1     -37.147  40.826 -58.092  1.00  0.00     0.036 A 
HETATM   10  C   UNL     1     -35.921  41.488 -57.945  1.00  0.00     0.030 A 
HETATM   11  C   UNL     1     -35.502  41.947 -56.692  1.00  0.00     0.011 A 
BRANCH   9  12
HETATM   12  N   UNL     1     -37.568  40.531 -59.405  1.00  0.00    -0.309 N 
HETATM   13  C   UNL     1     -37.232  39.422 -60.157  1.00  0.00     0.321 C 
HETATM   14  N   UNL     1     -37.998  39.372 -61.307  1.00  0.00    -0.339 N 
HETATM   15  O   UNL     1     -36.429  38.550 -59.852  1.00  0.00    -0.247 OA
HETATM   16  H   UNL     1     -38.277  40.262 -61.689  1.00  0.00     0.164 HD
HETATM   17  H   UNL     1     -38.366  41.047 -59.740  1.00  0.00     0.170 HD
BRANCH  14  18
HETATM   18  C   UNL     1     -37.976  38.251 -62.242  1.00  0.00     0.078 C 
HETATM   19  C   UNL     1     -37.120  38.532 -63.478  1.00  0.00     0.032 C 
HETATM   20  C   UNL     1     -39.378  37.784 -62.621  1.00  0.00     0.032 C 
ENDBRANCH  14  18
ENDBRANCH   9  12
ENDBRANCH   5   6
ENDBRANCH   1   5
BRANCH   2  21
HETATM   21  C   UNL     1     -34.325  40.879 -51.161  1.00  0.00     0.064 A 
HETATM   22  C   UNL     1     -35.138  40.003 -50.457  1.00  0.00     0.077 A 
HETATM   23  C   UNL     1     -34.626  39.058 -49.564  1.00  0.00     0.065 A 
HETATM   24  N   UNL     1     -36.529  39.856 -50.465  1.00  0.00    -0.330 N 
HETATM   25  N   UNL     1     -35.694  38.340 -49.027  1.00  0.00    -0.331 N 
HETATM   26  C   UNL     1     -33.281  38.932 -49.324  1.00  0.00     0.074 A 
HETATM   27  C   UNL     1     -36.881  38.828 -49.589  1.00  0.00     0.176 A 
HETATM   28  H   UNL     1     -35.644  37.585 -48.359  1.00  0.00     0.168 HD
HETATM   29  S   UNL     1     -38.402  38.281 -49.271  1.00  0.00    -0.041 SA
HETATM   30  C   UNL     1     -32.450  39.798 -50.032  1.00  0.00     0.119 A 
HETATM   31  F   UNL     1     -31.125  39.719 -49.847  1.00  0.00    -0.206 F 
HETATM   32  C   UNL     1     -32.946  40.757 -50.941  1.00  0.00     0.061 A 
HETATM   33  H   UNL     1     -37.153  40.407 -51.046  1.00  0.00     0.168 HD
ENDBRANCH   2  21
TORSDOF 5
ENDMDL
