MODEL 1
REMARK VINA RESULT:      -8.6      0.000      0.000
REMARK  2 active torsions:
REMARK  status: ('A' for Active; 'I' for Inactive)
REMARK    1  A    between atoms: C_5  and  C_6 
REMARK    2  A    between atoms: C_17  and  O_18 
ROOT
HETATM    1  C   UNL     1     -41.796  56.410 -52.535  1.00  0.00     0.200 C 
HETATM    2  N   UNL     1     -40.919  57.551 -52.579  1.00  0.00    -0.336 N 
HETATM    3  C   UNL     1     -41.366  58.736 -53.109  1.00  0.00     0.255 C 
HETATM    4  O   UNL     1     -40.594  59.534 -53.622  1.00  0.00    -0.268 OA
HETATM    5  C   UNL     1     -42.807  59.007 -52.956  1.00  0.00     0.053 A 
HETATM    6  C   UNL     1     -43.590  58.030 -52.330  1.00  0.00     0.026 A 
HETATM    7  N   UNL     1     -43.059  56.795 -51.928  1.00  0.00    -0.267 NA
HETATM    8  C   UNL     1     -43.346  60.236 -53.345  1.00  0.00     0.019 A 
HETATM    9  C   UNL     1     -44.690  60.507 -53.088  1.00  0.00     0.001 A 
HETATM   10  C   UNL     1     -45.476  59.556 -52.437  1.00  0.00     0.002 A 
HETATM   11  C   UNL     1     -44.928  58.328 -52.054  1.00  0.00     0.024 A 
HETATM   12  H   UNL     1     -39.960  57.363 -52.849  1.00  0.00     0.164 HD
HETATM   13  H   UNL     1     -43.044  56.720 -50.913  1.00  0.00     0.130 HD
ENDROOT
BRANCH   1  14
HETATM   14  C   UNL     1     -41.175  55.278 -51.736  1.00  0.00     0.023 A 
HETATM   15  C   UNL     1     -40.736  54.065 -52.361  1.00  0.00    -0.014 A 
HETATM   16  C   UNL     1     -40.171  53.043 -51.548  1.00  0.00    -0.025 A 
HETATM   17  C   UNL     1     -40.825  53.791 -53.750  1.00  0.00     0.013 A 
HETATM   18  C   UNL     1     -39.708  51.847 -52.121  1.00  0.00     0.012 A 
HETATM   19  C   UNL     1     -40.074  53.214 -50.161  1.00  0.00     0.015 A 
HETATM   20  C   UNL     1     -39.797  51.624 -53.491  1.00  0.00     0.001 A 
HETATM   21  C   UNL     1     -40.360  52.594 -54.305  1.00  0.00     0.001 A 
HETATM   22  C   UNL     1     -40.525  54.378 -49.555  1.00  0.00     0.038 A 
HETATM   23  C   UNL     1     -41.059  55.394 -50.333  1.00  0.00     0.076 A 
BRANCH  23  24
HETATM   24  O   UNL     1     -41.470  56.505 -49.644  1.00  0.00    -0.360 OA
HETATM   25  H   UNL     1     -40.956  57.279 -49.949  1.00  0.00     0.217 HD
ENDBRANCH  23  24
ENDBRANCH   1  14
TORSDOF 2
ENDMDL
MODEL 2
REMARK VINA RESULT:      -8.5      1.909      3.304
REMARK  2 active torsions:
REMARK  status: ('A' for Active; 'I' for Inactive)
REMARK    1  A    between atoms: C_5  and  C_6 
REMARK    2  A    between atoms: C_17  and  O_18 
ROOT
HETATM    1  C   UNL     1     -41.925  55.939 -52.016  1.00  0.00     0.200 C 
HETATM    2  N   UNL     1     -43.187  56.373 -52.555  1.00  0.00    -0.336 N 
HETATM    3  C   UNL     1     -43.842  57.438 -51.987  1.00  0.00     0.255 C 
HETATM    4  O   UNL     1     -45.060  57.538 -52.042  1.00  0.00    -0.268 OA
HETATM    5  C   UNL     1     -42.984  58.472 -51.380  1.00  0.00     0.053 A 
HETATM    6  C   UNL     1     -41.601  58.261 -51.397  1.00  0.00     0.026 A 
HETATM    7  N   UNL     1     -41.033  57.080 -51.896  1.00  0.00    -0.267 NA
HETATM    8  C   UNL     1     -43.537  59.657 -50.888  1.00  0.00     0.019 A 
HETATM    9  C   UNL     1     -42.693  60.663 -50.419  1.00  0.00     0.001 A 
HETATM   10  C   UNL     1     -41.309  60.482 -50.458  1.00  0.00     0.002 A 
HETATM   11  C   UNL     1     -40.767  59.291 -50.951  1.00  0.00     0.024 A 
HETATM   12  H   UNL     1     -43.834  55.638 -52.816  1.00  0.00     0.164 HD
HETATM   13  H   UNL     1     -40.512  57.261 -52.753  1.00  0.00     0.130 HD
ENDROOT
BRANCH   1  14
HETATM   14  C   UNL     1     -41.286  54.888 -52.907  1.00  0.00     0.023 A 
HETATM   15  C   UNL     1     -40.764  53.664 -52.377  1.00  0.00    -0.014 A 
HETATM   16  C   UNL     1     -40.172  52.729 -53.271  1.00  0.00    -0.025 A 
HETATM   17  C   UNL     1     -40.784  53.301 -51.004  1.00  0.00     0.013 A 
HETATM   18  C   UNL     1     -39.666  51.507 -52.797  1.00  0.00     0.012 A 
HETATM   19  C   UNL     1     -40.078  53.018 -54.638  1.00  0.00     0.015 A 
HETATM   20  C   UNL     1     -39.722  51.181 -51.446  1.00  0.00     0.001 A 
HETATM   21  C   UNL     1     -40.276  52.080 -50.549  1.00  0.00     0.001 A 
HETATM   22  C   UNL     1     -40.560  54.216 -55.146  1.00  0.00     0.038 A 
HETATM   23  C   UNL     1     -41.161  55.131 -54.293  1.00  0.00     0.076 A 
BRANCH  23  24
HETATM   24  O   UNL     1     -41.609  56.280 -54.889  1.00  0.00    -0.360 OA
HETATM   25  H   UNL     1     -41.763  56.108 -55.839  1.00  0.00     0.217 HD
ENDBRANCH  23  24
ENDBRANCH   1  14
TORSDOF 2
ENDMDL
MODEL 3
REMARK VINA RESULT:      -8.2      1.567      1.714
REMARK  2 active torsions:
REMARK  status: ('A' for Active; 'I' for Inactive)
REMARK    1  A    between atoms: C_5  and  C_6 
REMARK    2  A    between atoms: C_17  and  O_18 
ROOT
HETATM    1  C   UNL     1     -41.427  55.531 -51.495  1.00  0.00     0.200 C 
HETATM    2  N   UNL     1     -40.620  56.540 -50.858  1.00  0.00    -0.336 N 
HETATM    3  C   UNL     1     -40.975  57.862 -50.961  1.00  0.00     0.255 C 
HETATM    4  O   UNL     1     -40.137  58.751 -50.902  1.00  0.00    -0.268 OA
HETATM    5  C   UNL     1     -42.420  58.135 -51.073  1.00  0.00     0.053 A 
HETATM    6  C   UNL     1     -43.288  57.038 -51.108  1.00  0.00     0.026 A 
HETATM    7  N   UNL     1     -42.818  55.716 -51.118  1.00  0.00    -0.267 NA
HETATM    8  C   UNL     1     -42.900  59.447 -51.056  1.00  0.00     0.019 A 
HETATM    9  C   UNL     1     -44.276  59.672 -51.053  1.00  0.00     0.001 A 
HETATM   10  C   UNL     1     -45.156  58.589 -51.056  1.00  0.00     0.002 A 
HETATM   11  C   UNL     1     -44.664  57.280 -51.076  1.00  0.00     0.024 A 
HETATM   12  H   UNL     1     -39.617  56.419 -50.935  1.00  0.00     0.164 HD
HETATM   13  H   UNL     1     -43.054  55.241 -50.248  1.00  0.00     0.130 HD
ENDROOT
BRANCH   1  14
HETATM   14  C   UNL     1     -40.973  54.139 -51.091  1.00  0.00     0.023 A 
HETATM   15  C   UNL     1     -40.543  53.174 -52.059  1.00  0.00    -0.014 A 
HETATM   16  C   UNL     1     -40.140  51.886 -51.609  1.00  0.00    -0.025 A 
HETATM   17  C   UNL     1     -40.489  53.400 -53.460  1.00  0.00     0.013 A 
HETATM   18  C   UNL     1     -39.690  50.918 -52.521  1.00  0.00     0.012 A 
HETATM   19  C   UNL     1     -40.193  51.564 -50.247  1.00  0.00     0.015 A 
HETATM   20  C   UNL     1     -39.634  51.185 -53.885  1.00  0.00     0.001 A 
HETATM   21  C   UNL     1     -40.038  52.425 -54.354  1.00  0.00     0.001 A 
HETATM   22  C   UNL     1     -40.637  52.490 -49.314  1.00  0.00     0.038 A 
HETATM   23  C   UNL     1     -41.013  53.759 -49.731  1.00  0.00     0.076 A 
BRANCH  23  24
HETATM   24  O   UNL     1     -41.430  54.603 -48.736  1.00  0.00    -0.360 OA
HETATM   25  H   UNL     1     -41.069  55.496 -48.902  1.00  0.00     0.217 HD
ENDBRANCH  23  24
ENDBRANCH   1  14
TORSDOF 2
ENDMDL
MODEL 4
REMARK VINA RESULT:      -8.2      4.453      5.083
REMARK  2 active torsions:
REMARK  status: ('A' for Active; 'I' for Inactive)
REMARK    1  A    between atoms: C_5  and  C_6 
REMARK    2  A    between atoms: C_17  and  O_18 
ROOT
HETATM    1  C   UNL     1     -42.355  55.268 -56.118  1.00  0.00     0.200 C 
HETATM    2  N   UNL     1     -42.454  56.698 -56.244  1.00  0.00    -0.336 N 
HETATM    3  C   UNL     1     -42.527  57.270 -57.491  1.00  0.00     0.255 C 
HETATM    4  O   UNL     1     -42.120  58.405 -57.694  1.00  0.00    -0.268 OA
HETATM    5  C   UNL     1     -43.182  56.459 -58.534  1.00  0.00     0.053 A 
HETATM    6  C   UNL     1     -43.629  55.182 -58.179  1.00  0.00     0.026 A 
HETATM    7  N   UNL     1     -43.401  54.639 -56.906  1.00  0.00    -0.267 NA
HETATM    8  C   UNL     1     -43.422  56.992 -59.803  1.00  0.00     0.019 A 
HETATM    9  C   UNL     1     -44.140  56.243 -60.735  1.00  0.00     0.001 A 
HETATM   10  C   UNL     1     -44.621  54.980 -60.387  1.00  0.00     0.002 A 
HETATM   11  C   UNL     1     -44.372  54.456 -59.115  1.00  0.00     0.024 A 
HETATM   12  H   UNL     1     -41.866  57.240 -55.622  1.00  0.00     0.164 HD
HETATM   13  H   UNL     1     -44.274  54.542 -56.391  1.00  0.00     0.130 HD
ENDROOT
BRANCH   1  14
HETATM   14  C   UNL     1     -42.489  54.841 -54.666  1.00  0.00     0.023 A 
HETATM   15  C   UNL     1     -41.564  53.930 -54.058  1.00  0.00    -0.014 A 
HETATM   16  C   UNL     1     -41.757  53.568 -52.696  1.00  0.00    -0.025 A 
HETATM   17  C   UNL     1     -40.452  53.344 -54.717  1.00  0.00     0.013 A 
HETATM   18  C   UNL     1     -40.863  52.696 -52.054  1.00  0.00     0.012 A 
HETATM   19  C   UNL     1     -42.848  54.072 -51.977  1.00  0.00     0.015 A 
HETATM   20  C   UNL     1     -39.773  52.157 -52.730  1.00  0.00     0.001 A 
HETATM   21  C   UNL     1     -39.571  52.477 -54.063  1.00  0.00     0.001 A 
HETATM   22  C   UNL     1     -43.758  54.932 -52.575  1.00  0.00     0.038 A 
HETATM   23  C   UNL     1     -43.574  55.314 -53.896  1.00  0.00     0.076 A 
BRANCH  23  24
HETATM   24  O   UNL     1     -44.521  56.169 -54.395  1.00  0.00    -0.360 OA
HETATM   25  H   UNL     1     -44.074  56.918 -54.838  1.00  0.00     0.217 HD
ENDBRANCH  23  24
ENDBRANCH   1  14
TORSDOF 2
ENDMDL
MODEL 5
REMARK VINA RESULT:      -8.1      2.343      6.584
REMARK  2 active torsions:
REMARK  status: ('A' for Active; 'I' for Inactive)
REMARK    1  A    between atoms: C_5  and  C_6 
REMARK    2  A    between atoms: C_17  and  O_18 
ROOT
HETATM    1  C   UNL     1     -41.145  55.503 -52.353  1.00  0.00     0.200 C 
HETATM    2  N   UNL     1     -41.271  54.967 -53.684  1.00  0.00    -0.336 N 
HETATM    3  C   UNL     1     -40.537  53.865 -54.047  1.00  0.00     0.255 C 
HETATM    4  O   UNL     1     -40.212  53.673 -55.211  1.00  0.00    -0.268 OA
HETATM    5  C   UNL     1     -40.234  52.908 -52.967  1.00  0.00     0.053 A 
HETATM    6  C   UNL     1     -40.677  53.222 -51.677  1.00  0.00     0.026 A 
HETATM    7  N   UNL     1     -41.317  54.435 -51.384  1.00  0.00    -0.267 NA
HETATM    8  C   UNL     1     -39.604  51.693 -53.248  1.00  0.00     0.019 A 
HETATM    9  C   UNL     1     -39.429  50.761 -52.226  1.00  0.00     0.001 A 
HETATM   10  C   UNL     1     -39.892  51.044 -50.941  1.00  0.00     0.002 A 
HETATM   11  C   UNL     1     -40.519  52.265 -50.670  1.00  0.00     0.024 A 
HETATM   12  H   UNL     1     -41.312  55.648 -54.434  1.00  0.00     0.164 HD
HETATM   13  H   UNL     1     -42.294  54.280 -51.142  1.00  0.00     0.130 HD
ENDROOT
BRANCH   1  14
HETATM   14  C   UNL     1     -42.182  56.585 -52.104  1.00  0.00     0.023 A 
HETATM   15  C   UNL     1     -41.834  57.842 -51.509  1.00  0.00    -0.014 A 
HETATM   16  C   UNL     1     -42.860  58.805 -51.298  1.00  0.00    -0.025 A 
HETATM   17  C   UNL     1     -40.526  58.211 -51.101  1.00  0.00     0.013 A 
HETATM   18  C   UNL     1     -42.560  60.058 -50.739  1.00  0.00     0.012 A 
HETATM   19  C   UNL     1     -44.186  58.514 -51.640  1.00  0.00     0.015 A 
HETATM   20  C   UNL     1     -41.261  60.388 -50.368  1.00  0.00     0.001 A 
HETATM   21  C   UNL     1     -40.245  59.463 -50.545  1.00  0.00     0.001 A 
HETATM   22  C   UNL     1     -44.525  57.285 -52.191  1.00  0.00     0.038 A 
HETATM   23  C   UNL     1     -43.536  56.342 -52.424  1.00  0.00     0.076 A 
BRANCH  23  24
HETATM   24  O   UNL     1     -43.968  55.164 -52.975  1.00  0.00    -0.360 OA
HETATM   25  H   UNL     1     -43.472  54.423 -52.575  1.00  0.00     0.217 HD
ENDBRANCH  23  24
ENDBRANCH   1  14
TORSDOF 2
ENDMDL
MODEL 6
REMARK VINA RESULT:      -7.7      1.688      2.391
REMARK  2 active torsions:
REMARK  status: ('A' for Active; 'I' for Inactive)
REMARK    1  A    between atoms: C_5  and  C_6 
REMARK    2  A    between atoms: C_17  and  O_18 
ROOT
HETATM    1  C   UNL     1     -41.897  55.992 -50.804  1.00  0.00     0.200 C 
HETATM    2  N   UNL     1     -43.323  55.897 -50.975  1.00  0.00    -0.336 N 
HETATM    3  C   UNL     1     -44.074  57.041 -51.087  1.00  0.00     0.255 C 
HETATM    4  O   UNL     1     -45.247  57.067 -50.739  1.00  0.00    -0.268 OA
HETATM    5  C   UNL     1     -43.402  58.195 -51.711  1.00  0.00     0.053 A 
HETATM    6  C   UNL     1     -42.064  58.041 -52.091  1.00  0.00     0.026 A 
HETATM    7  N   UNL     1     -41.345  56.866 -51.825  1.00  0.00    -0.267 NA
HETATM    8  C   UNL     1     -44.110  59.367 -51.988  1.00  0.00     0.019 A 
HETATM    9  C   UNL     1     -43.478  60.402 -52.677  1.00  0.00     0.001 A 
HETATM   10  C   UNL     1     -42.154  60.252 -53.091  1.00  0.00     0.002 A 
HETATM   11  C   UNL     1     -41.454  59.076 -52.806  1.00  0.00     0.024 A 
HETATM   12  H   UNL     1     -43.792  55.200 -50.409  1.00  0.00     0.164 HD
HETATM   13  H   UNL     1     -41.126  56.371 -52.688  1.00  0.00     0.130 HD
ENDROOT
BRANCH   1  14
HETATM   14  C   UNL     1     -41.246  54.623 -50.904  1.00  0.00     0.023 A 
HETATM   15  C   UNL     1     -40.926  54.028 -52.168  1.00  0.00    -0.014 A 
HETATM   16  C   UNL     1     -40.325  52.739 -52.184  1.00  0.00    -0.025 A 
HETATM   17  C   UNL     1     -41.168  54.630 -53.430  1.00  0.00     0.013 A 
HETATM   18  C   UNL     1     -39.975  52.128 -53.400  1.00  0.00     0.012 A 
HETATM   19  C   UNL     1     -40.080  52.057 -50.986  1.00  0.00     0.015 A 
HETATM   20  C   UNL     1     -40.212  52.759 -54.616  1.00  0.00     0.001 A 
HETATM   21  C   UNL     1     -40.813  54.008 -54.632  1.00  0.00     0.001 A 
HETATM   22  C   UNL     1     -40.416  52.622 -49.764  1.00  0.00     0.038 A 
HETATM   23  C   UNL     1     -40.983  53.888 -49.727  1.00  0.00     0.076 A 
BRANCH  23  24
HETATM   24  O   UNL     1     -41.273  54.362 -48.474  1.00  0.00    -0.360 OA
HETATM   25  H   UNL     1     -40.956  53.721 -47.808  1.00  0.00     0.217 HD
ENDBRANCH  23  24
ENDBRANCH   1  14
TORSDOF 2
ENDMDL
MODEL 7
REMARK VINA RESULT:      -7.7      2.108      6.292
REMARK  2 active torsions:
REMARK  status: ('A' for Active; 'I' for Inactive)
REMARK    1  A    between atoms: C_5  and  C_6 
REMARK    2  A    between atoms: C_17  and  O_18 
ROOT
HETATM    1  C   UNL     1     -42.429  54.940 -51.516  1.00  0.00     0.200 C 
HETATM    2  N   UNL     1     -41.191  55.012 -50.784  1.00  0.00    -0.336 N 
HETATM    3  C   UNL     1     -40.359  53.921 -50.741  1.00  0.00     0.255 C 
HETATM    4  O   UNL     1     -39.607  53.732 -49.795  1.00  0.00    -0.268 OA
HETATM    5  C   UNL     1     -40.384  53.045 -51.926  1.00  0.00     0.053 A 
HETATM    6  C   UNL     1     -41.270  53.373 -52.959  1.00  0.00     0.026 A 
HETATM    7  N   UNL     1     -42.169  54.445 -52.857  1.00  0.00    -0.267 NA
HETATM    8  C   UNL     1     -39.488  51.979 -52.043  1.00  0.00     0.019 A 
HETATM    9  C   UNL     1     -39.460  51.235 -53.222  1.00  0.00     0.001 A 
HETATM   10  C   UNL     1     -40.314  51.568 -54.273  1.00  0.00     0.002 A 
HETATM   11  C   UNL     1     -41.209  52.635 -54.145  1.00  0.00     0.024 A 
HETATM   12  H   UNL     1     -41.234  55.481 -49.886  1.00  0.00     0.164 HD
HETATM   13  H   UNL     1     -41.922  55.189 -53.507  1.00  0.00     0.130 HD
ENDROOT
BRANCH   1  14
HETATM   14  C   UNL     1     -43.091  56.305 -51.599  1.00  0.00     0.023 A 
HETATM   15  C   UNL     1     -42.463  57.409 -52.262  1.00  0.00    -0.014 A 
HETATM   16  C   UNL     1     -43.139  58.661 -52.293  1.00  0.00    -0.025 A 
HETATM   17  C   UNL     1     -41.196  57.359 -52.899  1.00  0.00     0.013 A 
HETATM   18  C   UNL     1     -42.570  59.765 -52.950  1.00  0.00     0.012 A 
HETATM   19  C   UNL     1     -44.379  58.812 -51.661  1.00  0.00     0.015 A 
HETATM   20  C   UNL     1     -41.334  59.669 -53.579  1.00  0.00     0.001 A 
HETATM   21  C   UNL     1     -40.644  58.467 -53.549  1.00  0.00     0.001 A 
HETATM   22  C   UNL     1     -44.973  57.748 -50.995  1.00  0.00     0.038 A 
HETATM   23  C   UNL     1     -44.340  56.514 -50.973  1.00  0.00     0.076 A 
BRANCH  23  24
HETATM   24  O   UNL     1     -45.006  55.527 -50.297  1.00  0.00    -0.360 OA
HETATM   25  H   UNL     1     -44.484  55.268 -49.512  1.00  0.00     0.217 HD
ENDBRANCH  23  24
ENDBRANCH   1  14
TORSDOF 2
ENDMDL
MODEL 8
REMARK VINA RESULT:      -7.6      2.102      3.588
REMARK  2 active torsions:
REMARK  status: ('A' for Active; 'I' for Inactive)
REMARK    1  A    between atoms: C_5  and  C_6 
REMARK    2  A    between atoms: C_17  and  O_18 
ROOT
HETATM    1  C   UNL     1     -43.322  57.326 -51.423  1.00  0.00     0.200 C 
HETATM    2  N   UNL     1     -44.760  57.378 -51.370  1.00  0.00    -0.336 N 
HETATM    3  C   UNL     1     -45.387  58.539 -50.990  1.00  0.00     0.255 C 
HETATM    4  O   UNL     1     -46.489  58.520 -50.457  1.00  0.00    -0.268 OA
HETATM    5  C   UNL     1     -44.686  59.790 -51.327  1.00  0.00     0.053 A 
HETATM    6  C   UNL     1     -43.441  59.688 -51.958  1.00  0.00     0.026 A 
HETATM    7  N   UNL     1     -42.826  58.451 -52.198  1.00  0.00    -0.267 NA
HETATM    8  C   UNL     1     -45.291  61.029 -51.101  1.00  0.00     0.019 A 
HETATM    9  C   UNL     1     -44.652  62.192 -51.530  1.00  0.00     0.001 A 
HETATM   10  C   UNL     1     -43.425  62.106 -52.188  1.00  0.00     0.002 A 
HETATM   11  C   UNL     1     -42.827  60.861 -52.407  1.00  0.00     0.024 A 
HETATM   12  H   UNL     1     -45.219  56.563 -50.978  1.00  0.00     0.164 HD
HETATM   13  H   UNL     1     -42.789  58.251 -53.196  1.00  0.00     0.130 HD
ENDROOT
BRANCH   1  14
HETATM   14  C   UNL     1     -42.849  56.028 -52.054  1.00  0.00     0.023 A 
HETATM   15  C   UNL     1     -41.811  55.236 -51.463  1.00  0.00    -0.014 A 
HETATM   16  C   UNL     1     -41.413  54.035 -52.115  1.00  0.00    -0.025 A 
HETATM   17  C   UNL     1     -41.130  55.558 -50.260  1.00  0.00     0.013 A 
HETATM   18  C   UNL     1     -40.415  53.217 -51.560  1.00  0.00     0.012 A 
HETATM   19  C   UNL     1     -42.007  53.655 -53.325  1.00  0.00     0.015 A 
HETATM   20  C   UNL     1     -39.784  53.559 -50.368  1.00  0.00     0.001 A 
HETATM   21  C   UNL     1     -40.138  54.732 -49.721  1.00  0.00     0.001 A 
HETATM   22  C   UNL     1     -42.993  54.438 -53.910  1.00  0.00     0.038 A 
HETATM   23  C   UNL     1     -43.409  55.601 -53.278  1.00  0.00     0.076 A 
BRANCH  23  24
HETATM   24  O   UNL     1     -44.390  56.301 -53.930  1.00  0.00    -0.360 OA
HETATM   25  H   UNL     1     -44.137  57.245 -53.968  1.00  0.00     0.217 HD
ENDBRANCH  23  24
ENDBRANCH   1  14
TORSDOF 2
ENDMDL
MODEL 9
REMARK VINA RESULT:      -7.6      1.896      6.524
REMARK  2 active torsions:
REMARK  status: ('A' for Active; 'I' for Inactive)
REMARK    1  A    between atoms: C_5  and  C_6 
REMARK    2  A    between atoms: C_17  and  O_18 
ROOT
HETATM    1  C   UNL     1     -42.259  56.703 -51.761  1.00  0.00     0.200 C 
HETATM    2  N   UNL     1     -41.640  55.837 -50.790  1.00  0.00    -0.336 N 
HETATM    3  C   UNL     1     -41.343  54.539 -51.125  1.00  0.00     0.255 C 
HETATM    4  O   UNL     1     -41.302  53.658 -50.277  1.00  0.00    -0.268 OA
HETATM    5  C   UNL     1     -41.012  54.299 -52.542  1.00  0.00     0.053 A 
HETATM    6  C   UNL     1     -41.070  55.389 -53.417  1.00  0.00     0.026 A 
HETATM    7  N   UNL     1     -41.503  56.657 -53.000  1.00  0.00    -0.267 NA
HETATM    8  C   UNL     1     -40.572  53.043 -52.967  1.00  0.00     0.019 A 
HETATM    9  C   UNL     1     -40.162  52.873 -54.289  1.00  0.00     0.001 A 
HETATM   10  C   UNL     1     -40.184  53.957 -55.167  1.00  0.00     0.002 A 
HETATM   11  C   UNL     1     -40.629  55.209 -54.731  1.00  0.00     0.024 A 
HETATM   12  H   UNL     1     -42.000  55.903 -49.845  1.00  0.00     0.164 HD
HETATM   13  H   UNL     1     -40.734  57.325 -53.014  1.00  0.00     0.130 HD
ENDROOT
BRANCH   1  14
HETATM   14  C   UNL     1     -42.316  58.134 -51.254  1.00  0.00     0.023 A 
HETATM   15  C   UNL     1     -43.548  58.862 -51.184  1.00  0.00    -0.014 A 
HETATM   16  C   UNL     1     -43.523  60.202 -50.707  1.00  0.00    -0.025 A 
HETATM   17  C   UNL     1     -44.815  58.349 -51.564  1.00  0.00     0.013 A 
HETATM   18  C   UNL     1     -44.710  60.946 -50.602  1.00  0.00     0.012 A 
HETATM   19  C   UNL     1     -42.312  60.802 -50.341  1.00  0.00     0.015 A 
HETATM   20  C   UNL     1     -45.936  60.400 -50.967  1.00  0.00     0.001 A 
HETATM   21  C   UNL     1     -45.988  59.103 -51.453  1.00  0.00     0.001 A 
HETATM   22  C   UNL     1     -41.116  60.104 -50.436  1.00  0.00     0.038 A 
HETATM   23  C   UNL     1     -41.122  58.789 -50.878  1.00  0.00     0.076 A 
BRANCH  23  24
HETATM   24  O   UNL     1     -39.894  58.183 -50.931  1.00  0.00    -0.360 OA
HETATM   25  H   UNL     1     -40.005  57.263 -51.242  1.00  0.00     0.217 HD
ENDBRANCH  23  24
ENDBRANCH   1  14
TORSDOF 2
ENDMDL
MODEL 10
REMARK VINA RESULT:      -7.4      2.116      6.666
REMARK  2 active torsions:
REMARK  status: ('A' for Active; 'I' for Inactive)
REMARK    1  A    between atoms: C_5  and  C_6 
REMARK    2  A    between atoms: C_17  and  O_18 
ROOT
HETATM    1  C   UNL     1     -42.307  54.942 -52.263  1.00  0.00     0.200 C 
HETATM    2  N   UNL     1     -41.141  55.033 -51.424  1.00  0.00    -0.336 N 
HETATM    3  C   UNL     1     -40.407  53.905 -51.152  1.00  0.00     0.255 C 
HETATM    4  O   UNL     1     -39.763  53.802 -50.117  1.00  0.00    -0.268 OA
HETATM    5  C   UNL     1     -40.393  52.875 -52.206  1.00  0.00     0.053 A 
HETATM    6  C   UNL     1     -41.150  53.113 -53.358  1.00  0.00     0.026 A 
HETATM    7  N   UNL     1     -41.965  54.247 -53.493  1.00  0.00    -0.267 NA
HETATM    8  C   UNL     1     -39.579  51.746 -52.087  1.00  0.00     0.019 A 
HETATM    9  C   UNL     1     -39.502  50.843 -53.147  1.00  0.00     0.001 A 
HETATM   10  C   UNL     1     -40.226  51.081 -54.315  1.00  0.00     0.002 A 
HETATM   11  C   UNL     1     -41.040  52.214 -54.422  1.00  0.00     0.024 A 
HETATM   12  H   UNL     1     -41.228  55.625 -50.606  1.00  0.00     0.164 HD
HETATM   13  H   UNL     1     -41.600  54.874 -54.208  1.00  0.00     0.130 HD
ENDROOT
BRANCH   1  14
HETATM   14  C   UNL     1     -42.847  56.323 -52.595  1.00  0.00     0.023 A 
HETATM   15  C   UNL     1     -42.363  57.501 -51.938  1.00  0.00    -0.014 A 
HETATM   16  C   UNL     1     -42.921  58.760 -52.294  1.00  0.00    -0.025 A 
HETATM   17  C   UNL     1     -41.356  57.515 -50.938  1.00  0.00     0.013 A 
HETATM   18  C   UNL     1     -42.461  59.942 -51.692  1.00  0.00     0.012 A 
HETATM   19  C   UNL     1     -43.943  58.837 -53.248  1.00  0.00     0.015 A 
HETATM   20  C   UNL     1     -41.458  59.916 -50.728  1.00  0.00     0.001 A 
HETATM   21  C   UNL     1     -40.909  58.702 -50.348  1.00  0.00     0.001 A 
HETATM   22  C   UNL     1     -44.430  57.692 -53.863  1.00  0.00     0.038 A 
HETATM   23  C   UNL     1     -43.883  56.458 -53.545  1.00  0.00     0.076 A 
BRANCH  23  24
HETATM   24  O   UNL     1     -44.426  55.389 -54.209  1.00  0.00    -0.360 OA
HETATM   25  H   UNL     1     -44.883  54.812 -53.565  1.00  0.00     0.217 HD
ENDBRANCH  23  24
ENDBRANCH   1  14
TORSDOF 2
ENDMDL
