MODEL 1
REMARK VINA RESULT:      -8.5      0.000      0.000
REMARK  7 active torsions:
REMARK  status: ('A' for Active; 'I' for Inactive)
REMARK    1  A    between atoms: C_7  and  C_8 
REMARK       I    between atoms: C_8  and  N_9 
REMARK    2  A    between atoms: N_9  and  C_10 
REMARK    3  A    between atoms: C_10  and  C_11 
REMARK    4  A    between atoms: C_11  and  O_12 
REMARK    5  A    between atoms: C_11  and  C_13 
REMARK    6  A    between atoms: C_15  and  O_16 
REMARK    7  A    between atoms: O_16  and  C_17 
ROOT
HETATM    1  C   UNL     1     -43.077  56.584 -57.529  1.00  0.00     0.253 C 
HETATM    2  N   UNL     1     -43.264  55.799 -56.418  1.00  0.00    -0.354 N 
HETATM    3  O   UNL     1     -42.224  57.461 -57.596  1.00  0.00    -0.268 OA
HETATM    4  H   UNL     1     -44.055  55.173 -56.351  1.00  0.00     0.162 HD
ENDROOT
BRANCH   2   5
HETATM    5  C   UNL     1     -42.379  55.909 -55.263  1.00  0.00     0.159 C 
BRANCH   5   6
HETATM    6  C   UNL     1     -42.975  55.282 -53.987  1.00  0.00     0.169 C 
BRANCH   6   7
HETATM    7  O   UNL     1     -44.226  54.658 -54.309  1.00  0.00    -0.389 OA
HETATM    8  H   UNL     1     -44.493  55.042 -55.161  1.00  0.00     0.210 HD
ENDBRANCH   6   7
BRANCH   6   9
HETATM    9  C   UNL     1     -42.030  54.264 -53.384  1.00  0.00    -0.025 A 
HETATM   10  C   UNL     1     -41.330  53.342 -54.183  1.00  0.00     0.046 A 
HETATM   11  C   UNL     1     -40.449  52.424 -53.608  1.00  0.00     0.075 A 
HETATM   12  C   UNL     1     -40.235  52.451 -52.228  1.00  0.00     0.037 A 
HETATM   13  C   UNL     1     -40.915  53.364 -51.423  1.00  0.00     0.003 A 
HETATM   14  C   UNL     1     -41.810  54.264 -51.998  1.00  0.00     0.010 A 
BRANCH  11  15
HETATM   15  O   UNL     1     -39.724  51.481 -54.282  1.00  0.00    -0.290 OA
BRANCH  15  16
HETATM   16  C   UNL     1     -40.229  50.157 -54.231  1.00  0.00     0.505 C 
HETATM   17  F   UNL     1     -41.497  50.147 -54.713  1.00  0.00    -0.184 F 
HETATM   18  F   UNL     1     -39.486  49.410 -55.088  1.00  0.00    -0.184 F 
ENDBRANCH  15  16
ENDBRANCH  11  15
ENDBRANCH   6   9
ENDBRANCH   5   6
ENDBRANCH   2   5
BRANCH   1  19
HETATM   19  C   UNL     1     -44.041  56.353 -58.647  1.00  0.00     0.048 A 
HETATM   20  C   UNL     1     -43.988  55.099 -59.399  1.00  0.00     0.022 A 
HETATM   21  C   UNL     1     -44.859  54.830 -60.392  1.00  0.00     0.054 A 
HETATM   22  C   UNL     1     -45.865  55.779 -60.713  1.00  0.00     0.157 A 
HETATM   23  N   UNL     1     -45.912  56.946 -59.966  1.00  0.00    -0.291 N 
HETATM   24  N   UNL     1     -46.823  55.792 -61.612  1.00  0.00    -0.130 NA
HETATM   25  C   UNL     1     -46.983  57.651 -60.474  1.00  0.00     0.130 A 
HETATM   26  C   UNL     1     -45.015  57.240 -58.938  1.00  0.00     0.117 A 
HETATM   27  C   UNL     1     -47.429  58.972 -59.980  1.00  0.00     0.094 C 
HETATM   28  N   UNL     1     -47.523  56.967 -61.462  1.00  0.00    -0.135 NA
ENDBRANCH   1  19
TORSDOF 7
ENDMDL
MODEL 2
REMARK VINA RESULT:      -8.4      1.903      2.659
REMARK  7 active torsions:
REMARK  status: ('A' for Active; 'I' for Inactive)
REMARK    1  A    between atoms: C_7  and  C_8 
REMARK       I    between atoms: C_8  and  N_9 
REMARK    2  A    between atoms: N_9  and  C_10 
REMARK    3  A    between atoms: C_10  and  C_11 
REMARK    4  A    between atoms: C_11  and  O_12 
REMARK    5  A    between atoms: C_11  and  C_13 
REMARK    6  A    between atoms: C_15  and  O_16 
REMARK    7  A    between atoms: O_16  and  C_17 
ROOT
HETATM    1  C   UNL     1     -41.958  56.337 -55.261  1.00  0.00     0.253 C 
HETATM    2  N   UNL     1     -42.854  56.596 -54.253  1.00  0.00    -0.354 N 
HETATM    3  O   UNL     1     -40.822  55.923 -55.059  1.00  0.00    -0.268 OA
HETATM    4  H   UNL     1     -43.735  57.053 -54.445  1.00  0.00     0.162 HD
ENDROOT
BRANCH   2   5
HETATM    5  C   UNL     1     -42.525  56.304 -52.861  1.00  0.00     0.159 C 
BRANCH   5   6
HETATM    6  C   UNL     1     -43.040  54.926 -52.398  1.00  0.00     0.169 C 
BRANCH   6   7
HETATM    7  O   UNL     1     -44.016  54.449 -53.334  1.00  0.00    -0.389 OA
HETATM    8  H   UNL     1     -44.672  53.969 -52.800  1.00  0.00     0.210 HD
ENDBRANCH   6   7
BRANCH   6   9
HETATM    9  C   UNL     1     -41.906  53.929 -52.282  1.00  0.00    -0.025 A 
HETATM   10  C   UNL     1     -41.455  53.191 -53.391  1.00  0.00     0.046 A 
HETATM   11  C   UNL     1     -40.395  52.290 -53.265  1.00  0.00     0.075 A 
HETATM   12  C   UNL     1     -39.754  52.153 -52.032  1.00  0.00     0.037 A 
HETATM   13  C   UNL     1     -40.184  52.883 -50.925  1.00  0.00     0.003 A 
HETATM   14  C   UNL     1     -41.256  53.764 -51.049  1.00  0.00     0.010 A 
BRANCH  11  15
HETATM   15  O   UNL     1     -39.880  51.517 -54.268  1.00  0.00    -0.290 OA
BRANCH  15  16
HETATM   16  C   UNL     1     -40.258  50.151 -54.255  1.00  0.00     0.505 C 
HETATM   17  F   UNL     1     -41.551  50.045 -54.652  1.00  0.00    -0.184 F 
HETATM   18  F   UNL     1     -39.514  49.518 -55.198  1.00  0.00    -0.184 F 
ENDBRANCH  15  16
ENDBRANCH  11  15
ENDBRANCH   6   9
ENDBRANCH   5   6
ENDBRANCH   2   5
BRANCH   1  19
HETATM   19  C   UNL     1     -42.432  56.664 -56.639  1.00  0.00     0.048 A 
HETATM   20  C   UNL     1     -42.145  57.982 -57.207  1.00  0.00     0.022 A 
HETATM   21  C   UNL     1     -42.520  58.312 -58.458  1.00  0.00     0.054 A 
HETATM   22  C   UNL     1     -43.202  57.356 -59.257  1.00  0.00     0.157 A 
HETATM   23  N   UNL     1     -43.435  56.105 -58.706  1.00  0.00    -0.291 N 
HETATM   24  N   UNL     1     -43.682  57.396 -60.479  1.00  0.00    -0.130 NA
HETATM   25  C   UNL     1     -44.075  55.394 -59.699  1.00  0.00     0.130 A 
HETATM   26  C   UNL     1     -43.056  55.751 -57.411  1.00  0.00     0.117 A 
HETATM   27  C   UNL     1     -44.521  53.989 -59.570  1.00  0.00     0.094 C 
HETATM   28  N   UNL     1     -44.231  56.166 -60.755  1.00  0.00    -0.135 NA
ENDBRANCH   1  19
TORSDOF 7
ENDMDL
MODEL 3
REMARK VINA RESULT:      -8.2      2.518      3.068
REMARK  7 active torsions:
REMARK  status: ('A' for Active; 'I' for Inactive)
REMARK    1  A    between atoms: C_7  and  C_8 
REMARK       I    between atoms: C_8  and  N_9 
REMARK    2  A    between atoms: N_9  and  C_10 
REMARK    3  A    between atoms: C_10  and  C_11 
REMARK    4  A    between atoms: C_11  and  O_12 
REMARK    5  A    between atoms: C_11  and  C_13 
REMARK    6  A    between atoms: C_15  and  O_16 
REMARK    7  A    between atoms: O_16  and  C_17 
ROOT
HETATM    1  C   UNL     1     -43.023  55.179 -55.707  1.00  0.00     0.253 C 
HETATM    2  N   UNL     1     -42.877  55.943 -54.575  1.00  0.00    -0.354 N 
HETATM    3  O   UNL     1     -43.202  53.967 -55.680  1.00  0.00    -0.268 OA
HETATM    4  H   UNL     1     -42.607  56.915 -54.636  1.00  0.00     0.162 HD
ENDROOT
BRANCH   2   5
HETATM    5  C   UNL     1     -43.020  55.355 -53.247  1.00  0.00     0.159 C 
BRANCH   5   6
HETATM    6  C   UNL     1     -41.749  55.496 -52.387  1.00  0.00     0.169 C 
BRANCH   6   7
HETATM    7  O   UNL     1     -42.097  56.084 -51.126  1.00  0.00    -0.389 OA
HETATM    8  H   UNL     1     -41.852  57.022 -51.203  1.00  0.00     0.210 HD
ENDBRANCH   6   7
BRANCH   6   9
HETATM    9  C   UNL     1     -41.087  54.152 -52.164  1.00  0.00    -0.025 A 
HETATM   10  C   UNL     1     -40.598  53.383 -53.235  1.00  0.00     0.046 A 
HETATM   11  C   UNL     1     -39.974  52.154 -53.005  1.00  0.00     0.075 A 
HETATM   12  C   UNL     1     -39.801  51.708 -51.693  1.00  0.00     0.037 A 
HETATM   13  C   UNL     1     -40.272  52.464 -50.620  1.00  0.00     0.003 A 
HETATM   14  C   UNL     1     -40.914  53.678 -50.854  1.00  0.00     0.010 A 
BRANCH  11  15
HETATM   15  O   UNL     1     -39.471  51.322 -53.965  1.00  0.00    -0.290 OA
BRANCH  15  16
HETATM   16  C   UNL     1     -40.203  50.130 -54.198  1.00  0.00     0.505 C 
HETATM   17  F   UNL     1     -41.448  50.451 -54.631  1.00  0.00    -0.184 F 
HETATM   18  F   UNL     1     -39.596  49.479 -55.224  1.00  0.00    -0.184 F 
ENDBRANCH  15  16
ENDBRANCH  11  15
ENDBRANCH   6   9
ENDBRANCH   5   6
ENDBRANCH   2   5
BRANCH   1  19
HETATM   19  C   UNL     1     -42.872  55.912 -56.999  1.00  0.00     0.048 A 
HETATM   20  C   UNL     1     -43.231  55.248 -58.253  1.00  0.00     0.022 A 
HETATM   21  C   UNL     1     -43.146  55.879 -59.440  1.00  0.00     0.054 A 
HETATM   22  C   UNL     1     -42.709  57.230 -59.482  1.00  0.00     0.157 A 
HETATM   23  N   UNL     1     -42.402  57.846 -58.278  1.00  0.00    -0.291 N 
HETATM   24  N   UNL     1     -42.527  58.077 -60.469  1.00  0.00    -0.130 NA
HETATM   25  C   UNL     1     -42.041  59.132 -58.618  1.00  0.00     0.130 A 
HETATM   26  C   UNL     1     -42.482  57.203 -57.042  1.00  0.00     0.117 A 
HETATM   27  C   UNL     1     -41.633  60.173 -57.650  1.00  0.00     0.094 C 
HETATM   28  N   UNL     1     -42.106  59.269 -59.927  1.00  0.00    -0.135 NA
ENDBRANCH   1  19
TORSDOF 7
ENDMDL
MODEL 4
REMARK VINA RESULT:      -8.1      4.387      9.035
REMARK  7 active torsions:
REMARK  status: ('A' for Active; 'I' for Inactive)
REMARK    1  A    between atoms: C_7  and  C_8 
REMARK       I    between atoms: C_8  and  N_9 
REMARK    2  A    between atoms: N_9  and  C_10 
REMARK    3  A    between atoms: C_10  and  C_11 
REMARK    4  A    between atoms: C_11  and  O_12 
REMARK    5  A    between atoms: C_11  and  C_13 
REMARK    6  A    between atoms: C_15  and  O_16 
REMARK    7  A    between atoms: O_16  and  C_17 
ROOT
HETATM    1  C   UNL     1     -41.085  54.985 -53.225  1.00  0.00     0.253 C 
HETATM    2  N   UNL     1     -41.265  54.974 -54.586  1.00  0.00    -0.354 N 
HETATM    3  O   UNL     1     -41.235  55.988 -52.536  1.00  0.00    -0.268 OA
HETATM    4  H   UNL     1     -41.013  54.164 -55.137  1.00  0.00     0.162 HD
ENDROOT
BRANCH   2   5
HETATM    5  C   UNL     1     -41.742  56.159 -55.291  1.00  0.00     0.159 C 
BRANCH   5   6
HETATM    6  C   UNL     1     -43.006  55.892 -56.132  1.00  0.00     0.169 C 
BRANCH   6   7
HETATM    7  O   UNL     1     -44.153  56.388 -55.429  1.00  0.00    -0.389 OA
HETATM    8  H   UNL     1     -44.015  57.347 -55.355  1.00  0.00     0.210 HD
ENDBRANCH   6   7
BRANCH   6   9
HETATM    9  C   UNL     1     -42.908  56.553 -57.491  1.00  0.00    -0.025 A 
HETATM   10  C   UNL     1     -43.556  56.019 -58.620  1.00  0.00     0.046 A 
HETATM   11  C   UNL     1     -43.468  56.655 -59.861  1.00  0.00     0.075 A 
HETATM   12  C   UNL     1     -42.762  57.855 -59.967  1.00  0.00     0.037 A 
HETATM   13  C   UNL     1     -42.122  58.402 -58.856  1.00  0.00     0.003 A 
HETATM   14  C   UNL     1     -42.192  57.752 -57.625  1.00  0.00     0.010 A 
BRANCH  11  15
HETATM   15  O   UNL     1     -44.046  56.225 -61.022  1.00  0.00    -0.290 OA
BRANCH  15  16
HETATM   16  C   UNL     1     -45.059  55.243 -60.884  1.00  0.00     0.505 C 
HETATM   17  F   UNL     1     -46.262  55.805 -61.163  1.00  0.00    -0.184 F 
HETATM   18  F   UNL     1     -44.843  54.304 -61.841  1.00  0.00    -0.184 F 
ENDBRANCH  15  16
ENDBRANCH  11  15
ENDBRANCH   6   9
ENDBRANCH   5   6
ENDBRANCH   2   5
BRANCH   1  19
HETATM   19  C   UNL     1     -40.614  53.699 -52.630  1.00  0.00     0.048 A 
HETATM   20  C   UNL     1     -40.463  53.587 -51.178  1.00  0.00     0.022 A 
HETATM   21  C   UNL     1     -40.075  52.437 -50.592  1.00  0.00     0.054 A 
HETATM   22  C   UNL     1     -39.816  51.297 -51.397  1.00  0.00     0.157 A 
HETATM   23  N   UNL     1     -39.995  51.421 -52.766  1.00  0.00    -0.291 N 
HETATM   24  N   UNL     1     -39.429  50.074 -51.112  1.00  0.00    -0.130 NA
HETATM   25  C   UNL     1     -39.702  50.174 -53.277  1.00  0.00     0.130 A 
HETATM   26  C   UNL     1     -40.392  52.605 -53.387  1.00  0.00     0.117 A 
HETATM   27  C   UNL     1     -39.761  49.820 -54.712  1.00  0.00     0.094 C 
HETATM   28  N   UNL     1     -39.356  49.371 -52.291  1.00  0.00    -0.135 NA
ENDBRANCH   1  19
TORSDOF 7
ENDMDL
MODEL 5
REMARK VINA RESULT:      -8.0      4.570      8.180
REMARK  7 active torsions:
REMARK  status: ('A' for Active; 'I' for Inactive)
REMARK    1  A    between atoms: C_7  and  C_8 
REMARK       I    between atoms: C_8  and  N_9 
REMARK    2  A    between atoms: N_9  and  C_10 
REMARK    3  A    between atoms: C_10  and  C_11 
REMARK    4  A    between atoms: C_11  and  O_12 
REMARK    5  A    between atoms: C_11  and  C_13 
REMARK    6  A    between atoms: C_15  and  O_16 
REMARK    7  A    between atoms: O_16  and  C_17 
ROOT
HETATM    1  C   UNL     1     -40.796  54.096 -54.729  1.00  0.00     0.253 C 
HETATM    2  N   UNL     1     -42.094  54.194 -55.168  1.00  0.00    -0.354 N 
HETATM    3  O   UNL     1     -39.938  54.935 -54.978  1.00  0.00    -0.268 OA
HETATM    4  H   UNL     1     -42.741  53.426 -55.051  1.00  0.00     0.162 HD
ENDROOT
BRANCH   2   5
HETATM    5  C   UNL     1     -42.554  55.371 -55.897  1.00  0.00     0.159 C 
BRANCH   5   6
HETATM    6  C   UNL     1     -43.420  56.312 -55.035  1.00  0.00     0.169 C 
BRANCH   6   7
HETATM    7  O   UNL     1     -44.465  55.552 -54.414  1.00  0.00    -0.389 OA
HETATM    8  H   UNL     1     -45.245  56.133 -54.420  1.00  0.00     0.210 HD
ENDBRANCH   6   7
BRANCH   6   9
HETATM    9  C   UNL     1     -42.588  57.006 -53.977  1.00  0.00    -0.025 A 
HETATM   10  C   UNL     1     -42.645  56.624 -52.624  1.00  0.00     0.046 A 
HETATM   11  C   UNL     1     -41.855  57.265 -51.667  1.00  0.00     0.075 A 
HETATM   12  C   UNL     1     -40.972  58.269 -52.069  1.00  0.00     0.037 A 
HETATM   13  C   UNL     1     -40.896  58.653 -53.407  1.00  0.00     0.003 A 
HETATM   14  C   UNL     1     -41.702  58.026 -54.356  1.00  0.00     0.010 A 
BRANCH  11  15
HETATM   15  O   UNL     1     -41.835  56.985 -50.330  1.00  0.00    -0.290 OA
BRANCH  15  16
HETATM   16  C   UNL     1     -41.494  55.654 -49.980  1.00  0.00     0.505 C 
HETATM   17  F   UNL     1     -40.296  55.343 -50.535  1.00  0.00    -0.184 F 
HETATM   18  F   UNL     1     -41.312  55.626 -48.634  1.00  0.00    -0.184 F 
ENDBRANCH  15  16
ENDBRANCH  11  15
ENDBRANCH   6   9
ENDBRANCH   5   6
ENDBRANCH   2   5
BRANCH   1  19
HETATM   19  C   UNL     1     -40.466  52.847 -53.979  1.00  0.00     0.048 A 
HETATM   20  C   UNL     1     -40.004  51.666 -54.709  1.00  0.00     0.022 A 
HETATM   21  C   UNL     1     -39.660  50.529 -54.074  1.00  0.00     0.054 A 
HETATM   22  C   UNL     1     -39.734  50.471 -52.658  1.00  0.00     0.157 A 
HETATM   23  N   UNL     1     -40.147  51.613 -51.987  1.00  0.00    -0.291 N 
HETATM   24  N   UNL     1     -39.475  49.519 -51.790  1.00  0.00    -0.130 NA
HETATM   25  C   UNL     1     -40.097  51.277 -50.650  1.00  0.00     0.130 A 
HETATM   26  C   UNL     1     -40.509  52.796 -52.631  1.00  0.00     0.117 A 
HETATM   27  C   UNL     1     -40.448  52.192 -49.542  1.00  0.00     0.094 C 
HETATM   28  N   UNL     1     -39.704  50.025 -50.531  1.00  0.00    -0.135 NA
ENDBRANCH   1  19
TORSDOF 7
ENDMDL
MODEL 6
REMARK VINA RESULT:      -7.8      2.277      2.724
REMARK  7 active torsions:
REMARK  status: ('A' for Active; 'I' for Inactive)
REMARK    1  A    between atoms: C_7  and  C_8 
REMARK       I    between atoms: C_8  and  N_9 
REMARK    2  A    between atoms: N_9  and  C_10 
REMARK    3  A    between atoms: C_10  and  C_11 
REMARK    4  A    between atoms: C_11  and  O_12 
REMARK    5  A    between atoms: C_11  and  C_13 
REMARK    6  A    between atoms: C_15  and  O_16 
REMARK    7  A    between atoms: O_16  and  C_17 
ROOT
HETATM    1  C   UNL     1     -43.065  56.678 -57.484  1.00  0.00     0.253 C 
HETATM    2  N   UNL     1     -43.204  55.868 -56.384  1.00  0.00    -0.354 N 
HETATM    3  O   UNL     1     -42.235  57.576 -57.556  1.00  0.00    -0.268 OA
HETATM    4  H   UNL     1     -43.978  55.222 -56.309  1.00  0.00     0.162 HD
ENDROOT
BRANCH   2   5
HETATM    5  C   UNL     1     -42.291  55.976 -55.251  1.00  0.00     0.159 C 
BRANCH   5   6
HETATM    6  C   UNL     1     -42.807  55.254 -53.991  1.00  0.00     0.169 C 
BRANCH   6   7
HETATM    7  O   UNL     1     -44.052  54.610 -54.294  1.00  0.00    -0.389 OA
HETATM    8  H   UNL     1     -44.007  54.396 -55.242  1.00  0.00     0.210 HD
ENDBRANCH   6   7
BRANCH   6   9
HETATM    9  C   UNL     1     -41.804  54.233 -53.496  1.00  0.00    -0.025 A 
HETATM   10  C   UNL     1     -41.400  54.187 -52.149  1.00  0.00     0.046 A 
HETATM   11  C   UNL     1     -40.488  53.224 -51.711  1.00  0.00     0.075 A 
HETATM   12  C   UNL     1     -40.005  52.275 -52.614  1.00  0.00     0.037 A 
HETATM   13  C   UNL     1     -40.403  52.301 -53.950  1.00  0.00     0.003 A 
HETATM   14  C   UNL     1     -41.296  53.277 -54.389  1.00  0.00     0.010 A 
BRANCH  11  15
HETATM   15  O   UNL     1     -40.019  53.091 -50.433  1.00  0.00    -0.290 OA
BRANCH  15  16
HETATM   16  C   UNL     1     -40.266  54.184 -49.565  1.00  0.00     0.505 C 
HETATM   17  F   UNL     1     -41.424  53.964 -48.893  1.00  0.00    -0.184 F 
HETATM   18  F   UNL     1     -39.277  54.190 -48.634  1.00  0.00    -0.184 F 
ENDBRANCH  15  16
ENDBRANCH  11  15
ENDBRANCH   6   9
ENDBRANCH   5   6
ENDBRANCH   2   5
BRANCH   1  19
HETATM   19  C   UNL     1     -44.054  56.446 -58.579  1.00  0.00     0.048 A 
HETATM   20  C   UNL     1     -44.047  55.173 -59.301  1.00  0.00     0.022 A 
HETATM   21  C   UNL     1     -44.941  54.904 -60.273  1.00  0.00     0.054 A 
HETATM   22  C   UNL     1     -45.927  55.871 -60.601  1.00  0.00     0.157 A 
HETATM   23  N   UNL     1     -45.930  57.057 -59.883  1.00  0.00    -0.291 N 
HETATM   24  N   UNL     1     -46.899  55.888 -61.485  1.00  0.00    -0.130 NA
HETATM   25  C   UNL     1     -46.990  57.778 -60.391  1.00  0.00     0.130 A 
HETATM   26  C   UNL     1     -45.009  57.352 -58.878  1.00  0.00     0.117 A 
HETATM   27  C   UNL     1     -47.393  59.122 -59.923  1.00  0.00     0.094 C 
HETATM   28  N   UNL     1     -47.565  57.084 -61.353  1.00  0.00    -0.135 NA
ENDBRANCH   1  19
TORSDOF 7
ENDMDL
MODEL 7
REMARK VINA RESULT:      -7.8      4.969      8.282
REMARK  7 active torsions:
REMARK  status: ('A' for Active; 'I' for Inactive)
REMARK    1  A    between atoms: C_7  and  C_8 
REMARK       I    between atoms: C_8  and  N_9 
REMARK    2  A    between atoms: N_9  and  C_10 
REMARK    3  A    between atoms: C_10  and  C_11 
REMARK    4  A    between atoms: C_11  and  O_12 
REMARK    5  A    between atoms: C_11  and  C_13 
REMARK    6  A    between atoms: C_15  and  O_16 
REMARK    7  A    between atoms: O_16  and  C_17 
ROOT
HETATM    1  C   UNL     1     -40.849  54.738 -51.181  1.00  0.00     0.253 C 
HETATM    2  N   UNL     1     -41.887  55.552 -51.561  1.00  0.00    -0.354 N 
HETATM    3  O   UNL     1     -40.141  54.962 -50.206  1.00  0.00    -0.268 OA
HETATM    4  H   UNL     1     -42.369  55.406 -52.438  1.00  0.00     0.162 HD
ENDROOT
BRANCH   2   5
HETATM    5  C   UNL     1     -42.268  56.709 -50.756  1.00  0.00     0.159 C 
BRANCH   5   6
HETATM    6  C   UNL     1     -43.308  57.610 -51.452  1.00  0.00     0.169 C 
BRANCH   6   7
HETATM    7  O   UNL     1     -43.396  58.856 -50.749  1.00  0.00    -0.389 OA
HETATM    8  H   UNL     1     -42.568  59.325 -50.951  1.00  0.00     0.210 HD
ENDBRANCH   6   7
BRANCH   6   9
HETATM    9  C   UNL     1     -42.936  57.858 -52.899  1.00  0.00    -0.025 A 
HETATM   10  C   UNL     1     -43.478  57.089 -53.944  1.00  0.00     0.046 A 
HETATM   11  C   UNL     1     -43.136  57.348 -55.273  1.00  0.00     0.075 A 
HETATM   12  C   UNL     1     -42.275  58.408 -55.565  1.00  0.00     0.037 A 
HETATM   13  C   UNL     1     -41.736  59.186 -54.541  1.00  0.00     0.003 A 
HETATM   14  C   UNL     1     -42.062  58.910 -53.215  1.00  0.00     0.010 A 
BRANCH  11  15
HETATM   15  O   UNL     1     -43.592  56.663 -56.364  1.00  0.00    -0.290 OA
BRANCH  15  16
HETATM   16  C   UNL     1     -42.831  55.530 -56.748  1.00  0.00     0.505 C 
HETATM   17  F   UNL     1     -43.196  54.471 -55.984  1.00  0.00    -0.184 F 
HETATM   18  F   UNL     1     -43.183  55.222 -58.023  1.00  0.00    -0.184 F 
ENDBRANCH  15  16
ENDBRANCH  11  15
ENDBRANCH   6   9
ENDBRANCH   5   6
ENDBRANCH   2   5
BRANCH   1  19
HETATM   19  C   UNL     1     -40.580  53.579 -52.085  1.00  0.00     0.048 A 
HETATM   20  C   UNL     1     -40.592  53.776 -53.535  1.00  0.00     0.022 A 
HETATM   21  C   UNL     1     -40.321  52.770 -54.390  1.00  0.00     0.054 A 
HETATM   22  C   UNL     1     -40.001  51.486 -53.876  1.00  0.00     0.157 A 
HETATM   23  N   UNL     1     -39.968  51.332 -52.499  1.00  0.00    -0.291 N 
HETATM   24  N   UNL     1     -39.706  50.343 -54.454  1.00  0.00    -0.130 NA
HETATM   25  C   UNL     1     -39.612  50.016 -52.296  1.00  0.00     0.130 A 
HETATM   26  C   UNL     1     -40.251  52.363 -51.602  1.00  0.00     0.117 A 
HETATM   27  C   UNL     1     -39.443  49.387 -50.968  1.00  0.00     0.094 C 
HETATM   28  N   UNL     1     -39.463  49.422 -53.462  1.00  0.00    -0.135 NA
ENDBRANCH   1  19
TORSDOF 7
ENDMDL
MODEL 8
REMARK VINA RESULT:      -7.7      4.724      8.007
REMARK  7 active torsions:
REMARK  status: ('A' for Active; 'I' for Inactive)
REMARK    1  A    between atoms: C_7  and  C_8 
REMARK       I    between atoms: C_8  and  N_9 
REMARK    2  A    between atoms: N_9  and  C_10 
REMARK    3  A    between atoms: C_10  and  C_11 
REMARK    4  A    between atoms: C_11  and  O_12 
REMARK    5  A    between atoms: C_11  and  C_13 
REMARK    6  A    between atoms: C_15  and  O_16 
REMARK    7  A    between atoms: O_16  and  C_17 
ROOT
HETATM    1  C   UNL     1     -41.634  55.153 -55.079  1.00  0.00     0.253 C 
HETATM    2  N   UNL     1     -41.653  56.477 -54.712  1.00  0.00    -0.354 N 
HETATM    3  O   UNL     1     -42.101  54.742 -56.135  1.00  0.00    -0.268 OA
HETATM    4  H   UNL     1     -41.372  56.762 -53.784  1.00  0.00     0.162 HD
ENDROOT
BRANCH   2   5
HETATM    5  C   UNL     1     -42.163  57.500 -55.618  1.00  0.00     0.159 C 
BRANCH   5   6
HETATM    6  C   UNL     1     -43.649  57.830 -55.377  1.00  0.00     0.169 C 
BRANCH   6   7
HETATM    7  O   UNL     1     -44.453  56.719 -55.798  1.00  0.00    -0.389 OA
HETATM    8  H   UNL     1     -44.152  56.511 -56.700  1.00  0.00     0.210 HD
ENDBRANCH   6   7
BRANCH   6   9
HETATM    9  C   UNL     1     -43.913  58.133 -53.917  1.00  0.00    -0.025 A 
HETATM   10  C   UNL     1     -44.210  57.115 -52.993  1.00  0.00     0.046 A 
HETATM   11  C   UNL     1     -44.431  57.415 -51.647  1.00  0.00     0.075 A 
HETATM   12  C   UNL     1     -44.317  58.736 -51.211  1.00  0.00     0.037 A 
HETATM   13  C   UNL     1     -44.015  59.756 -52.113  1.00  0.00     0.003 A 
HETATM   14  C   UNL     1     -43.817  59.456 -53.459  1.00  0.00     0.010 A 
BRANCH  11  15
HETATM   15  O   UNL     1     -44.733  56.512 -50.666  1.00  0.00    -0.290 OA
BRANCH  15  16
HETATM   16  C   UNL     1     -43.968  55.318 -50.666  1.00  0.00     0.505 C 
HETATM   17  F   UNL     1     -42.803  55.538 -50.007  1.00  0.00    -0.184 F 
HETATM   18  F   UNL     1     -44.654  54.401 -49.935  1.00  0.00    -0.184 F 
ENDBRANCH  15  16
ENDBRANCH  11  15
ENDBRANCH   6   9
ENDBRANCH   5   6
ENDBRANCH   2   5
BRANCH   1  19
HETATM   19  C   UNL     1     -41.066  54.215 -54.065  1.00  0.00     0.048 A 
HETATM   20  C   UNL     1     -40.958  54.640 -52.669  1.00  0.00     0.022 A 
HETATM   21  C   UNL     1     -40.485  53.817 -51.712  1.00  0.00     0.054 A 
HETATM   22  C   UNL     1     -40.091  52.498 -52.058  1.00  0.00     0.157 A 
HETATM   23  N   UNL     1     -40.231  52.111 -53.382  1.00  0.00    -0.291 N 
HETATM   24  N   UNL     1     -39.601  51.501 -51.356  1.00  0.00    -0.130 NA
HETATM   25  C   UNL     1     -39.803  50.800 -53.416  1.00  0.00     0.130 A 
HETATM   26  C   UNL     1     -40.714  52.952 -54.384  1.00  0.00     0.117 A 
HETATM   27  C   UNL     1     -39.776  49.957 -54.631  1.00  0.00     0.094 C 
HETATM   28  N   UNL     1     -39.420  50.437 -52.209  1.00  0.00    -0.135 NA
ENDBRANCH   1  19
TORSDOF 7
ENDMDL
MODEL 9
REMARK VINA RESULT:      -7.7      4.770      6.311
REMARK  7 active torsions:
REMARK  status: ('A' for Active; 'I' for Inactive)
REMARK    1  A    between atoms: C_7  and  C_8 
REMARK       I    between atoms: C_8  and  N_9 
REMARK    2  A    between atoms: N_9  and  C_10 
REMARK    3  A    between atoms: C_10  and  C_11 
REMARK    4  A    between atoms: C_11  and  O_12 
REMARK    5  A    between atoms: C_11  and  C_13 
REMARK    6  A    between atoms: C_15  and  O_16 
REMARK    7  A    between atoms: O_16  and  C_17 
ROOT
HETATM    1  C   UNL     1     -43.446  56.359 -54.424  1.00  0.00     0.253 C 
HETATM    2  N   UNL     1     -43.100  55.048 -54.206  1.00  0.00    -0.354 N 
HETATM    3  O   UNL     1     -43.190  56.958 -55.462  1.00  0.00    -0.268 OA
HETATM    4  H   UNL     1     -43.215  54.624 -53.296  1.00  0.00     0.162 HD
ENDROOT
BRANCH   2   5
HETATM    5  C   UNL     1     -42.472  54.252 -55.256  1.00  0.00     0.159 C 
BRANCH   5   6
HETATM    6  C   UNL     1     -40.937  54.192 -55.129  1.00  0.00     0.169 C 
BRANCH   6   7
HETATM    7  O   UNL     1     -40.414  55.527 -55.099  1.00  0.00    -0.389 OA
HETATM    8  H   UNL     1     -39.476  55.442 -55.339  1.00  0.00     0.210 HD
ENDBRANCH   6   7
BRANCH   6   9
HETATM    9  C   UNL     1     -40.521  53.447 -53.878  1.00  0.00    -0.025 A 
HETATM   10  C   UNL     1     -40.672  54.010 -52.597  1.00  0.00     0.046 A 
HETATM   11  C   UNL     1     -40.299  53.297 -51.456  1.00  0.00     0.075 A 
HETATM   12  C   UNL     1     -39.807  51.998 -51.589  1.00  0.00     0.037 A 
HETATM   13  C   UNL     1     -39.658  51.422 -52.850  1.00  0.00     0.003 A 
HETATM   14  C   UNL     1     -40.010  52.144 -53.989  1.00  0.00     0.010 A 
BRANCH  11  15
HETATM   15  O   UNL     1     -40.393  53.746 -50.168  1.00  0.00    -0.290 OA
BRANCH  15  16
HETATM   16  C   UNL     1     -41.328  54.787 -49.940  1.00  0.00     0.505 C 
HETATM   17  F   UNL     1     -42.578  54.262 -49.905  1.00  0.00    -0.184 F 
HETATM   18  F   UNL     1     -41.084  55.283 -48.700  1.00  0.00    -0.184 F 
ENDBRANCH  15  16
ENDBRANCH  11  15
ENDBRANCH   6   9
ENDBRANCH   5   6
ENDBRANCH   2   5
BRANCH   1  19
HETATM   19  C   UNL     1     -44.101  57.048 -53.272  1.00  0.00     0.048 A 
HETATM   20  C   UNL     1     -44.053  56.437 -51.942  1.00  0.00     0.022 A 
HETATM   21  C   UNL     1     -44.598  57.037 -50.866  1.00  0.00     0.054 A 
HETATM   22  C   UNL     1     -45.225  58.302 -51.015  1.00  0.00     0.157 A 
HETATM   23  N   UNL     1     -45.231  58.873 -52.279  1.00  0.00    -0.291 N 
HETATM   24  N   UNL     1     -45.831  59.102 -50.168  1.00  0.00    -0.130 NA
HETATM   25  C   UNL     1     -45.871  60.084 -52.119  1.00  0.00     0.130 A 
HETATM   26  C   UNL     1     -44.675  58.262 -53.403  1.00  0.00     0.117 A 
HETATM   27  C   UNL     1     -46.110  61.057 -53.207  1.00  0.00     0.094 C 
HETATM   28  N   UNL     1     -46.237  60.218 -50.861  1.00  0.00    -0.135 NA
ENDBRANCH   1  19
TORSDOF 7
ENDMDL
MODEL 10
REMARK VINA RESULT:      -7.7      4.373      8.129
REMARK  7 active torsions:
REMARK  status: ('A' for Active; 'I' for Inactive)
REMARK    1  A    between atoms: C_7  and  C_8 
REMARK       I    between atoms: C_8  and  N_9 
REMARK    2  A    between atoms: N_9  and  C_10 
REMARK    3  A    between atoms: C_10  and  C_11 
REMARK    4  A    between atoms: C_11  and  O_12 
REMARK    5  A    between atoms: C_11  and  C_13 
REMARK    6  A    between atoms: C_15  and  O_16 
REMARK    7  A    between atoms: O_16  and  C_17 
ROOT
HETATM    1  C   UNL     1     -42.368  54.662 -55.532  1.00  0.00     0.253 C 
HETATM    2  N   UNL     1     -41.924  55.896 -55.938  1.00  0.00    -0.354 N 
HETATM    3  O   UNL     1     -43.349  54.108 -56.015  1.00  0.00    -0.268 OA
HETATM    4  H   UNL     1     -41.191  56.376 -55.435  1.00  0.00     0.162 HD
ENDROOT
BRANCH   2   5
HETATM    5  C   UNL     1     -42.558  56.593 -57.053  1.00  0.00     0.159 C 
BRANCH   5   6
HETATM    6  C   UNL     1     -43.581  57.653 -56.598  1.00  0.00     0.169 C 
BRANCH   6   7
HETATM    7  O   UNL     1     -44.900  57.216 -56.951  1.00  0.00    -0.389 OA
HETATM    8  H   UNL     1     -45.397  57.196 -56.115  1.00  0.00     0.210 HD
ENDBRANCH   6   7
BRANCH   6   9
HETATM    9  C   UNL     1     -43.497  57.887 -55.104  1.00  0.00    -0.025 A 
HETATM   10  C   UNL     1     -42.483  58.680 -54.536  1.00  0.00     0.046 A 
HETATM   11  C   UNL     1     -42.436  58.898 -53.157  1.00  0.00     0.075 A 
HETATM   12  C   UNL     1     -43.431  58.354 -52.342  1.00  0.00     0.037 A 
HETATM   13  C   UNL     1     -44.447  57.573 -52.891  1.00  0.00     0.003 A 
HETATM   14  C   UNL     1     -44.479  57.338 -54.264  1.00  0.00     0.010 A 
BRANCH  11  15
HETATM   15  O   UNL     1     -41.497  59.640 -52.497  1.00  0.00    -0.290 OA
BRANCH  15  16
HETATM   16  C   UNL     1     -40.350  58.935 -52.052  1.00  0.00     0.505 C 
HETATM   17  F   UNL     1     -39.449  58.870 -53.063  1.00  0.00    -0.184 F 
HETATM   18  F   UNL     1     -39.776  59.679 -51.072  1.00  0.00    -0.184 F 
ENDBRANCH  15  16
ENDBRANCH  11  15
ENDBRANCH   6   9
ENDBRANCH   5   6
ENDBRANCH   2   5
BRANCH   1  19
HETATM   19  C   UNL     1     -41.617  54.053 -54.394  1.00  0.00     0.048 A 
HETATM   20  C   UNL     1     -41.561  54.752 -53.109  1.00  0.00     0.022 A 
HETATM   21  C   UNL     1     -40.926  54.228 -52.043  1.00  0.00     0.054 A 
HETATM   22  C   UNL     1     -40.302  52.958 -52.158  1.00  0.00     0.157 A 
HETATM   23  N   UNL     1     -40.393  52.303 -53.377  1.00  0.00    -0.291 N 
HETATM   24  N   UNL     1     -39.622  52.218 -51.311  1.00  0.00    -0.130 NA
HETATM   25  C   UNL     1     -39.732  51.108 -53.190  1.00  0.00     0.130 A 
HETATM   26  C   UNL     1     -41.044  52.836 -54.491  1.00  0.00     0.117 A 
HETATM   27  C   UNL     1     -39.574  50.064 -54.226  1.00  0.00     0.094 C 
HETATM   28  N   UNL     1     -39.264  51.059 -51.959  1.00  0.00    -0.135 NA
ENDBRANCH   1  19
TORSDOF 7
ENDMDL
