MODEL 1
REMARK VINA RESULT:      -8.3      0.000      0.000
REMARK  4 active torsions:
REMARK  status: ('A' for Active; 'I' for Inactive)
REMARK    1  A    between atoms: C_5  and  N_6 
REMARK       I    between atoms: N_6  and  C_7 
REMARK    2  A    between atoms: C_7  and  C_8 
REMARK    3  A    between atoms: C_12  and  C_13 
REMARK    4  A    between atoms: C_15  and  O_16 
ROOT
HETATM    1  C   UNL     1     -42.805  55.913 -56.122  1.00  0.00     0.120 A 
HETATM    2  N   UNL     1     -43.843  55.521 -55.326  1.00  0.00    -0.272 N 
HETATM    3  H   UNL     1     -44.817  55.793 -55.420  1.00  0.00     0.189 HD
HETATM    4  N   UNL     1     -43.495  54.678 -54.341  1.00  0.00    -0.174 NA
HETATM    5  C   UNL     1     -42.164  54.545 -54.463  1.00  0.00     0.089 A 
HETATM    6  C   UNL     1     -41.696  55.299 -55.576  1.00  0.00     0.071 A 
ENDROOT
BRANCH   1   7
HETATM    7  C   UNL     1     -43.002  56.793 -57.242  1.00  0.00     0.270 C 
HETATM    8  N   UNL     1     -43.883  56.330 -58.194  1.00  0.00    -0.351 N 
HETATM    9  H   UNL     1     -44.434  55.515 -57.971  1.00  0.00     0.163 HD
HETATM   10  O   UNL     1     -42.436  57.877 -57.328  1.00  0.00    -0.266 OA
BRANCH   8  11
HETATM   11  C   UNL     1     -44.278  57.132 -59.347  1.00  0.00     0.084 C 
HETATM   12  C   UNL     1     -44.528  56.232 -60.563  1.00  0.00     0.025 C 
HETATM   13  C   UNL     1     -45.817  55.414 -60.447  1.00  0.00     0.006 C 
HETATM   14  C   UNL     1     -47.049  56.270 -60.121  1.00  0.00    -0.019 C 
HETATM   15  C   UNL     1     -47.509  57.080 -61.336  1.00  0.00     0.010 C 
HETATM   16  C   UNL     1     -46.788  57.168 -58.905  1.00  0.00     0.006 C 
HETATM   17  C   UNL     1     -45.508  57.995 -59.032  1.00  0.00     0.025 C 
ENDBRANCH   8  11
ENDBRANCH   1   7
BRANCH   5  18
HETATM   18  C   UNL     1     -41.382  53.712 -53.546  1.00  0.00    -0.003 A 
HETATM   19  C   UNL     1     -40.676  52.595 -54.029  1.00  0.00     0.050 A 
HETATM   20  C   UNL     1     -39.916  51.802 -53.167  1.00  0.00     0.069 A 
HETATM   21  C   UNL     1     -39.867  52.120 -51.808  1.00  0.00     0.037 A 
HETATM   22  C   UNL     1     -40.568  53.217 -51.311  1.00  0.00     0.004 A 
HETATM   23  C   UNL     1     -41.323  54.010 -52.176  1.00  0.00     0.014 A 
BRANCH  20  24
HETATM   24  O   UNL     1     -39.181  50.703 -53.522  1.00  0.00    -0.356 OA
HETATM   25  C   UNL     1     -39.734  49.859 -54.524  1.00  0.00     0.210 C 
ENDBRANCH  20  24
ENDBRANCH   5  18
TORSDOF 4
ENDMDL
MODEL 2
REMARK VINA RESULT:      -8.3      1.013      1.921
REMARK  4 active torsions:
REMARK  status: ('A' for Active; 'I' for Inactive)
REMARK    1  A    between atoms: C_5  and  N_6 
REMARK       I    between atoms: N_6  and  C_7 
REMARK    2  A    between atoms: C_7  and  C_8 
REMARK    3  A    between atoms: C_12  and  C_13 
REMARK    4  A    between atoms: C_15  and  O_16 
ROOT
HETATM    1  C   UNL     1     -42.637  55.657 -56.188  1.00  0.00     0.120 A 
HETATM    2  N   UNL     1     -43.667  55.201 -55.415  1.00  0.00    -0.272 N 
HETATM    3  H   UNL     1     -44.644  55.466 -55.489  1.00  0.00     0.189 HD
HETATM    4  N   UNL     1     -43.305  54.301 -54.488  1.00  0.00    -0.174 NA
HETATM    5  C   UNL     1     -41.973  54.194 -54.622  1.00  0.00     0.089 A 
HETATM    6  C   UNL     1     -41.518  55.024 -55.686  1.00  0.00     0.071 A 
ENDROOT
BRANCH   1   7
HETATM    7  C   UNL     1     -42.851  56.604 -57.249  1.00  0.00     0.270 C 
HETATM    8  N   UNL     1     -43.784  56.223 -58.187  1.00  0.00    -0.351 N 
HETATM    9  H   UNL     1     -44.352  55.413 -57.986  1.00  0.00     0.163 HD
HETATM   10  O   UNL     1     -42.252  57.673 -57.299  1.00  0.00    -0.266 OA
BRANCH   8  11
HETATM   11  C   UNL     1     -44.198  57.100 -59.277  1.00  0.00     0.084 C 
HETATM   12  C   UNL     1     -44.502  56.280 -60.537  1.00  0.00     0.025 C 
HETATM   13  C   UNL     1     -45.802  55.479 -60.429  1.00  0.00     0.006 C 
HETATM   14  C   UNL     1     -47.007  56.335 -60.014  1.00  0.00    -0.019 C 
HETATM   15  C   UNL     1     -47.488  57.225 -61.163  1.00  0.00     0.010 C 
HETATM   16  C   UNL     1     -46.692  57.153 -58.755  1.00  0.00     0.006 C 
HETATM   17  C   UNL     1     -45.401  57.964 -58.872  1.00  0.00     0.025 C 
ENDBRANCH   8  11
ENDBRANCH   1   7
BRANCH   5  18
HETATM   18  C   UNL     1     -41.176  53.314 -53.763  1.00  0.00    -0.003 A 
HETATM   19  C   UNL     1     -41.045  53.593 -52.390  1.00  0.00     0.050 A 
HETATM   20  C   UNL     1     -40.301  52.754 -51.558  1.00  0.00     0.069 A 
HETATM   21  C   UNL     1     -39.674  51.631 -52.102  1.00  0.00     0.037 A 
HETATM   22  C   UNL     1     -39.786  51.344 -53.461  1.00  0.00     0.004 A 
HETATM   23  C   UNL     1     -40.535  52.183 -54.289  1.00  0.00     0.014 A 
BRANCH  20  24
HETATM   24  O   UNL     1     -40.110  52.916 -50.212  1.00  0.00    -0.356 OA
HETATM   25  C   UNL     1     -39.818  54.233 -49.761  1.00  0.00     0.210 C 
ENDBRANCH  20  24
ENDBRANCH   5  18
TORSDOF 4
ENDMDL
MODEL 3
REMARK VINA RESULT:      -7.3     15.005     17.419
REMARK  4 active torsions:
REMARK  status: ('A' for Active; 'I' for Inactive)
REMARK    1  A    between atoms: C_5  and  N_6 
REMARK       I    between atoms: N_6  and  C_7 
REMARK    2  A    between atoms: C_7  and  C_8 
REMARK    3  A    between atoms: C_12  and  C_13 
REMARK    4  A    between atoms: C_15  and  O_16 
ROOT
HETATM    1  C   UNL     1     -34.944  40.904 -52.370  1.00  0.00     0.120 A 
HETATM    2  N   UNL     1     -35.115  39.559 -52.537  1.00  0.00    -0.272 N 
HETATM    3  H   UNL     1     -35.604  39.099 -53.300  1.00  0.00     0.189 HD
HETATM    4  N   UNL     1     -34.550  38.808 -51.580  1.00  0.00    -0.174 NA
HETATM    5  C   UNL     1     -34.024  39.695 -50.719  1.00  0.00     0.089 A 
HETATM    6  C   UNL     1     -34.245  41.021 -51.187  1.00  0.00     0.071 A 
ENDROOT
BRANCH   1   7
HETATM    7  C   UNL     1     -35.461  41.855 -53.318  1.00  0.00     0.270 C 
HETATM    8  N   UNL     1     -35.654  41.360 -54.588  1.00  0.00    -0.351 N 
HETATM    9  H   UNL     1     -35.580  40.363 -54.723  1.00  0.00     0.163 HD
HETATM   10  O   UNL     1     -35.720  43.012 -53.005  1.00  0.00    -0.266 OA
BRANCH   8  11
HETATM   11  C   UNL     1     -36.262  42.154 -55.650  1.00  0.00     0.084 C 
HETATM   12  C   UNL     1     -35.401  42.101 -56.917  1.00  0.00     0.025 C 
HETATM   13  C   UNL     1     -35.466  40.745 -57.628  1.00  0.00     0.006 C 
HETATM   14  C   UNL     1     -36.902  40.278 -57.906  1.00  0.00    -0.019 C 
HETATM   15  C   UNL     1     -37.538  41.067 -59.054  1.00  0.00     0.010 C 
HETATM   16  C   UNL     1     -37.756  40.338 -56.633  1.00  0.00     0.006 C 
HETATM   17  C   UNL     1     -37.700  41.698 -55.935  1.00  0.00     0.025 C 
ENDBRANCH   8  11
ENDBRANCH   1   7
BRANCH   5  18
HETATM   18  C   UNL     1     -33.327  39.272 -49.502  1.00  0.00    -0.003 A 
HETATM   19  C   UNL     1     -32.041  39.764 -49.214  1.00  0.00     0.050 A 
HETATM   20  C   UNL     1     -31.372  39.380 -48.050  1.00  0.00     0.069 A 
HETATM   21  C   UNL     1     -31.988  38.490 -47.168  1.00  0.00     0.037 A 
HETATM   22  C   UNL     1     -33.259  37.985 -47.442  1.00  0.00     0.004 A 
HETATM   23  C   UNL     1     -33.926  38.376 -48.604  1.00  0.00     0.014 A 
BRANCH  20  24
HETATM   24  O   UNL     1     -30.129  39.798 -47.660  1.00  0.00    -0.356 OA
HETATM   25  C   UNL     1     -30.008  40.295 -46.332  1.00  0.00     0.210 C 
ENDBRANCH  20  24
ENDBRANCH   5  18
TORSDOF 4
ENDMDL
MODEL 4
REMARK VINA RESULT:      -7.3      2.311      3.070
REMARK  4 active torsions:
REMARK  status: ('A' for Active; 'I' for Inactive)
REMARK    1  A    between atoms: C_5  and  N_6 
REMARK       I    between atoms: N_6  and  C_7 
REMARK    2  A    between atoms: C_7  and  C_8 
REMARK    3  A    between atoms: C_12  and  C_13 
REMARK    4  A    between atoms: C_15  and  O_16 
ROOT
HETATM    1  C   UNL     1     -41.603  57.125 -54.249  1.00  0.00     0.120 A 
HETATM    2  N   UNL     1     -41.535  57.089 -52.886  1.00  0.00    -0.272 N 
HETATM    3  H   UNL     1     -41.717  57.858 -52.248  1.00  0.00     0.189 HD
HETATM    4  N   UNL     1     -41.205  55.890 -52.381  1.00  0.00    -0.174 NA
HETATM    5  C   UNL     1     -41.000  55.114 -53.458  1.00  0.00     0.089 A 
HETATM    6  C   UNL     1     -41.249  55.853 -54.649  1.00  0.00     0.071 A 
ENDROOT
BRANCH   1   7
HETATM    7  C   UNL     1     -41.971  58.323 -54.956  1.00  0.00     0.270 C 
HETATM    8  N   UNL     1     -42.448  58.119 -56.231  1.00  0.00    -0.351 N 
HETATM    9  H   UNL     1     -42.656  57.173 -56.512  1.00  0.00     0.163 HD
HETATM   10  O   UNL     1     -41.875  59.435 -54.448  1.00  0.00    -0.266 OA
BRANCH   8  11
HETATM   11  C   UNL     1     -42.959  59.208 -57.056  1.00  0.00     0.084 C 
HETATM   12  C   UNL     1     -42.000  59.493 -58.219  1.00  0.00     0.025 C 
HETATM   13  C   UNL     1     -42.029  58.405 -59.297  1.00  0.00     0.006 C 
HETATM   14  C   UNL     1     -43.445  58.092 -59.801  1.00  0.00    -0.019 C 
HETATM   15  C   UNL     1     -43.977  59.203 -60.711  1.00  0.00     0.010 C 
HETATM   16  C   UNL     1     -44.396  57.812 -58.630  1.00  0.00     0.006 C 
HETATM   17  C   UNL     1     -44.376  58.908 -57.564  1.00  0.00     0.025 C 
ENDBRANCH   8  11
ENDBRANCH   1   7
BRANCH   5  18
HETATM   18  C   UNL     1     -40.591  53.712 -53.335  1.00  0.00    -0.003 A 
HETATM   19  C   UNL     1     -40.351  53.152 -52.067  1.00  0.00     0.050 A 
HETATM   20  C   UNL     1     -39.975  51.814 -51.937  1.00  0.00     0.069 A 
HETATM   21  C   UNL     1     -39.829  51.028 -53.082  1.00  0.00     0.037 A 
HETATM   22  C   UNL     1     -40.054  51.569 -54.347  1.00  0.00     0.004 A 
HETATM   23  C   UNL     1     -40.434  52.907 -54.473  1.00  0.00     0.014 A 
BRANCH  20  24
HETATM   24  O   UNL     1     -39.725  51.158 -50.761  1.00  0.00    -0.356 OA
HETATM   25  C   UNL     1     -39.515  49.753 -50.845  1.00  0.00     0.210 C 
ENDBRANCH  20  24
ENDBRANCH   5  18
TORSDOF 4
ENDMDL
MODEL 5
REMARK VINA RESULT:      -7.2      1.698      2.629
REMARK  4 active torsions:
REMARK  status: ('A' for Active; 'I' for Inactive)
REMARK    1  A    between atoms: C_5  and  N_6 
REMARK       I    between atoms: N_6  and  C_7 
REMARK    2  A    between atoms: C_7  and  C_8 
REMARK    3  A    between atoms: C_12  and  C_13 
REMARK    4  A    between atoms: C_15  and  O_16 
ROOT
HETATM    1  C   UNL     1     -43.484  56.167 -55.039  1.00  0.00     0.120 A 
HETATM    2  N   UNL     1     -44.361  55.282 -54.480  1.00  0.00    -0.272 N 
HETATM    3  H   UNL     1     -45.374  55.305 -54.551  1.00  0.00     0.189 HD
HETATM    4  N   UNL     1     -43.779  54.291 -53.788  1.00  0.00    -0.174 NA
HETATM    5  C   UNL     1     -42.465  54.558 -53.853  1.00  0.00     0.089 A 
HETATM    6  C   UNL     1     -42.240  55.725 -54.638  1.00  0.00     0.071 A 
ENDROOT
BRANCH   1   7
HETATM    7  C   UNL     1     -43.935  57.275 -55.838  1.00  0.00     0.270 C 
HETATM    8  N   UNL     1     -43.684  57.158 -57.186  1.00  0.00    -0.351 N 
HETATM    9  H   UNL     1     -43.364  56.265 -57.531  1.00  0.00     0.163 HD
HETATM   10  O   UNL     1     -44.509  58.241 -55.347  1.00  0.00    -0.266 OA
BRANCH   8  11
HETATM   11  C   UNL     1     -44.157  58.139 -58.156  1.00  0.00     0.084 C 
HETATM   12  C   UNL     1     -43.300  59.409 -58.094  1.00  0.00     0.025 C 
HETATM   13  C   UNL     1     -41.900  59.214 -58.684  1.00  0.00     0.006 C 
HETATM   14  C   UNL     1     -41.918  58.619 -60.099  1.00  0.00    -0.019 C 
HETATM   15  C   UNL     1     -42.364  59.652 -61.138  1.00  0.00     0.010 C 
HETATM   16  C   UNL     1     -42.781  57.351 -60.152  1.00  0.00     0.006 C 
HETATM   17  C   UNL     1     -44.183  57.554 -59.575  1.00  0.00     0.025 C 
ENDBRANCH   8  11
ENDBRANCH   1   7
BRANCH   5  18
HETATM   18  C   UNL     1     -41.469  53.711 -53.192  1.00  0.00    -0.003 A 
HETATM   19  C   UNL     1     -40.904  52.617 -53.874  1.00  0.00     0.050 A 
HETATM   20  C   UNL     1     -39.943  51.811 -53.260  1.00  0.00     0.069 A 
HETATM   21  C   UNL     1     -39.548  52.093 -51.950  1.00  0.00     0.037 A 
HETATM   22  C   UNL     1     -40.104  53.167 -51.257  1.00  0.00     0.004 A 
HETATM   23  C   UNL     1     -41.061  53.973 -51.876  1.00  0.00     0.014 A 
BRANCH  20  24
HETATM   24  O   UNL     1     -39.318  50.731 -53.822  1.00  0.00    -0.356 OA
HETATM   25  C   UNL     1     -39.522  49.473 -53.192  1.00  0.00     0.210 C 
ENDBRANCH  20  24
ENDBRANCH   5  18
TORSDOF 4
ENDMDL
MODEL 6
REMARK VINA RESULT:      -7.2      5.256      6.859
REMARK  4 active torsions:
REMARK  status: ('A' for Active; 'I' for Inactive)
REMARK    1  A    between atoms: C_5  and  N_6 
REMARK       I    between atoms: N_6  and  C_7 
REMARK    2  A    between atoms: C_7  and  C_8 
REMARK    3  A    between atoms: C_12  and  C_13 
REMARK    4  A    between atoms: C_15  and  O_16 
ROOT
HETATM    1  C   UNL     1     -43.359  56.964 -51.290  1.00  0.00     0.120 A 
HETATM    2  N   UNL     1     -42.319  56.715 -50.440  1.00  0.00    -0.272 N 
HETATM    3  H   UNL     1     -42.165  57.137 -49.529  1.00  0.00     0.189 HD
HETATM    4  N   UNL     1     -41.447  55.800 -50.890  1.00  0.00    -0.174 NA
HETATM    5  C   UNL     1     -41.903  55.467 -52.109  1.00  0.00     0.089 A 
HETATM    6  C   UNL     1     -43.107  56.172 -52.391  1.00  0.00     0.071 A 
ENDROOT
BRANCH   1   7
HETATM    7  C   UNL     1     -44.402  57.896 -50.954  1.00  0.00     0.270 C 
HETATM    8  N   UNL     1     -43.981  59.193 -50.762  1.00  0.00    -0.351 N 
HETATM    9  H   UNL     1     -43.034  59.425 -51.023  1.00  0.00     0.163 HD
HETATM   10  O   UNL     1     -45.577  57.555 -50.860  1.00  0.00    -0.266 OA
BRANCH   8  11
HETATM   11  C   UNL     1     -44.913  60.287 -50.512  1.00  0.00     0.084 C 
HETATM   12  C   UNL     1     -44.275  61.332 -49.588  1.00  0.00     0.025 C 
HETATM   13  C   UNL     1     -43.188  62.158 -50.282  1.00  0.00     0.006 C 
HETATM   14  C   UNL     1     -43.657  62.789 -51.600  1.00  0.00    -0.019 C 
HETATM   15  C   UNL     1     -44.597  63.973 -51.355  1.00  0.00     0.010 C 
HETATM   16  C   UNL     1     -44.296  61.737 -52.516  1.00  0.00     0.006 C 
HETATM   17  C   UNL     1     -45.392  60.924 -51.824  1.00  0.00     0.025 C 
ENDBRANCH   8  11
ENDBRANCH   1   7
BRANCH   5  18
HETATM   18  C   UNL     1     -41.206  54.497 -52.958  1.00  0.00    -0.003 A 
HETATM   19  C   UNL     1     -40.835  53.242 -52.443  1.00  0.00     0.050 A 
HETATM   20  C   UNL     1     -40.183  52.304 -53.246  1.00  0.00     0.069 A 
HETATM   21  C   UNL     1     -39.891  52.624 -54.574  1.00  0.00     0.037 A 
HETATM   22  C   UNL     1     -40.244  53.867 -55.098  1.00  0.00     0.004 A 
HETATM   23  C   UNL     1     -40.900  54.800 -54.293  1.00  0.00     0.014 A 
BRANCH  20  24
HETATM   24  O   UNL     1     -39.783  51.053 -52.862  1.00  0.00    -0.356 OA
HETATM   25  C   UNL     1     -39.815  50.037 -53.857  1.00  0.00     0.210 C 
ENDBRANCH  20  24
ENDBRANCH   5  18
TORSDOF 4
ENDMDL
MODEL 7
REMARK VINA RESULT:      -7.2      1.996      2.871
REMARK  4 active torsions:
REMARK  status: ('A' for Active; 'I' for Inactive)
REMARK    1  A    between atoms: C_5  and  N_6 
REMARK       I    between atoms: N_6  and  C_7 
REMARK    2  A    between atoms: C_7  and  C_8 
REMARK    3  A    between atoms: C_12  and  C_13 
REMARK    4  A    between atoms: C_15  and  O_16 
ROOT
HETATM    1  C   UNL     1     -42.597  55.911 -56.492  1.00  0.00     0.120 A 
HETATM    2  N   UNL     1     -42.058  56.864 -55.674  1.00  0.00    -0.272 N 
HETATM    3  H   UNL     1     -42.085  57.869 -55.813  1.00  0.00     0.189 HD
HETATM    4  N   UNL     1     -41.456  56.374 -54.579  1.00  0.00    -0.174 NA
HETATM    5  C   UNL     1     -41.559  55.041 -54.703  1.00  0.00     0.089 A 
HETATM    6  C   UNL     1     -42.277  54.713 -55.888  1.00  0.00     0.071 A 
ENDROOT
BRANCH   1   7
HETATM    7  C   UNL     1     -43.304  56.260 -57.695  1.00  0.00     0.270 C 
HETATM    8  N   UNL     1     -43.414  57.612 -57.930  1.00  0.00    -0.351 N 
HETATM    9  H   UNL     1     -42.870  58.238 -57.354  1.00  0.00     0.163 HD
HETATM   10  O   UNL     1     -43.759  55.411 -58.453  1.00  0.00    -0.266 OA
BRANCH   8  11
HETATM   11  C   UNL     1     -44.011  58.146 -59.149  1.00  0.00     0.084 C 
HETATM   12  C   UNL     1     -44.160  59.669 -59.050  1.00  0.00     0.025 C 
HETATM   13  C   UNL     1     -42.822  60.407 -59.152  1.00  0.00     0.006 C 
HETATM   14  C   UNL     1     -42.001  60.004 -60.385  1.00  0.00    -0.019 C 
HETATM   15  C   UNL     1     -42.586  60.599 -61.669  1.00  0.00     0.010 C 
HETATM   16  C   UNL     1     -41.862  58.479 -60.477  1.00  0.00     0.006 C 
HETATM   17  C   UNL     1     -43.202  57.746 -60.390  1.00  0.00     0.025 C 
ENDBRANCH   8  11
ENDBRANCH   1   7
BRANCH   5  18
HETATM   18  C   UNL     1     -40.995  54.125 -53.708  1.00  0.00    -0.003 A 
HETATM   19  C   UNL     1     -40.461  52.886 -54.106  1.00  0.00     0.050 A 
HETATM   20  C   UNL     1     -39.908  52.011 -53.169  1.00  0.00     0.069 A 
HETATM   21  C   UNL     1     -39.895  52.371 -51.820  1.00  0.00     0.037 A 
HETATM   22  C   UNL     1     -40.428  53.591 -51.406  1.00  0.00     0.004 A 
HETATM   23  C   UNL     1     -40.976  54.466 -52.347  1.00  0.00     0.014 A 
BRANCH  20  24
HETATM   24  O   UNL     1     -39.353  50.789 -53.437  1.00  0.00    -0.356 OA
HETATM   25  C   UNL     1     -40.043  49.962 -54.366  1.00  0.00     0.210 C 
ENDBRANCH  20  24
ENDBRANCH   5  18
TORSDOF 4
ENDMDL
MODEL 8
REMARK VINA RESULT:      -7.1      2.065      3.301
REMARK  4 active torsions:
REMARK  status: ('A' for Active; 'I' for Inactive)
REMARK    1  A    between atoms: C_5  and  N_6 
REMARK       I    between atoms: N_6  and  C_7 
REMARK    2  A    between atoms: C_7  and  C_8 
REMARK    3  A    between atoms: C_12  and  C_13 
REMARK    4  A    between atoms: C_15  and  O_16 
ROOT
HETATM    1  C   UNL     1     -43.750  56.421 -55.110  1.00  0.00     0.120 A 
HETATM    2  N   UNL     1     -44.589  55.588 -54.425  1.00  0.00    -0.272 N 
HETATM    3  H   UNL     1     -45.599  55.669 -54.352  1.00  0.00     0.189 HD
HETATM    4  N   UNL     1     -43.973  54.563 -53.816  1.00  0.00    -0.174 NA
HETATM    5  C   UNL     1     -42.668  54.754 -54.069  1.00  0.00     0.089 A 
HETATM    6  C   UNL     1     -42.490  55.906 -54.886  1.00  0.00     0.071 A 
ENDROOT
BRANCH   1   7
HETATM    7  C   UNL     1     -44.245  57.554 -55.844  1.00  0.00     0.270 C 
HETATM    8  N   UNL     1     -43.700  57.715 -57.098  1.00  0.00    -0.351 N 
HETATM    9  H   UNL     1     -43.137  56.964 -57.468  1.00  0.00     0.163 HD
HETATM   10  O   UNL     1     -45.097  58.307 -55.385  1.00  0.00    -0.266 OA
BRANCH   8  11
HETATM   11  C   UNL     1     -44.154  58.751 -58.019  1.00  0.00     0.084 C 
HETATM   12  C   UNL     1     -43.151  59.910 -58.056  1.00  0.00     0.025 C 
HETATM   13  C   UNL     1     -41.854  59.555 -58.790  1.00  0.00     0.006 C 
HETATM   14  C   UNL     1     -42.092  58.974 -60.191  1.00  0.00    -0.019 C 
HETATM   15  C   UNL     1     -42.520  60.059 -61.184  1.00  0.00     0.010 C 
HETATM   16  C   UNL     1     -43.099  57.818 -60.144  1.00  0.00     0.006 C 
HETATM   17  C   UNL     1     -44.399  58.182 -59.423  1.00  0.00     0.025 C 
ENDBRANCH   8  11
ENDBRANCH   1   7
BRANCH   5  18
HETATM   18  C   UNL     1     -41.639  53.849 -53.550  1.00  0.00    -0.003 A 
HETATM   19  C   UNL     1     -41.313  53.856 -52.181  1.00  0.00     0.050 A 
HETATM   20  C   UNL     1     -40.344  52.989 -51.672  1.00  0.00     0.069 A 
HETATM   21  C   UNL     1     -39.687  52.112 -52.538  1.00  0.00     0.037 A 
HETATM   22  C   UNL     1     -39.991  52.098 -53.898  1.00  0.00     0.004 A 
HETATM   23  C   UNL     1     -40.964  52.963 -54.402  1.00  0.00     0.014 A 
BRANCH  20  24
HETATM   24  O   UNL     1     -39.951  52.898 -50.364  1.00  0.00    -0.356 OA
HETATM   25  C   UNL     1     -39.934  54.108 -49.616  1.00  0.00     0.210 C 
ENDBRANCH  20  24
ENDBRANCH   5  18
TORSDOF 4
ENDMDL
MODEL 9
REMARK VINA RESULT:      -7.0      2.381      3.131
REMARK  4 active torsions:
REMARK  status: ('A' for Active; 'I' for Inactive)
REMARK    1  A    between atoms: C_5  and  N_6 
REMARK       I    between atoms: N_6  and  C_7 
REMARK    2  A    between atoms: C_7  and  C_8 
REMARK    3  A    between atoms: C_12  and  C_13 
REMARK    4  A    between atoms: C_15  and  O_16 
ROOT
HETATM    1  C   UNL     1     -42.860  56.134 -56.331  1.00  0.00     0.120 A 
HETATM    2  N   UNL     1     -43.194  54.816 -56.204  1.00  0.00    -0.272 N 
HETATM    3  H   UNL     1     -43.564  54.210 -56.931  1.00  0.00     0.189 HD
HETATM    4  N   UNL     1     -42.981  54.308 -54.981  1.00  0.00    -0.174 NA
HETATM    5  C   UNL     1     -42.532  55.346 -54.256  1.00  0.00     0.089 A 
HETATM    6  C   UNL     1     -42.434  56.508 -55.073  1.00  0.00     0.071 A 
ENDROOT
BRANCH   1   7
HETATM    7  C   UNL     1     -42.997  56.831 -57.582  1.00  0.00     0.270 C 
HETATM    8  N   UNL     1     -44.081  56.451 -58.341  1.00  0.00    -0.351 N 
HETATM    9  H   UNL     1     -44.771  55.852 -57.912  1.00  0.00     0.163 HD
HETATM   10  O   UNL     1     -42.211  57.705 -57.931  1.00  0.00    -0.266 OA
BRANCH   8  11
HETATM   11  C   UNL     1     -44.432  57.118 -59.590  1.00  0.00     0.084 C 
HETATM   12  C   UNL     1     -44.684  56.085 -60.695  1.00  0.00     0.025 C 
HETATM   13  C   UNL     1     -45.998  55.320 -60.509  1.00  0.00     0.006 C 
HETATM   14  C   UNL     1     -47.211  56.242 -60.316  1.00  0.00    -0.019 C 
HETATM   15  C   UNL     1     -47.624  56.911 -61.630  1.00  0.00     0.010 C 
HETATM   16  C   UNL     1     -46.948  57.273 -59.211  1.00  0.00     0.006 C 
HETATM   17  C   UNL     1     -45.642  58.045 -59.408  1.00  0.00     0.025 C 
ENDBRANCH   8  11
ENDBRANCH   1   7
BRANCH   5  18
HETATM   18  C   UNL     1     -42.200  55.212 -52.835  1.00  0.00    -0.003 A 
HETATM   19  C   UNL     1     -41.707  56.316 -52.116  1.00  0.00     0.050 A 
HETATM   20  C   UNL     1     -41.401  56.205 -50.758  1.00  0.00     0.069 A 
HETATM   21  C   UNL     1     -41.579  54.979 -50.113  1.00  0.00     0.037 A 
HETATM   22  C   UNL     1     -42.058  53.873 -50.813  1.00  0.00     0.004 A 
HETATM   23  C   UNL     1     -42.368  53.989 -52.170  1.00  0.00     0.014 A 
BRANCH  20  24
HETATM   24  O   UNL     1     -40.926  57.207 -49.954  1.00  0.00    -0.356 OA
HETATM   25  C   UNL     1     -40.976  58.527 -50.481  1.00  0.00     0.210 C 
ENDBRANCH  20  24
ENDBRANCH   5  18
TORSDOF 4
ENDMDL
MODEL 10
REMARK VINA RESULT:      -7.0      1.363      1.673
REMARK  4 active torsions:
REMARK  status: ('A' for Active; 'I' for Inactive)
REMARK    1  A    between atoms: C_5  and  N_6 
REMARK       I    between atoms: N_6  and  C_7 
REMARK    2  A    between atoms: C_7  and  C_8 
REMARK    3  A    between atoms: C_12  and  C_13 
REMARK    4  A    between atoms: C_15  and  O_16 
ROOT
HETATM    1  C   UNL     1     -42.246  56.542 -56.101  1.00  0.00     0.120 A 
HETATM    2  N   UNL     1     -42.133  55.201 -56.333  1.00  0.00    -0.272 N 
HETATM    3  H   UNL     1     -42.285  54.723 -57.217  1.00  0.00     0.189 HD
HETATM    4  N   UNL     1     -41.765  54.484 -55.261  1.00  0.00    -0.174 NA
HETATM    5  C   UNL     1     -41.678  55.382 -54.266  1.00  0.00     0.089 A 
HETATM    6  C   UNL     1     -41.966  56.687 -54.758  1.00  0.00     0.071 A 
ENDROOT
BRANCH   1   7
HETATM    7  C   UNL     1     -42.604  57.463 -57.147  1.00  0.00     0.270 C 
HETATM    8  N   UNL     1     -43.534  56.987 -58.044  1.00  0.00    -0.351 N 
HETATM    9  H   UNL     1     -44.005  56.122 -57.822  1.00  0.00     0.163 HD
HETATM   10  O   UNL     1     -42.123  58.588 -57.217  1.00  0.00    -0.266 OA
BRANCH   8  11
HETATM   11  C   UNL     1     -44.086  57.816 -59.109  1.00  0.00     0.084 C 
HETATM   12  C   UNL     1     -44.298  56.983 -60.380  1.00  0.00     0.025 C 
HETATM   13  C   UNL     1     -45.475  56.009 -60.265  1.00  0.00     0.006 C 
HETATM   14  C   UNL     1     -46.777  56.685 -59.813  1.00  0.00    -0.019 C 
HETATM   15  C   UNL     1     -47.397  57.519 -60.937  1.00  0.00     0.010 C 
HETATM   16  C   UNL     1     -46.553  57.518 -58.544  1.00  0.00     0.006 C 
HETATM   17  C   UNL     1     -45.387  58.500 -58.668  1.00  0.00     0.025 C 
ENDBRANCH   8  11
ENDBRANCH   1   7
BRANCH   5  18
HETATM   18  C   UNL     1     -41.320  54.993 -52.900  1.00  0.00    -0.003 A 
HETATM   19  C   UNL     1     -40.901  53.678 -52.624  1.00  0.00     0.050 A 
HETATM   20  C   UNL     1     -40.544  53.299 -51.329  1.00  0.00     0.069 A 
HETATM   21  C   UNL     1     -40.613  54.237 -50.296  1.00  0.00     0.037 A 
HETATM   22  C   UNL     1     -41.034  55.541 -50.550  1.00  0.00     0.004 A 
HETATM   23  C   UNL     1     -41.386  55.918 -51.847  1.00  0.00     0.014 A 
BRANCH  20  24
HETATM   24  O   UNL     1     -40.114  52.058 -50.942  1.00  0.00    -0.356 OA
HETATM   25  C   UNL     1     -39.355  51.319 -51.891  1.00  0.00     0.210 C 
ENDBRANCH  20  24
ENDBRANCH   5  18
TORSDOF 4
ENDMDL
