MODEL 1
REMARK VINA RESULT:      -8.8      0.000      0.000
REMARK  10 active torsions:
REMARK  status: ('A' for Active; 'I' for Inactive)
REMARK    1  A    between atoms: C_2  and  C_3 
REMARK    2  A    between atoms: C_3  and  C_4 
REMARK    3  A    between atoms: N_7  and  C_9 
REMARK    4  A    between atoms: C_9  and  C_10 
REMARK    5  A    between atoms: C_12  and  O_13 
REMARK    6  A    between atoms: O_13  and  C_14 
REMARK    7  A    between atoms: C_16  and  O_17 
REMARK    8  A    between atoms: N_25  and  C_26 
REMARK    9  A    between atoms: C_26  and  C_27 
REMARK   10  A    between atoms: C_27  and  C_28 
ROOT
HETATM    1  C   UNL     1     -42.913  56.049 -52.094  1.00  0.00     0.026 C 
HETATM    2  C   UNL     1     -42.259  56.701 -50.855  1.00  0.00     0.035 C 
HETATM    3  C   UNL     1     -41.142  55.883 -50.217  1.00  0.00     0.235 C 
HETATM    4  N   UNL     1     -41.629  54.493 -49.890  1.00  0.00    -0.067 N 
HETATM    5  H   UNL     1     -42.331  54.597 -49.147  1.00  0.00     0.280 HD
HETATM    6  C   UNL     1     -42.280  53.786 -51.053  1.00  0.00     0.235 C 
HETATM    7  C   UNL     1     -43.371  54.638 -51.682  1.00  0.00     0.035 C 
ENDROOT
BRANCH   1   8
HETATM    8  C   UNL     1     -42.079  56.139 -53.427  1.00  0.00     0.119 A 
HETATM    9  N   UNL     1     -41.294  57.347 -53.506  1.00  0.00    -0.324 N 
HETATM   10  C   UNL     1     -41.745  58.200 -54.490  1.00  0.00     0.326 A 
HETATM   11  H   UNL     1     -40.348  57.475 -53.167  1.00  0.00     0.165 HD
HETATM   12  O   UNL     1     -41.259  59.303 -54.663  1.00  0.00    -0.247 OA
HETATM   13  N   UNL     1     -42.803  57.629 -55.121  1.00  0.00    -0.268 N 
HETATM   14  C   UNL     1     -43.062  56.391 -54.594  1.00  0.00     0.256 A 
HETATM   15  O   UNL     1     -43.966  55.634 -54.914  1.00  0.00    -0.270 OA
BRANCH   8  16
HETATM   16  C   UNL     1     -41.227  54.884 -53.689  1.00  0.00     0.037 C 
HETATM   17  C   UNL     1     -40.244  55.003 -54.853  1.00  0.00     0.008 C 
ENDBRANCH   8  16
BRANCH  13  18
HETATM   18  C   UNL     1     -43.661  58.303 -56.083  1.00  0.00     0.142 C 
BRANCH  18  19
HETATM   19  C   UNL     1     -44.239  57.381 -57.160  1.00  0.00     0.068 C 
BRANCH  19  20
HETATM   20  C   UNL     1     -43.327  57.315 -58.346  1.00  0.00     0.010 A 
HETATM   21  S   UNL     1     -42.182  58.563 -58.639  1.00  0.00    -0.085 SA
HETATM   22  C   UNL     1     -41.681  57.753 -60.061  1.00  0.00     0.166 A 
HETATM   23  N   UNL     1     -42.298  56.625 -60.326  1.00  0.00    -0.258 NA
HETATM   24  C   UNL     1     -43.235  56.354 -59.342  1.00  0.00     0.044 A 
HETATM   25  C   UNL     1     -44.031  55.103 -59.456  1.00  0.00     0.071 C 
ENDBRANCH  19  20
ENDBRANCH  18  19
ENDBRANCH  13  18
ENDBRANCH   1   8
BRANCH   4  26
HETATM   26  C   UNL     1     -40.529  53.608 -49.312  1.00  0.00     0.273 C 
BRANCH  26  27
HETATM   27  C   UNL     1     -40.229  52.351 -50.082  1.00  0.00    -0.030 A 
HETATM   28  C   UNL     1     -39.748  52.441 -51.405  1.00  0.00     0.048 A 
HETATM   29  C   UNL     1     -39.468  51.289 -52.141  1.00  0.00     0.102 A 
HETATM   30  C   UNL     1     -39.637  50.045 -51.530  1.00  0.00     0.099 A 
HETATM   31  C   UNL     1     -40.114  49.932 -50.231  1.00  0.00     0.040 A 
HETATM   32  C   UNL     1     -40.425  51.084 -49.507  1.00  0.00     0.012 A 
BRANCH  29  33
HETATM   33  O   UNL     1     -39.014  51.250 -53.432  1.00  0.00    -0.349 OA
BRANCH  33  34
HETATM   34  C   UNL     1     -39.986  51.448 -54.461  1.00  0.00     0.171 C 
HETATM   35  C   UNL     1     -40.690  50.126 -54.706  1.00  0.00     0.034 C 
ENDBRANCH  33  34
ENDBRANCH  29  33
BRANCH  30  36
HETATM   36  O   UNL     1     -39.346  48.895 -52.208  1.00  0.00    -0.358 OA
HETATM   37  H   UNL     1     -38.416  48.683 -51.990  1.00  0.00     0.218 HD
ENDBRANCH  30  36
ENDBRANCH  26  27
ENDBRANCH   4  26
TORSDOF 10
ENDMDL
MODEL 2
REMARK VINA RESULT:      -8.7      3.139      7.956
REMARK  10 active torsions:
REMARK  status: ('A' for Active; 'I' for Inactive)
REMARK    1  A    between atoms: C_2  and  C_3 
REMARK    2  A    between atoms: C_3  and  C_4 
REMARK    3  A    between atoms: N_7  and  C_9 
REMARK    4  A    between atoms: C_9  and  C_10 
REMARK    5  A    between atoms: C_12  and  O_13 
REMARK    6  A    between atoms: O_13  and  C_14 
REMARK    7  A    between atoms: C_16  and  O_17 
REMARK    8  A    between atoms: N_25  and  C_26 
REMARK    9  A    between atoms: C_26  and  C_27 
REMARK   10  A    between atoms: C_27  and  C_28 
ROOT
HETATM    1  C   UNL     1     -43.698  57.624 -52.841  1.00  0.00     0.026 C 
HETATM    2  C   UNL     1     -44.670  56.914 -53.810  1.00  0.00     0.035 C 
HETATM    3  C   UNL     1     -44.650  57.445 -55.238  1.00  0.00     0.235 C 
HETATM    4  N   UNL     1     -44.882  58.935 -55.251  1.00  0.00    -0.067 N 
HETATM    5  H   UNL     1     -45.849  59.082 -54.933  1.00  0.00     0.280 HD
HETATM    6  C   UNL     1     -43.966  59.702 -54.329  1.00  0.00     0.235 C 
HETATM    7  C   UNL     1     -43.991  59.133 -52.919  1.00  0.00     0.035 C 
ENDROOT
BRANCH   1   8
HETATM    8  C   UNL     1     -42.184  57.210 -52.978  1.00  0.00     0.119 A 
HETATM    9  N   UNL     1     -41.777  57.054 -54.352  1.00  0.00    -0.324 N 
HETATM   10  C   UNL     1     -41.495  55.741 -54.669  1.00  0.00     0.326 A 
HETATM   11  H   UNL     1     -41.404  57.776 -54.958  1.00  0.00     0.165 HD
HETATM   12  O   UNL     1     -41.206  55.396 -55.800  1.00  0.00    -0.247 OA
HETATM   13  N   UNL     1     -41.666  54.973 -53.562  1.00  0.00    -0.268 N 
HETATM   14  C   UNL     1     -42.039  55.747 -52.496  1.00  0.00     0.256 A 
HETATM   15  O   UNL     1     -42.304  55.360 -51.367  1.00  0.00    -0.270 OA
BRANCH   8  16
HETATM   16  C   UNL     1     -41.233  58.140 -52.201  1.00  0.00     0.037 C 
HETATM   17  C   UNL     1     -40.188  58.854 -53.057  1.00  0.00     0.008 C 
ENDBRANCH   8  16
BRANCH  13  18
HETATM   18  C   UNL     1     -41.649  53.519 -53.549  1.00  0.00     0.142 C 
BRANCH  18  19
HETATM   19  C   UNL     1     -40.278  52.907 -53.853  1.00  0.00     0.068 C 
BRANCH  19  20
HETATM   20  C   UNL     1     -40.011  51.736 -52.958  1.00  0.00     0.010 A 
HETATM   21  S   UNL     1     -39.968  51.933 -51.250  1.00  0.00    -0.085 SA
HETATM   22  C   UNL     1     -39.598  50.271 -51.081  1.00  0.00     0.166 A 
HETATM   23  N   UNL     1     -39.511  49.585 -52.198  1.00  0.00    -0.258 NA
HETATM   24  C   UNL     1     -39.759  50.411 -53.282  1.00  0.00     0.044 A 
HETATM   25  C   UNL     1     -39.723  49.813 -54.642  1.00  0.00     0.071 C 
ENDBRANCH  19  20
ENDBRANCH  18  19
ENDBRANCH  13  18
ENDBRANCH   1   8
BRANCH   4  26
HETATM   26  C   UNL     1     -44.801  59.530 -56.653  1.00  0.00     0.273 C 
BRANCH  26  27
HETATM   27  C   UNL     1     -43.957  58.768 -57.639  1.00  0.00    -0.030 A 
HETATM   28  C   UNL     1     -44.581  58.022 -58.661  1.00  0.00     0.048 A 
HETATM   29  C   UNL     1     -43.820  57.303 -59.584  1.00  0.00     0.102 A 
HETATM   30  C   UNL     1     -42.428  57.367 -59.499  1.00  0.00     0.099 A 
HETATM   31  C   UNL     1     -41.793  58.090 -58.497  1.00  0.00     0.040 A 
HETATM   32  C   UNL     1     -42.556  58.782 -57.556  1.00  0.00     0.012 A 
BRANCH  29  33
HETATM   33  O   UNL     1     -44.310  56.534 -60.605  1.00  0.00    -0.349 OA
BRANCH  33  34
HETATM   34  C   UNL     1     -45.246  55.514 -60.248  1.00  0.00     0.171 C 
HETATM   35  C   UNL     1     -44.475  54.362 -59.629  1.00  0.00     0.034 C 
ENDBRANCH  33  34
ENDBRANCH  29  33
BRANCH  30  36
HETATM   36  O   UNL     1     -41.647  56.700 -60.401  1.00  0.00    -0.358 OA
HETATM   37  H   UNL     1     -40.910  57.305 -60.616  1.00  0.00     0.218 HD
ENDBRANCH  30  36
ENDBRANCH  26  27
ENDBRANCH   4  26
TORSDOF 10
ENDMDL
MODEL 3
REMARK VINA RESULT:      -8.7      3.095      8.347
REMARK  10 active torsions:
REMARK  status: ('A' for Active; 'I' for Inactive)
REMARK    1  A    between atoms: C_2  and  C_3 
REMARK    2  A    between atoms: C_3  and  C_4 
REMARK    3  A    between atoms: N_7  and  C_9 
REMARK    4  A    between atoms: C_9  and  C_10 
REMARK    5  A    between atoms: C_12  and  O_13 
REMARK    6  A    between atoms: O_13  and  C_14 
REMARK    7  A    between atoms: C_16  and  O_17 
REMARK    8  A    between atoms: N_25  and  C_26 
REMARK    9  A    between atoms: C_26  and  C_27 
REMARK   10  A    between atoms: C_27  and  C_28 
ROOT
HETATM    1  C   UNL     1     -43.755  57.573 -52.985  1.00  0.00     0.026 C 
HETATM    2  C   UNL     1     -44.346  56.626 -54.053  1.00  0.00     0.035 C 
HETATM    3  C   UNL     1     -43.805  56.834 -55.462  1.00  0.00     0.235 C 
HETATM    4  N   UNL     1     -43.967  58.275 -55.882  1.00  0.00    -0.067 N 
HETATM    5  H   UNL     1     -44.978  58.442 -55.965  1.00  0.00     0.280 HD
HETATM    6  C   UNL     1     -43.409  59.265 -54.889  1.00  0.00     0.235 C 
HETATM    7  C   UNL     1     -43.950  59.014 -53.489  1.00  0.00     0.035 C 
ENDROOT
BRANCH   1   8
HETATM    8  C   UNL     1     -42.305  57.210 -52.486  1.00  0.00     0.119 A 
HETATM    9  N   UNL     1     -41.393  56.962 -53.576  1.00  0.00    -0.324 N 
HETATM   10  C   UNL     1     -41.003  55.641 -53.641  1.00  0.00     0.326 A 
HETATM   11  H   UNL     1     -40.817  57.648 -54.050  1.00  0.00     0.165 HD
HETATM   12  O   UNL     1     -40.293  55.219 -54.536  1.00  0.00    -0.247 OA
HETATM   13  N   UNL     1     -41.588  54.956 -52.625  1.00  0.00    -0.268 N 
HETATM   14  C   UNL     1     -42.351  55.796 -51.859  1.00  0.00     0.256 A 
HETATM   15  O   UNL     1     -43.033  55.489 -50.893  1.00  0.00    -0.270 OA
BRANCH   8  16
HETATM   16  C   UNL     1     -41.738  58.235 -51.486  1.00  0.00     0.037 C 
HETATM   17  C   UNL     1     -40.348  58.768 -51.828  1.00  0.00     0.008 C 
ENDBRANCH   8  16
BRANCH  13  18
HETATM   18  C   UNL     1     -41.568  53.509 -52.478  1.00  0.00     0.142 C 
BRANCH  18  19
HETATM   19  C   UNL     1     -40.221  52.945 -52.018  1.00  0.00     0.068 C 
BRANCH  19  20
HETATM   20  C   UNL     1     -39.935  51.640 -52.696  1.00  0.00     0.010 A 
HETATM   21  S   UNL     1     -39.865  51.541 -54.411  1.00  0.00    -0.085 SA
HETATM   22  C   UNL     1     -39.568  49.861 -54.289  1.00  0.00     0.166 A 
HETATM   23  N   UNL     1     -39.512  49.374 -53.071  1.00  0.00    -0.258 NA
HETATM   24  C   UNL     1     -39.707  50.387 -52.146  1.00  0.00     0.044 A 
HETATM   25  C   UNL     1     -39.663  50.036 -50.702  1.00  0.00     0.071 C 
ENDBRANCH  19  20
ENDBRANCH  18  19
ENDBRANCH  13  18
ENDBRANCH   1   8
BRANCH   4  26
HETATM   26  C   UNL     1     -43.376  58.554 -57.260  1.00  0.00     0.273 C 
BRANCH  26  27
HETATM   27  C   UNL     1     -43.747  57.576 -58.341  1.00  0.00    -0.030 A 
HETATM   28  C   UNL     1     -45.099  57.436 -58.722  1.00  0.00     0.048 A 
HETATM   29  C   UNL     1     -45.468  56.532 -59.718  1.00  0.00     0.102 A 
HETATM   30  C   UNL     1     -44.471  55.795 -60.358  1.00  0.00     0.099 A 
HETATM   31  C   UNL     1     -43.135  55.911 -59.996  1.00  0.00     0.040 A 
HETATM   32  C   UNL     1     -42.771  56.792 -58.977  1.00  0.00     0.012 A 
BRANCH  29  33
HETATM   33  O   UNL     1     -46.743  56.300 -60.160  1.00  0.00    -0.349 OA
BRANCH  33  34
HETATM   34  C   UNL     1     -47.375  57.358 -60.884  1.00  0.00     0.171 C 
HETATM   35  C   UNL     1     -48.148  56.745 -62.037  1.00  0.00     0.034 C 
ENDBRANCH  33  34
ENDBRANCH  29  33
BRANCH  30  36
HETATM   36  O   UNL     1     -44.789  54.920 -61.358  1.00  0.00    -0.358 OA
HETATM   37  H   UNL     1     -45.490  55.355 -61.882  1.00  0.00     0.218 HD
ENDBRANCH  30  36
ENDBRANCH  26  27
ENDBRANCH   4  26
TORSDOF 10
ENDMDL
MODEL 4
REMARK VINA RESULT:      -8.7      2.956      8.095
REMARK  10 active torsions:
REMARK  status: ('A' for Active; 'I' for Inactive)
REMARK    1  A    between atoms: C_2  and  C_3 
REMARK    2  A    between atoms: C_3  and  C_4 
REMARK    3  A    between atoms: N_7  and  C_9 
REMARK    4  A    between atoms: C_9  and  C_10 
REMARK    5  A    between atoms: C_12  and  O_13 
REMARK    6  A    between atoms: O_13  and  C_14 
REMARK    7  A    between atoms: C_16  and  O_17 
REMARK    8  A    between atoms: N_25  and  C_26 
REMARK    9  A    between atoms: C_26  and  C_27 
REMARK   10  A    between atoms: C_27  and  C_28 
ROOT
HETATM    1  C   UNL     1     -43.389  57.716 -51.748  1.00  0.00     0.026 C 
HETATM    2  C   UNL     1     -44.253  56.934 -52.762  1.00  0.00     0.035 C 
HETATM    3  C   UNL     1     -44.003  57.290 -54.223  1.00  0.00     0.235 C 
HETATM    4  N   UNL     1     -44.149  58.776 -54.437  1.00  0.00    -0.067 N 
HETATM    5  H   UNL     1     -45.141  58.997 -54.282  1.00  0.00     0.280 HD
HETATM    6  C   UNL     1     -43.331  59.612 -53.482  1.00  0.00     0.235 C 
HETATM    7  C   UNL     1     -43.585  59.215 -52.036  1.00  0.00     0.035 C 
ENDROOT
BRANCH   1   8
HETATM    8  C   UNL     1     -41.896  57.232 -51.614  1.00  0.00     0.119 A 
HETATM    9  N   UNL     1     -41.251  57.074 -52.895  1.00  0.00    -0.324 N 
HETATM   10  C   UNL     1     -40.976  55.754 -53.182  1.00  0.00     0.326 A 
HETATM   11  H   UNL     1     -40.741  57.785 -53.406  1.00  0.00     0.165 HD
HETATM   12  O   UNL     1     -40.499  55.409 -54.248  1.00  0.00    -0.247 OA
HETATM   13  N   UNL     1     -41.381  54.980 -52.143  1.00  0.00    -0.268 N 
HETATM   14  C   UNL     1     -41.908  55.758 -51.146  1.00  0.00     0.256 A 
HETATM   15  O   UNL     1     -42.393  55.369 -50.093  1.00  0.00    -0.270 OA
BRANCH   8  16
HETATM   16  C   UNL     1     -41.063  58.105 -50.657  1.00  0.00     0.037 C 
HETATM   17  C   UNL     1     -39.979  58.945 -51.329  1.00  0.00     0.008 C 
ENDBRANCH   8  16
BRANCH  13  18
HETATM   18  C   UNL     1     -41.432  53.527 -52.158  1.00  0.00     0.142 C 
BRANCH  18  19
HETATM   19  C   UNL     1     -40.102  52.851 -51.812  1.00  0.00     0.068 C 
BRANCH  19  20
HETATM   20  C   UNL     1     -39.911  51.610 -52.628  1.00  0.00     0.010 A 
HETATM   21  S   UNL     1     -40.027  51.664 -54.343  1.00  0.00    -0.085 SA
HETATM   22  C   UNL     1     -39.745  49.978 -54.403  1.00  0.00     0.166 A 
HETATM   23  N   UNL     1     -39.566  49.384 -53.246  1.00  0.00    -0.258 NA
HETATM   24  C   UNL     1     -39.644  50.311 -52.219  1.00  0.00     0.044 A 
HETATM   25  C   UNL     1     -39.451  49.833 -50.825  1.00  0.00     0.071 C 
ENDBRANCH  19  20
ENDBRANCH  18  19
ENDBRANCH  13  18
ENDBRANCH   1   8
BRANCH   4  26
HETATM   26  C   UNL     1     -43.839  59.196 -55.870  1.00  0.00     0.273 C 
BRANCH  26  27
HETATM   27  C   UNL     1     -44.711  58.587 -56.933  1.00  0.00    -0.030 A 
HETATM   28  C   UNL     1     -44.121  57.854 -57.985  1.00  0.00     0.048 A 
HETATM   29  C   UNL     1     -44.909  57.284 -58.986  1.00  0.00     0.102 A 
HETATM   30  C   UNL     1     -46.295  57.421 -58.907  1.00  0.00     0.099 A 
HETATM   31  C   UNL     1     -46.898  58.143 -57.885  1.00  0.00     0.040 A 
HETATM   32  C   UNL     1     -46.107  58.740 -56.902  1.00  0.00     0.012 A 
BRANCH  29  33
HETATM   33  O   UNL     1     -44.450  56.568 -60.059  1.00  0.00    -0.349 OA
BRANCH  33  34
HETATM   34  C   UNL     1     -43.629  55.434 -59.771  1.00  0.00     0.171 C 
HETATM   35  C   UNL     1     -44.533  54.227 -59.601  1.00  0.00     0.034 C 
ENDBRANCH  33  34
ENDBRANCH  29  33
BRANCH  30  36
HETATM   36  O   UNL     1     -47.103  56.854 -59.852  1.00  0.00    -0.358 OA
HETATM   37  H   UNL     1     -47.898  57.421 -59.900  1.00  0.00     0.218 HD
ENDBRANCH  30  36
ENDBRANCH  26  27
ENDBRANCH   4  26
TORSDOF 10
ENDMDL
MODEL 5
REMARK VINA RESULT:      -8.4      4.038      6.487
REMARK  10 active torsions:
REMARK  status: ('A' for Active; 'I' for Inactive)
REMARK    1  A    between atoms: C_2  and  C_3 
REMARK    2  A    between atoms: C_3  and  C_4 
REMARK    3  A    between atoms: N_7  and  C_9 
REMARK    4  A    between atoms: C_9  and  C_10 
REMARK    5  A    between atoms: C_12  and  O_13 
REMARK    6  A    between atoms: O_13  and  C_14 
REMARK    7  A    between atoms: C_16  and  O_17 
REMARK    8  A    between atoms: N_25  and  C_26 
REMARK    9  A    between atoms: C_26  and  C_27 
REMARK   10  A    between atoms: C_27  and  C_28 
ROOT
HETATM    1  C   UNL     1     -43.678  56.321 -53.834  1.00  0.00     0.026 C 
HETATM    2  C   UNL     1     -43.859  54.830 -54.196  1.00  0.00     0.035 C 
HETATM    3  C   UNL     1     -42.578  54.003 -54.162  1.00  0.00     0.235 C 
HETATM    4  N   UNL     1     -41.519  54.635 -55.031  1.00  0.00    -0.067 N 
HETATM    5  H   UNL     1     -41.853  54.557 -56.000  1.00  0.00     0.280 HD
HETATM    6  C   UNL     1     -41.281  56.096 -54.735  1.00  0.00     0.235 C 
HETATM    7  C   UNL     1     -42.580  56.887 -54.752  1.00  0.00     0.035 C 
ENDROOT
BRANCH   1   8
HETATM    8  C   UNL     1     -43.515  56.629 -52.298  1.00  0.00     0.119 A 
HETATM    9  N   UNL     1     -44.783  56.783 -51.628  1.00  0.00    -0.324 N 
HETATM   10  C   UNL     1     -44.998  58.078 -51.206  1.00  0.00     0.326 A 
HETATM   11  H   UNL     1     -45.330  56.048 -51.195  1.00  0.00     0.165 HD
HETATM   12  O   UNL     1     -46.043  58.423 -50.686  1.00  0.00    -0.247 OA
HETATM   13  N   UNL     1     -43.920  58.835 -51.533  1.00  0.00    -0.268 N 
HETATM   14  C   UNL     1     -42.967  58.068 -52.151  1.00  0.00     0.256 A 
HETATM   15  O   UNL     1     -41.897  58.452 -52.599  1.00  0.00    -0.270 OA
BRANCH   8  16
HETATM   16  C   UNL     1     -42.604  55.620 -51.574  1.00  0.00     0.037 C 
HETATM   17  C   UNL     1     -43.316  54.706 -50.579  1.00  0.00     0.008 C 
ENDBRANCH   8  16
BRANCH  13  18
HETATM   18  C   UNL     1     -43.857  60.283 -51.423  1.00  0.00     0.142 C 
BRANCH  18  19
HETATM   19  C   UNL     1     -43.399  60.787 -50.051  1.00  0.00     0.068 C 
BRANCH  19  20
HETATM   20  C   UNL     1     -44.468  61.617 -49.408  1.00  0.00     0.010 A 
HETATM   21  S   UNL     1     -45.459  60.956 -48.167  1.00  0.00    -0.085 SA
HETATM   22  C   UNL     1     -46.314  62.436 -48.081  1.00  0.00     0.166 A 
HETATM   23  N   UNL     1     -45.911  63.380 -48.900  1.00  0.00    -0.258 NA
HETATM   24  C   UNL     1     -44.843  62.928 -49.657  1.00  0.00     0.044 A 
HETATM   25  C   UNL     1     -44.233  63.864 -50.638  1.00  0.00     0.071 C 
ENDBRANCH  19  20
ENDBRANCH  18  19
ENDBRANCH  13  18
ENDBRANCH   1   8
BRANCH   4  26
HETATM   26  C   UNL     1     -40.192  53.886 -54.977  1.00  0.00     0.273 C 
BRANCH  26  27
HETATM   27  C   UNL     1     -40.062  52.864 -53.880  1.00  0.00    -0.030 A 
HETATM   28  C   UNL     1     -40.156  53.271 -52.532  1.00  0.00     0.048 A 
HETATM   29  C   UNL     1     -40.033  52.343 -51.498  1.00  0.00     0.102 A 
HETATM   30  C   UNL     1     -39.852  50.998 -51.822  1.00  0.00     0.099 A 
HETATM   31  C   UNL     1     -39.751  50.575 -53.141  1.00  0.00     0.040 A 
HETATM   32  C   UNL     1     -39.842  51.509 -54.174  1.00  0.00     0.012 A 
BRANCH  29  33
HETATM   33  O   UNL     1     -40.092  52.620 -50.158  1.00  0.00    -0.349 OA
BRANCH  33  34
HETATM   34  C   UNL     1     -39.763  53.954 -49.764  1.00  0.00     0.171 C 
HETATM   35  C   UNL     1     -40.325  54.187 -48.373  1.00  0.00     0.034 C 
ENDBRANCH  33  34
ENDBRANCH  29  33
BRANCH  30  36
HETATM   36  O   UNL     1     -39.756  50.054 -50.838  1.00  0.00    -0.358 OA
HETATM   37  H   UNL     1     -39.392  50.518 -50.058  1.00  0.00     0.218 HD
ENDBRANCH  30  36
ENDBRANCH  26  27
ENDBRANCH   4  26
TORSDOF 10
ENDMDL
MODEL 6
REMARK VINA RESULT:      -8.3      1.515      2.164
REMARK  10 active torsions:
REMARK  status: ('A' for Active; 'I' for Inactive)
REMARK    1  A    between atoms: C_2  and  C_3 
REMARK    2  A    between atoms: C_3  and  C_4 
REMARK    3  A    between atoms: N_7  and  C_9 
REMARK    4  A    between atoms: C_9  and  C_10 
REMARK    5  A    between atoms: C_12  and  O_13 
REMARK    6  A    between atoms: O_13  and  C_14 
REMARK    7  A    between atoms: C_16  and  O_17 
REMARK    8  A    between atoms: N_25  and  C_26 
REMARK    9  A    between atoms: C_26  and  C_27 
REMARK   10  A    between atoms: C_27  and  C_28 
ROOT
HETATM    1  C   UNL     1     -43.359  55.920 -51.302  1.00  0.00     0.026 C 
HETATM    2  C   UNL     1     -42.369  56.539 -50.290  1.00  0.00     0.035 C 
HETATM    3  C   UNL     1     -41.148  55.680 -49.982  1.00  0.00     0.235 C 
HETATM    4  N   UNL     1     -41.571  54.303 -49.535  1.00  0.00    -0.067 N 
HETATM    5  H   UNL     1     -42.040  54.422 -48.628  1.00  0.00     0.280 HD
HETATM    6  C   UNL     1     -42.539  53.628 -50.476  1.00  0.00     0.235 C 
HETATM    7  C   UNL     1     -43.733  54.520 -50.782  1.00  0.00     0.035 C 
ENDROOT
BRANCH   1   8
HETATM    8  C   UNL     1     -42.920  55.996 -52.813  1.00  0.00     0.119 A 
HETATM    9  N   UNL     1     -41.517  56.298 -52.965  1.00  0.00    -0.324 N 
HETATM   10  C   UNL     1     -41.307  57.547 -53.510  1.00  0.00     0.326 A 
HETATM   11  H   UNL     1     -40.757  55.630 -53.008  1.00  0.00     0.165 HD
HETATM   12  O   UNL     1     -40.191  58.013 -53.649  1.00  0.00    -0.247 OA
HETATM   13  N   UNL     1     -42.509  58.124 -53.770  1.00  0.00    -0.268 N 
HETATM   14  C   UNL     1     -43.530  57.277 -53.428  1.00  0.00     0.256 A 
HETATM   15  O   UNL     1     -44.727  57.507 -53.503  1.00  0.00    -0.270 OA
BRANCH   8  16
HETATM   16  C   UNL     1     -43.328  54.751 -53.622  1.00  0.00     0.037 C 
HETATM   17  C   UNL     1     -43.394  54.959 -55.135  1.00  0.00     0.008 C 
ENDBRANCH   8  16
BRANCH  13  18
HETATM   18  C   UNL     1     -42.696  59.510 -54.169  1.00  0.00     0.142 C 
BRANCH  18  19
HETATM   19  C   UNL     1     -42.358  59.790 -55.636  1.00  0.00     0.068 C 
BRANCH  19  20
HETATM   20  C   UNL     1     -43.203  58.949 -56.544  1.00  0.00     0.010 A 
HETATM   21  S   UNL     1     -42.492  57.710 -57.500  1.00  0.00    -0.085 SA
HETATM   22  C   UNL     1     -44.028  57.360 -58.166  1.00  0.00     0.166 A 
HETATM   23  N   UNL     1     -45.026  58.092 -57.725  1.00  0.00    -0.258 NA
HETATM   24  C   UNL     1     -44.568  58.998 -56.783  1.00  0.00     0.044 A 
HETATM   25  C   UNL     1     -45.556  59.911 -56.149  1.00  0.00     0.071 C 
ENDBRANCH  19  20
ENDBRANCH  18  19
ENDBRANCH  13  18
ENDBRANCH   1   8
BRANCH   4  26
HETATM   26  C   UNL     1     -40.385  53.379 -49.282  1.00  0.00     0.273 C 
BRANCH  26  27
HETATM   27  C   UNL     1     -40.171  52.294 -50.302  1.00  0.00    -0.030 A 
HETATM   28  C   UNL     1     -39.920  52.640 -51.647  1.00  0.00     0.048 A 
HETATM   29  C   UNL     1     -39.724  51.651 -52.611  1.00  0.00     0.102 A 
HETATM   30  C   UNL     1     -39.744  50.313 -52.214  1.00  0.00     0.099 A 
HETATM   31  C   UNL     1     -39.995  49.949 -50.897  1.00  0.00     0.040 A 
HETATM   32  C   UNL     1     -40.223  50.938 -49.940  1.00  0.00     0.012 A 
BRANCH  29  33
HETATM   33  O   UNL     1     -39.489  51.863 -53.943  1.00  0.00    -0.349 OA
BRANCH  33  34
HETATM   34  C   UNL     1     -40.510  52.545 -54.675  1.00  0.00     0.171 C 
HETATM   35  C   UNL     1     -39.967  53.901 -55.090  1.00  0.00     0.034 C 
ENDBRANCH  33  34
ENDBRANCH  29  33
BRANCH  30  36
HETATM   36  O   UNL     1     -39.528  49.316 -53.124  1.00  0.00    -0.358 OA
HETATM   37  H   UNL     1     -39.615  49.733 -54.004  1.00  0.00     0.218 HD
ENDBRANCH  30  36
ENDBRANCH  26  27
ENDBRANCH   4  26
TORSDOF 10
ENDMDL
MODEL 7
REMARK VINA RESULT:      -8.3      4.768      7.352
REMARK  10 active torsions:
REMARK  status: ('A' for Active; 'I' for Inactive)
REMARK    1  A    between atoms: C_2  and  C_3 
REMARK    2  A    between atoms: C_3  and  C_4 
REMARK    3  A    between atoms: N_7  and  C_9 
REMARK    4  A    between atoms: C_9  and  C_10 
REMARK    5  A    between atoms: C_12  and  O_13 
REMARK    6  A    between atoms: O_13  and  C_14 
REMARK    7  A    between atoms: C_16  and  O_17 
REMARK    8  A    between atoms: N_25  and  C_26 
REMARK    9  A    between atoms: C_26  and  C_27 
REMARK   10  A    between atoms: C_27  and  C_28 
ROOT
HETATM    1  C   UNL     1     -43.195  59.000 -53.521  1.00  0.00     0.026 C 
HETATM    2  C   UNL     1     -44.530  58.408 -54.026  1.00  0.00     0.035 C 
HETATM    3  C   UNL     1     -44.632  56.890 -53.935  1.00  0.00     0.235 C 
HETATM    4  N   UNL     1     -43.465  56.240 -54.635  1.00  0.00    -0.067 N 
HETATM    5  H   UNL     1     -43.573  56.447 -55.636  1.00  0.00     0.280 HD
HETATM    6  C   UNL     1     -42.121  56.764 -54.193  1.00  0.00     0.235 C 
HETATM    7  C   UNL     1     -42.060  58.281 -54.272  1.00  0.00     0.035 C 
ENDROOT
BRANCH   1   8
HETATM    8  C   UNL     1     -43.040  59.080 -51.955  1.00  0.00     0.119 A 
HETATM    9  N   UNL     1     -44.074  58.353 -51.261  1.00  0.00    -0.324 N 
HETATM   10  C   UNL     1     -44.928  59.188 -50.572  1.00  0.00     0.326 A 
HETATM   11  H   UNL     1     -44.049  57.376 -50.990  1.00  0.00     0.165 HD
HETATM   12  O   UNL     1     -45.908  58.769 -49.983  1.00  0.00    -0.247 OA
HETATM   13  N   UNL     1     -44.519  60.472 -50.737  1.00  0.00    -0.268 N 
HETATM   14  C   UNL     1     -43.390  60.519 -51.509  1.00  0.00     0.256 A 
HETATM   15  O   UNL     1     -42.792  61.521 -51.872  1.00  0.00    -0.270 OA
BRANCH   8  16
HETATM   16  C   UNL     1     -41.634  58.681 -51.469  1.00  0.00     0.037 C 
HETATM   17  C   UNL     1     -41.586  57.434 -50.587  1.00  0.00     0.008 C 
ENDBRANCH   8  16
BRANCH  13  18
HETATM   18  C   UNL     1     -45.274  61.644 -50.321  1.00  0.00     0.142 C 
BRANCH  18  19
HETATM   19  C   UNL     1     -44.673  62.382 -49.121  1.00  0.00     0.068 C 
BRANCH  19  20
HETATM   20  C   UNL     1     -45.725  62.665 -48.093  1.00  0.00     0.010 A 
HETATM   21  S   UNL     1     -46.518  64.190 -48.050  1.00  0.00    -0.085 SA
HETATM   22  C   UNL     1     -47.411  63.672 -46.685  1.00  0.00     0.166 A 
HETATM   23  N   UNL     1     -47.166  62.451 -46.268  1.00  0.00    -0.258 NA
HETATM   24  C   UNL     1     -46.210  61.857 -47.075  1.00  0.00     0.044 A 
HETATM   25  C   UNL     1     -45.807  60.458 -46.772  1.00  0.00     0.071 C 
ENDBRANCH  19  20
ENDBRANCH  18  19
ENDBRANCH  13  18
ENDBRANCH   1   8
BRANCH   4  26
HETATM   26  C   UNL     1     -43.481  54.720 -54.512  1.00  0.00     0.273 C 
BRANCH  26  27
HETATM   27  C   UNL     1     -42.585  54.139 -53.452  1.00  0.00    -0.030 A 
HETATM   28  C   UNL     1     -41.465  53.369 -53.831  1.00  0.00     0.048 A 
HETATM   29  C   UNL     1     -40.623  52.815 -52.866  1.00  0.00     0.102 A 
HETATM   30  C   UNL     1     -40.888  53.069 -51.519  1.00  0.00     0.099 A 
HETATM   31  C   UNL     1     -41.987  53.820 -51.123  1.00  0.00     0.040 A 
HETATM   32  C   UNL     1     -42.847  54.345 -52.089  1.00  0.00     0.012 A 
BRANCH  29  33
HETATM   33  O   UNL     1     -39.520  52.041 -53.110  1.00  0.00    -0.349 OA
BRANCH  33  34
HETATM   34  C   UNL     1     -39.707  50.625 -53.065  1.00  0.00     0.171 C 
HETATM   35  C   UNL     1     -39.803  50.115 -54.491  1.00  0.00     0.034 C 
ENDBRANCH  33  34
ENDBRANCH  29  33
BRANCH  30  36
HETATM   36  O   UNL     1     -40.070  52.569 -50.545  1.00  0.00    -0.358 OA
HETATM   37  H   UNL     1     -39.470  53.300 -50.297  1.00  0.00     0.218 HD
ENDBRANCH  30  36
ENDBRANCH  26  27
ENDBRANCH   4  26
TORSDOF 10
ENDMDL
MODEL 8
REMARK VINA RESULT:      -8.1      2.185      4.224
REMARK  10 active torsions:
REMARK  status: ('A' for Active; 'I' for Inactive)
REMARK    1  A    between atoms: C_2  and  C_3 
REMARK    2  A    between atoms: C_3  and  C_4 
REMARK    3  A    between atoms: N_7  and  C_9 
REMARK    4  A    between atoms: C_9  and  C_10 
REMARK    5  A    between atoms: C_12  and  O_13 
REMARK    6  A    between atoms: O_13  and  C_14 
REMARK    7  A    between atoms: C_16  and  O_17 
REMARK    8  A    between atoms: N_25  and  C_26 
REMARK    9  A    between atoms: C_26  and  C_27 
REMARK   10  A    between atoms: C_27  and  C_28 
ROOT
HETATM    1  C   UNL     1     -43.090  59.467 -52.664  1.00  0.00     0.026 C 
HETATM    2  C   UNL     1     -41.822  59.058 -53.446  1.00  0.00     0.035 C 
HETATM    3  C   UNL     1     -41.918  57.716 -54.163  1.00  0.00     0.235 C 
HETATM    4  N   UNL     1     -42.318  56.629 -53.196  1.00  0.00    -0.067 N 
HETATM    5  H   UNL     1     -41.533  56.518 -52.541  1.00  0.00     0.280 HD
HETATM    6  C   UNL     1     -43.554  56.953 -52.393  1.00  0.00     0.235 C 
HETATM    7  C   UNL     1     -43.436  58.307 -51.712  1.00  0.00     0.035 C 
ENDROOT
BRANCH   1   8
HETATM    8  C   UNL     1     -44.279  60.015 -53.539  1.00  0.00     0.119 A 
HETATM    9  N   UNL     1     -45.126  58.961 -54.040  1.00  0.00    -0.324 N 
HETATM   10  C   UNL     1     -45.034  58.821 -55.409  1.00  0.00     0.326 A 
HETATM   11  H   UNL     1     -45.940  58.569 -53.580  1.00  0.00     0.165 HD
HETATM   12  O   UNL     1     -45.617  57.937 -56.010  1.00  0.00    -0.247 OA
HETATM   13  N   UNL     1     -44.171  59.752 -55.891  1.00  0.00    -0.268 N 
HETATM   14  C   UNL     1     -43.694  60.534 -54.874  1.00  0.00     0.256 A 
HETATM   15  O   UNL     1     -42.876  61.438 -54.967  1.00  0.00    -0.270 OA
BRANCH   8  16
HETATM   16  C   UNL     1     -45.091  61.115 -52.831  1.00  0.00     0.037 C 
HETATM   17  C   UNL     1     -44.322  61.903 -51.771  1.00  0.00     0.008 C 
ENDBRANCH   8  16
BRANCH  13  18
HETATM   18  C   UNL     1     -43.673  59.794 -57.257  1.00  0.00     0.142 C 
BRANCH  18  19
HETATM   19  C   UNL     1     -42.365  59.026 -57.470  1.00  0.00     0.068 C 
BRANCH  19  20
HETATM   20  C   UNL     1     -42.560  57.910 -58.451  1.00  0.00     0.010 A 
HETATM   21  S   UNL     1     -43.092  56.363 -57.920  1.00  0.00    -0.085 SA
HETATM   22  C   UNL     1     -42.995  55.792 -59.530  1.00  0.00     0.166 A 
HETATM   23  N   UNL     1     -42.603  56.668 -60.427  1.00  0.00    -0.258 NA
HETATM   24  C   UNL     1     -42.364  57.892 -59.823  1.00  0.00     0.044 A 
HETATM   25  C   UNL     1     -41.925  59.024 -60.681  1.00  0.00     0.071 C 
ENDBRANCH  19  20
ENDBRANCH  18  19
ENDBRANCH  13  18
ENDBRANCH   1   8
BRANCH   4  26
HETATM   26  C   UNL     1     -42.497  55.276 -53.877  1.00  0.00     0.273 C 
BRANCH  26  27
HETATM   27  C   UNL     1     -41.598  54.173 -53.389  1.00  0.00    -0.030 A 
HETATM   28  C   UNL     1     -41.205  54.142 -52.034  1.00  0.00     0.048 A 
HETATM   29  C   UNL     1     -40.368  53.132 -51.558  1.00  0.00     0.102 A 
HETATM   30  C   UNL     1     -39.956  52.132 -52.440  1.00  0.00     0.099 A 
HETATM   31  C   UNL     1     -40.326  52.146 -53.779  1.00  0.00     0.040 A 
HETATM   32  C   UNL     1     -41.137  53.174 -54.260  1.00  0.00     0.012 A 
BRANCH  29  33
HETATM   33  O   UNL     1     -39.909  53.007 -50.275  1.00  0.00    -0.349 OA
BRANCH  33  34
HETATM   34  C   UNL     1     -39.655  54.220 -49.562  1.00  0.00     0.171 C 
HETATM   35  C   UNL     1     -40.562  54.250 -48.344  1.00  0.00     0.034 C 
ENDBRANCH  33  34
ENDBRANCH  29  33
BRANCH  30  36
HETATM   36  O   UNL     1     -39.158  51.111 -52.007  1.00  0.00    -0.358 OA
HETATM   37  H   UNL     1     -39.529  50.296 -52.400  1.00  0.00     0.218 HD
ENDBRANCH  30  36
ENDBRANCH  26  27
ENDBRANCH   4  26
TORSDOF 10
ENDMDL
MODEL 9
REMARK VINA RESULT:      -8.1      2.505      4.031
REMARK  10 active torsions:
REMARK  status: ('A' for Active; 'I' for Inactive)
REMARK    1  A    between atoms: C_2  and  C_3 
REMARK    2  A    between atoms: C_3  and  C_4 
REMARK    3  A    between atoms: N_7  and  C_9 
REMARK    4  A    between atoms: C_9  and  C_10 
REMARK    5  A    between atoms: C_12  and  O_13 
REMARK    6  A    between atoms: O_13  and  C_14 
REMARK    7  A    between atoms: C_16  and  O_17 
REMARK    8  A    between atoms: N_25  and  C_26 
REMARK    9  A    between atoms: C_26  and  C_27 
REMARK   10  A    between atoms: C_27  and  C_28 
ROOT
HETATM    1  C   UNL     1     -41.171  59.264 -51.700  1.00  0.00     0.026 C 
HETATM    2  C   UNL     1     -41.122  58.447 -53.011  1.00  0.00     0.035 C 
HETATM    3  C   UNL     1     -41.801  57.084 -52.942  1.00  0.00     0.235 C 
HETATM    4  N   UNL     1     -41.247  56.277 -51.793  1.00  0.00    -0.067 N 
HETATM    5  H   UNL     1     -40.269  56.068 -52.029  1.00  0.00     0.280 HD
HETATM    6  C   UNL     1     -41.264  57.007 -50.473  1.00  0.00     0.235 C 
HETATM    7  C   UNL     1     -40.602  58.372 -50.582  1.00  0.00     0.035 C 
ENDROOT
BRANCH   1   8
HETATM    8  C   UNL     1     -42.549  59.961 -51.388  1.00  0.00     0.119 A 
HETATM    9  N   UNL     1     -43.509  59.052 -50.812  1.00  0.00    -0.324 N 
HETATM   10  C   UNL     1     -44.565  58.798 -51.661  1.00  0.00     0.326 A 
HETATM   11  H   UNL     1     -43.639  58.855 -49.826  1.00  0.00     0.165 HD
HETATM   12  O   UNL     1     -45.441  57.999 -51.385  1.00  0.00    -0.247 OA
HETATM   13  N   UNL     1     -44.395  59.512 -52.804  1.00  0.00    -0.268 N 
HETATM   14  C   UNL     1     -43.251  60.263 -52.732  1.00  0.00     0.256 A 
HETATM   15  O   UNL     1     -42.796  60.987 -53.605  1.00  0.00    -0.270 OA
BRANCH   8  16
HETATM   16  C   UNL     1     -42.398  61.243 -50.548  1.00  0.00     0.037 C 
HETATM   17  C   UNL     1     -43.713  61.868 -50.085  1.00  0.00     0.008 C 
ENDBRANCH   8  16
BRANCH  13  18
HETATM   18  C   UNL     1     -45.199  59.361 -54.006  1.00  0.00     0.142 C 
BRANCH  18  19
HETATM   19  C   UNL     1     -45.007  58.022 -54.723  1.00  0.00     0.068 C 
BRANCH  19  20
HETATM   20  C   UNL     1     -44.545  58.237 -56.132  1.00  0.00     0.010 A 
HETATM   21  S   UNL     1     -42.873  58.425 -56.486  1.00  0.00    -0.085 SA
HETATM   22  C   UNL     1     -43.260  58.639 -58.138  1.00  0.00     0.166 A 
HETATM   23  N   UNL     1     -44.536  58.574 -58.443  1.00  0.00    -0.258 NA
HETATM   24  C   UNL     1     -45.284  58.329 -57.303  1.00  0.00     0.044 A 
HETATM   25  C   UNL     1     -46.758  58.204 -57.444  1.00  0.00     0.071 C 
ENDBRANCH  19  20
ENDBRANCH  18  19
ENDBRANCH  13  18
ENDBRANCH   1   8
BRANCH   4  26
HETATM   26  C   UNL     1     -41.943  54.929 -51.635  1.00  0.00     0.273 C 
BRANCH  26  27
HETATM   27  C   UNL     1     -41.349  53.790 -52.418  1.00  0.00    -0.030 A 
HETATM   28  C   UNL     1     -40.436  52.915 -51.793  1.00  0.00     0.048 A 
HETATM   29  C   UNL     1     -39.867  51.855 -52.500  1.00  0.00     0.102 A 
HETATM   30  C   UNL     1     -40.248  51.654 -53.827  1.00  0.00     0.099 A 
HETATM   31  C   UNL     1     -41.140  52.506 -54.465  1.00  0.00     0.040 A 
HETATM   32  C   UNL     1     -41.683  53.585 -53.766  1.00  0.00     0.012 A 
BRANCH  29  33
HETATM   33  O   UNL     1     -38.962  50.954 -52.007  1.00  0.00    -0.349 OA
BRANCH  33  34
HETATM   34  C   UNL     1     -39.493  49.754 -51.440  1.00  0.00     0.171 C 
HETATM   35  C   UNL     1     -40.102  50.098 -50.093  1.00  0.00     0.034 C 
ENDBRANCH  33  34
ENDBRANCH  29  33
BRANCH  30  36
HETATM   36  O   UNL     1     -39.735  50.610 -54.545  1.00  0.00    -0.358 OA
HETATM   37  H   UNL     1     -38.764  50.728 -54.532  1.00  0.00     0.218 HD
ENDBRANCH  30  36
ENDBRANCH  26  27
ENDBRANCH   4  26
TORSDOF 10
ENDMDL
MODEL 10
REMARK VINA RESULT:      -8.1      5.137      8.976
REMARK  10 active torsions:
REMARK  status: ('A' for Active; 'I' for Inactive)
REMARK    1  A    between atoms: C_2  and  C_3 
REMARK    2  A    between atoms: C_3  and  C_4 
REMARK    3  A    between atoms: N_7  and  C_9 
REMARK    4  A    between atoms: C_9  and  C_10 
REMARK    5  A    between atoms: C_12  and  O_13 
REMARK    6  A    between atoms: O_13  and  C_14 
REMARK    7  A    between atoms: C_16  and  O_17 
REMARK    8  A    between atoms: N_25  and  C_26 
REMARK    9  A    between atoms: C_26  and  C_27 
REMARK   10  A    between atoms: C_27  and  C_28 
ROOT
HETATM    1  C   UNL     1     -42.793  58.188 -51.859  1.00  0.00     0.026 C 
HETATM    2  C   UNL     1     -44.225  58.485 -51.360  1.00  0.00     0.035 C 
HETATM    3  C   UNL     1     -44.505  59.953 -51.060  1.00  0.00     0.235 C 
HETATM    4  N   UNL     1     -43.483  60.498 -50.093  1.00  0.00    -0.067 N 
HETATM    5  H   UNL     1     -43.641  60.015 -49.199  1.00  0.00     0.280 HD
HETATM    6  C   UNL     1     -42.055  60.249 -50.512  1.00  0.00     0.235 C 
HETATM    7  C   UNL     1     -41.815  58.781 -50.829  1.00  0.00     0.035 C 
ENDROOT
BRANCH   1   8
HETATM    8  C   UNL     1     -42.510  58.555 -53.365  1.00  0.00     0.119 A 
HETATM    9  N   UNL     1     -43.704  58.521 -54.174  1.00  0.00    -0.324 N 
HETATM   10  C   UNL     1     -43.684  57.493 -55.093  1.00  0.00     0.326 A 
HETATM   11  H   UNL     1     -44.344  59.289 -54.339  1.00  0.00     0.165 HD
HETATM   12  O   UNL     1     -44.633  57.255 -55.818  1.00  0.00    -0.247 OA
HETATM   13  N   UNL     1     -42.512  56.818 -54.976  1.00  0.00    -0.268 N 
HETATM   14  C   UNL     1     -41.728  57.385 -54.007  1.00  0.00     0.256 A 
HETATM   15  O   UNL     1     -40.631  56.998 -53.633  1.00  0.00    -0.270 OA
BRANCH   8  16
HETATM   16  C   UNL     1     -41.745  59.881 -53.528  1.00  0.00     0.037 C 
HETATM   17  C   UNL     1     -42.568  61.035 -54.099  1.00  0.00     0.008 C 
ENDBRANCH   8  16
BRANCH  13  18
HETATM   18  C   UNL     1     -42.206  55.561 -55.641  1.00  0.00     0.142 C 
BRANCH  18  19
HETATM   19  C   UNL     1     -42.843  54.334 -54.983  1.00  0.00     0.068 C 
BRANCH  19  20
HETATM   20  C   UNL     1     -41.967  53.808 -53.887  1.00  0.00     0.010 A 
HETATM   21  S   UNL     1     -40.518  52.959 -54.256  1.00  0.00    -0.085 SA
HETATM   22  C   UNL     1     -40.241  52.730 -52.583  1.00  0.00     0.166 A 
HETATM   23  N   UNL     1     -41.142  53.243 -51.777  1.00  0.00    -0.258 NA
HETATM   24  C   UNL     1     -42.131  53.876 -52.511  1.00  0.00     0.044 A 
HETATM   25  C   UNL     1     -43.239  54.537 -51.772  1.00  0.00     0.071 C 
ENDBRANCH  19  20
ENDBRANCH  18  19
ENDBRANCH  13  18
ENDBRANCH   1   8
BRANCH   4  26
HETATM   26  C   UNL     1     -43.676  61.985 -49.812  1.00  0.00     0.273 C 
BRANCH  26  27
HETATM   27  C   UNL     1     -44.867  62.342 -48.966  1.00  0.00    -0.030 A 
HETATM   28  C   UNL     1     -45.365  61.408 -48.032  1.00  0.00     0.048 A 
HETATM   29  C   UNL     1     -46.472  61.714 -47.239  1.00  0.00     0.102 A 
HETATM   30  C   UNL     1     -47.055  62.975 -47.361  1.00  0.00     0.099 A 
HETATM   31  C   UNL     1     -46.587  63.908 -48.278  1.00  0.00     0.040 A 
HETATM   32  C   UNL     1     -45.500  63.589 -49.092  1.00  0.00     0.012 A 
BRANCH  29  33
HETATM   33  O   UNL     1     -47.051  60.887 -46.314  1.00  0.00    -0.349 OA
BRANCH  33  34
HETATM   34  C   UNL     1     -46.416  59.625 -46.094  1.00  0.00     0.171 C 
HETATM   35  C   UNL     1     -47.418  58.703 -45.424  1.00  0.00     0.034 C 
ENDBRANCH  33  34
ENDBRANCH  29  33
BRANCH  30  36
HETATM   36  O   UNL     1     -48.123  63.323 -46.583  1.00  0.00    -0.358 OA
HETATM   37  H   UNL     1     -48.133  64.301 -46.563  1.00  0.00     0.218 HD
ENDBRANCH  30  36
ENDBRANCH  26  27
ENDBRANCH   4  26
TORSDOF 10
ENDMDL
