MODEL 1
REMARK VINA RESULT:      -8.3      0.000      0.000
REMARK  5 active torsions:
REMARK  status: ('A' for Active; 'I' for Inactive)
REMARK    1  A    between atoms: C_6  and  N_7 
REMARK       I    between atoms: N_7  and  C_8 
REMARK    2  A    between atoms: C_8  and  C_9 
REMARK    3  A    between atoms: C_9  and  O_10 
REMARK    4  A    between atoms: O_10  and  C_11 
REMARK    5  A    between atoms: C_20  and  C_21 
ROOT
HETATM    1  C   UNL     1     -43.713  59.661 -55.533  1.00  0.00     0.073 C 
HETATM    2  C   UNL     1     -44.062  58.396 -54.837  1.00  0.00     0.065 A 
HETATM    3  N   UNL     1     -45.102  57.666 -55.259  1.00  0.00    -0.177 NA
HETATM    4  N   UNL     1     -45.129  56.620 -54.417  1.00  0.00    -0.262 N 
HETATM    5  H   UNL     1     -45.803  55.882 -54.595  1.00  0.00     0.191 HD
HETATM    6  C   UNL     1     -44.168  56.665 -53.441  1.00  0.00     0.137 A 
HETATM    7  C   UNL     1     -43.434  57.809 -53.703  1.00  0.00     0.046 A 
ENDROOT
BRANCH   6   8
HETATM    8  N   UNL     1     -43.947  55.696 -52.481  1.00  0.00    -0.309 N 
HETATM    9  C   UNL     1     -42.942  54.770 -52.407  1.00  0.00     0.247 C 
HETATM   10  O   UNL     1     -42.847  54.084 -51.385  1.00  0.00    -0.271 OA
HETATM   11  H   UNL     1     -44.621  55.631 -51.725  1.00  0.00     0.170 HD
BRANCH   9  12
HETATM   12  C   UNL     1     -42.062  54.481 -53.621  1.00  0.00     0.278 C 
BRANCH  12  13
HETATM   13  O   UNL     1     -40.721  54.194 -53.252  1.00  0.00    -0.339 OA
BRANCH  13  14
HETATM   14  C   UNL     1     -40.378  52.866 -53.239  1.00  0.00     0.108 A 
HETATM   15  C   UNL     1     -39.872  52.374 -52.029  1.00  0.00     0.152 A 
HETATM   16  F   UNL     1     -39.759  53.191 -50.971  1.00  0.00    -0.203 F 
HETATM   17  C   UNL     1     -39.489  51.044 -51.887  1.00  0.00     0.087 A 
HETATM   18  C   UNL     1     -39.601  50.199 -52.981  1.00  0.00     0.119 A 
HETATM   19  F   UNL     1     -39.238  48.915 -52.863  1.00  0.00    -0.206 F 
HETATM   20  C   UNL     1     -40.080  50.664 -54.201  1.00  0.00     0.045 A 
HETATM   21  C   UNL     1     -40.467  52.001 -54.334  1.00  0.00     0.043 A 
ENDBRANCH  13  14
ENDBRANCH  12  13
ENDBRANCH   9  12
ENDBRANCH   6   8
BRANCH   7  22
HETATM   22  C   UNL     1     -42.328  58.289 -52.894  1.00  0.00    -0.020 A 
HETATM   23  C   UNL     1     -42.551  58.774 -51.600  1.00  0.00     0.014 A 
HETATM   24  C   UNL     1     -41.479  59.213 -50.818  1.00  0.00     0.020 A 
HETATM   25  C   UNL     1     -40.182  59.166 -51.329  1.00  0.00     0.011 A 
HETATM   26 BR   UNL     1     -38.733  59.755 -50.269  1.00  0.00    -0.051 Br
HETATM   27  C   UNL     1     -39.946  58.685 -52.614  1.00  0.00     0.020 A 
HETATM   28  C   UNL     1     -41.018  58.243 -53.393  1.00  0.00     0.014 A 
ENDBRANCH   7  22
TORSDOF 5
ENDMDL
MODEL 2
REMARK VINA RESULT:      -8.3      2.228      2.823
REMARK  5 active torsions:
REMARK  status: ('A' for Active; 'I' for Inactive)
REMARK    1  A    between atoms: C_6  and  N_7 
REMARK       I    between atoms: N_7  and  C_8 
REMARK    2  A    between atoms: C_8  and  C_9 
REMARK    3  A    between atoms: C_9  and  O_10 
REMARK    4  A    between atoms: O_10  and  C_11 
REMARK    5  A    between atoms: C_20  and  C_21 
ROOT
HETATM    1  C   UNL     1     -43.168  56.455 -55.196  1.00  0.00     0.073 C 
HETATM    2  C   UNL     1     -43.005  55.618 -53.981  1.00  0.00     0.065 A 
HETATM    3  N   UNL     1     -43.015  54.284 -54.082  1.00  0.00    -0.177 NA
HETATM    4  N   UNL     1     -42.853  53.860 -52.818  1.00  0.00    -0.262 N 
HETATM    5  H   UNL     1     -42.754  52.862 -52.659  1.00  0.00     0.191 HD
HETATM    6  C   UNL     1     -42.778  54.871 -51.896  1.00  0.00     0.137 A 
HETATM    7  C   UNL     1     -42.850  56.041 -52.631  1.00  0.00     0.046 A 
ENDROOT
BRANCH   6   8
HETATM    8  N   UNL     1     -42.566  54.712 -50.540  1.00  0.00    -0.309 N 
HETATM    9  C   UNL     1     -41.400  54.441 -49.876  1.00  0.00     0.247 C 
HETATM   10  O   UNL     1     -41.402  54.481 -48.642  1.00  0.00    -0.271 OA
HETATM   11  H   UNL     1     -43.376  54.784 -49.933  1.00  0.00     0.170 HD
BRANCH   9  12
HETATM   12  C   UNL     1     -40.172  53.947 -50.635  1.00  0.00     0.278 C 
BRANCH  12  13
HETATM   13  O   UNL     1     -39.992  52.544 -50.505  1.00  0.00    -0.339 OA
BRANCH  13  14
HETATM   14  C   UNL     1     -39.928  51.839 -51.681  1.00  0.00     0.108 A 
HETATM   15  C   UNL     1     -39.670  50.468 -51.561  1.00  0.00     0.152 A 
HETATM   16  F   UNL     1     -39.511  49.921 -50.346  1.00  0.00    -0.203 F 
HETATM   17  C   UNL     1     -39.582  49.644 -52.678  1.00  0.00     0.087 A 
HETATM   18  C   UNL     1     -39.740  50.207 -53.936  1.00  0.00     0.119 A 
HETATM   19  F   UNL     1     -39.660  49.430 -55.023  1.00  0.00    -0.206 F 
HETATM   20  C   UNL     1     -39.978  51.570 -54.086  1.00  0.00     0.045 A 
HETATM   21  C   UNL     1     -40.068  52.391 -52.958  1.00  0.00     0.043 A 
ENDBRANCH  13  14
ENDBRANCH  12  13
ENDBRANCH   9  12
ENDBRANCH   6   8
BRANCH   7  22
HETATM   22  C   UNL     1     -42.852  57.378 -52.064  1.00  0.00    -0.020 A 
HETATM   23  C   UNL     1     -41.649  58.006 -51.721  1.00  0.00     0.014 A 
HETATM   24  C   UNL     1     -41.656  59.302 -51.196  1.00  0.00     0.020 A 
HETATM   25  C   UNL     1     -42.866  59.971 -51.016  1.00  0.00     0.011 A 
HETATM   26 BR   UNL     1     -42.875  61.725 -50.311  1.00  0.00    -0.051 Br
HETATM   27  C   UNL     1     -44.070  59.359 -51.355  1.00  0.00     0.020 A 
HETATM   28  C   UNL     1     -44.061  58.065 -51.882  1.00  0.00     0.014 A 
ENDBRANCH   7  22
TORSDOF 5
ENDMDL
MODEL 3
REMARK VINA RESULT:      -8.2      2.448      3.339
REMARK  5 active torsions:
REMARK  status: ('A' for Active; 'I' for Inactive)
REMARK    1  A    between atoms: C_6  and  N_7 
REMARK       I    between atoms: N_7  and  C_8 
REMARK    2  A    between atoms: C_8  and  C_9 
REMARK    3  A    between atoms: C_9  and  O_10 
REMARK    4  A    between atoms: O_10  and  C_11 
REMARK    5  A    between atoms: C_20  and  C_21 
ROOT
HETATM    1  C   UNL     1     -45.084  57.729 -51.887  1.00  0.00     0.073 C 
HETATM    2  C   UNL     1     -44.039  57.468 -52.908  1.00  0.00     0.065 A 
HETATM    3  N   UNL     1     -44.211  57.894 -54.166  1.00  0.00    -0.177 NA
HETATM    4  N   UNL     1     -43.100  57.488 -54.803  1.00  0.00    -0.262 N 
HETATM    5  H   UNL     1     -42.975  57.771 -55.770  1.00  0.00     0.191 HD
HETATM    6  C   UNL     1     -42.231  56.781 -54.014  1.00  0.00     0.137 A 
HETATM    7  C   UNL     1     -42.808  56.770 -52.755  1.00  0.00     0.046 A 
ENDROOT
BRANCH   6   8
HETATM    8  N   UNL     1     -41.000  56.293 -54.406  1.00  0.00    -0.309 N 
HETATM    9  C   UNL     1     -40.649  55.016 -54.750  1.00  0.00     0.247 C 
HETATM   10  O   UNL     1     -39.521  54.819 -55.211  1.00  0.00    -0.271 OA
HETATM   11  H   UNL     1     -40.227  56.951 -54.431  1.00  0.00     0.170 HD
BRANCH   9  12
HETATM   12  C   UNL     1     -41.570  53.844 -54.425  1.00  0.00     0.278 C 
BRANCH  12  13
HETATM   13  O   UNL     1     -40.958  52.591 -54.693  1.00  0.00    -0.339 OA
BRANCH  13  14
HETATM   14  C   UNL     1     -40.458  51.925 -53.602  1.00  0.00     0.108 A 
HETATM   15  C   UNL     1     -40.146  50.573 -53.798  1.00  0.00     0.152 A 
HETATM   16  F   UNL     1     -40.335  50.011 -55.001  1.00  0.00    -0.203 F 
HETATM   17  C   UNL     1     -39.632  49.790 -52.770  1.00  0.00     0.087 A 
HETATM   18  C   UNL     1     -39.441  50.367 -51.524  1.00  0.00     0.119 A 
HETATM   19  F   UNL     1     -38.946  49.629 -50.522  1.00  0.00    -0.206 F 
HETATM   20  C   UNL     1     -39.760  51.701 -51.295  1.00  0.00     0.045 A 
HETATM   21  C   UNL     1     -40.273  52.484 -52.334  1.00  0.00     0.043 A 
ENDBRANCH  13  14
ENDBRANCH  12  13
ENDBRANCH   9  12
ENDBRANCH   6   8
BRANCH   7  22
HETATM   22  C   UNL     1     -42.256  56.092 -51.595  1.00  0.00    -0.020 A 
HETATM   23  C   UNL     1     -42.862  54.936 -51.092  1.00  0.00     0.014 A 
HETATM   24  C   UNL     1     -42.313  54.276 -49.989  1.00  0.00     0.020 A 
HETATM   25  C   UNL     1     -41.155  54.770 -49.390  1.00  0.00     0.011 A 
HETATM   26 BR   UNL     1     -40.409  53.874 -47.902  1.00  0.00    -0.051 Br
HETATM   27  C   UNL     1     -40.540  55.919 -49.882  1.00  0.00     0.020 A 
HETATM   28  C   UNL     1     -41.089  56.576 -50.986  1.00  0.00     0.014 A 
ENDBRANCH   7  22
TORSDOF 5
ENDMDL
MODEL 4
REMARK VINA RESULT:      -8.1      2.737      3.816
REMARK  5 active torsions:
REMARK  status: ('A' for Active; 'I' for Inactive)
REMARK    1  A    between atoms: C_6  and  N_7 
REMARK       I    between atoms: N_7  and  C_8 
REMARK    2  A    between atoms: C_8  and  C_9 
REMARK    3  A    between atoms: C_9  and  O_10 
REMARK    4  A    between atoms: O_10  and  C_11 
REMARK    5  A    between atoms: C_20  and  C_21 
ROOT
HETATM    1  C   UNL     1     -42.102  60.366 -53.087  1.00  0.00     0.073 C 
HETATM    2  C   UNL     1     -42.584  59.151 -52.385  1.00  0.00     0.065 A 
HETATM    3  N   UNL     1     -42.627  59.124 -51.048  1.00  0.00    -0.177 NA
HETATM    4  N   UNL     1     -43.096  57.899 -50.761  1.00  0.00    -0.262 N 
HETATM    5  H   UNL     1     -43.285  57.676 -49.788  1.00  0.00     0.191 HD
HETATM    6  C   UNL     1     -43.323  57.116 -51.863  1.00  0.00     0.137 A 
HETATM    7  C   UNL     1     -43.019  57.919 -52.949  1.00  0.00     0.046 A 
ENDROOT
BRANCH   6   8
HETATM    8  N   UNL     1     -43.847  55.838 -51.851  1.00  0.00    -0.309 N 
HETATM    9  C   UNL     1     -43.254  54.667 -51.464  1.00  0.00     0.247 C 
HETATM   10  O   UNL     1     -43.950  53.649 -51.396  1.00  0.00    -0.271 OA
HETATM   11  H   UNL     1     -44.798  55.724 -52.188  1.00  0.00     0.170 HD
BRANCH   9  12
HETATM   12  C   UNL     1     -41.742  54.588 -51.278  1.00  0.00     0.278 C 
BRANCH  12  13
HETATM   13  O   UNL     1     -41.062  54.370 -52.506  1.00  0.00    -0.339 OA
BRANCH  13  14
HETATM   14  C   UNL     1     -40.563  53.106 -52.696  1.00  0.00     0.108 A 
HETATM   15  C   UNL     1     -40.742  52.560 -53.973  1.00  0.00     0.152 A 
HETATM   16  F   UNL     1     -41.364  53.275 -54.924  1.00  0.00    -0.203 F 
HETATM   17  C   UNL     1     -40.280  51.288 -54.292  1.00  0.00     0.087 A 
HETATM   18  C   UNL     1     -39.642  50.545 -53.310  1.00  0.00     0.119 A 
HETATM   19  F   UNL     1     -39.189  49.319 -53.598  1.00  0.00    -0.206 F 
HETATM   20  C   UNL     1     -39.467  51.054 -52.027  1.00  0.00     0.045 A 
HETATM   21  C   UNL     1     -39.931  52.336 -51.715  1.00  0.00     0.043 A 
ENDBRANCH  13  14
ENDBRANCH  12  13
ENDBRANCH   9  12
ENDBRANCH   6   8
BRANCH   7  22
HETATM   22  C   UNL     1     -43.072  57.492 -54.336  1.00  0.00    -0.020 A 
HETATM   23  C   UNL     1     -42.069  56.672 -54.866  1.00  0.00     0.014 A 
HETATM   24  C   UNL     1     -42.138  56.246 -56.196  1.00  0.00     0.020 A 
HETATM   25  C   UNL     1     -43.210  56.639 -56.996  1.00  0.00     0.011 A 
HETATM   26 BR   UNL     1     -43.305  56.059 -58.793  1.00  0.00    -0.051 Br
HETATM   27  C   UNL     1     -44.215  57.454 -56.481  1.00  0.00     0.020 A 
HETATM   28  C   UNL     1     -44.146  57.876 -55.151  1.00  0.00     0.014 A 
ENDBRANCH   7  22
TORSDOF 5
ENDMDL
MODEL 5
REMARK VINA RESULT:      -8.0      4.009      6.528
REMARK  5 active torsions:
REMARK  status: ('A' for Active; 'I' for Inactive)
REMARK    1  A    between atoms: C_6  and  N_7 
REMARK       I    between atoms: N_7  and  C_8 
REMARK    2  A    between atoms: C_8  and  C_9 
REMARK    3  A    between atoms: C_9  and  O_10 
REMARK    4  A    between atoms: O_10  and  C_11 
REMARK    5  A    between atoms: C_20  and  C_21 
ROOT
HETATM    1  C   UNL     1     -44.576  53.829 -50.514  1.00  0.00     0.073 C 
HETATM    2  C   UNL     1     -43.804  55.046 -50.872  1.00  0.00     0.065 A 
HETATM    3  N   UNL     1     -44.261  56.254 -50.521  1.00  0.00    -0.177 NA
HETATM    4  N   UNL     1     -43.338  57.104 -51.000  1.00  0.00    -0.262 N 
HETATM    5  H   UNL     1     -43.440  58.091 -50.784  1.00  0.00     0.191 HD
HETATM    6  C   UNL     1     -42.318  56.493 -51.682  1.00  0.00     0.137 A 
HETATM    7  C   UNL     1     -42.582  55.137 -51.595  1.00  0.00     0.046 A 
ENDROOT
BRANCH   6   8
HETATM    8  N   UNL     1     -41.221  57.127 -52.232  1.00  0.00    -0.309 N 
HETATM    9  C   UNL     1     -41.150  57.912 -53.351  1.00  0.00     0.247 C 
HETATM   10  O   UNL     1     -40.093  58.503 -53.590  1.00  0.00    -0.271 OA
HETATM   11  H   UNL     1     -40.328  56.993 -51.768  1.00  0.00     0.170 HD
BRANCH   9  12
HETATM   12  C   UNL     1     -42.293  57.927 -54.361  1.00  0.00     0.278 C 
BRANCH  12  13
HETATM   13  O   UNL     1     -42.351  56.729 -55.121  1.00  0.00    -0.339 OA
BRANCH  13  14
HETATM   14  C   UNL     1     -42.526  56.888 -56.473  1.00  0.00     0.108 A 
HETATM   15  C   UNL     1     -42.900  55.739 -57.183  1.00  0.00     0.152 A 
HETATM   16  F   UNL     1     -43.073  54.578 -56.533  1.00  0.00    -0.203 F 
HETATM   17  C   UNL     1     -43.109  55.770 -58.558  1.00  0.00     0.087 A 
HETATM   18  C   UNL     1     -42.926  56.967 -59.233  1.00  0.00     0.119 A 
HETATM   19  F   UNL     1     -43.123  57.017 -60.556  1.00  0.00    -0.206 F 
HETATM   20  C   UNL     1     -42.535  58.119 -58.558  1.00  0.00     0.045 A 
HETATM   21  C   UNL     1     -42.331  58.081 -57.175  1.00  0.00     0.043 A 
ENDBRANCH  13  14
ENDBRANCH  12  13
ENDBRANCH   9  12
ENDBRANCH   6   8
BRANCH   7  22
HETATM   22  C   UNL     1     -41.783  54.095 -52.215  1.00  0.00    -0.020 A 
HETATM   23  C   UNL     1     -40.786  53.435 -51.486  1.00  0.00     0.014 A 
HETATM   24  C   UNL     1     -40.035  52.418 -52.082  1.00  0.00     0.020 A 
HETATM   25  C   UNL     1     -40.281  52.058 -53.406  1.00  0.00     0.011 A 
HETATM   26 BR   UNL     1     -39.269  50.678 -54.210  1.00  0.00    -0.051 Br
HETATM   27  C   UNL     1     -41.270  52.705 -54.142  1.00  0.00     0.020 A 
HETATM   28  C   UNL     1     -42.023  53.720 -53.544  1.00  0.00     0.014 A 
ENDBRANCH   7  22
TORSDOF 5
ENDMDL
MODEL 6
REMARK VINA RESULT:      -8.0      3.602      4.726
REMARK  5 active torsions:
REMARK  status: ('A' for Active; 'I' for Inactive)
REMARK    1  A    between atoms: C_6  and  N_7 
REMARK       I    between atoms: N_7  and  C_8 
REMARK    2  A    between atoms: C_8  and  C_9 
REMARK    3  A    between atoms: C_9  and  O_10 
REMARK    4  A    between atoms: O_10  and  C_11 
REMARK    5  A    between atoms: C_20  and  C_21 
ROOT
HETATM    1  C   UNL     1     -41.790  60.319 -57.326  1.00  0.00     0.073 C 
HETATM    2  C   UNL     1     -42.109  59.418 -56.191  1.00  0.00     0.065 A 
HETATM    3  N   UNL     1     -41.687  59.721 -54.958  1.00  0.00    -0.177 NA
HETATM    4  N   UNL     1     -42.139  58.708 -54.200  1.00  0.00    -0.262 N 
HETATM    5  H   UNL     1     -41.998  58.764 -53.196  1.00  0.00     0.191 HD
HETATM    6  C   UNL     1     -42.805  57.739 -54.904  1.00  0.00     0.137 A 
HETATM    7  C   UNL     1     -42.824  58.188 -56.214  1.00  0.00     0.046 A 
ENDROOT
BRANCH   6   8
HETATM    8  N   UNL     1     -43.409  56.620 -54.364  1.00  0.00    -0.309 N 
HETATM    9  C   UNL     1     -42.830  55.521 -53.789  1.00  0.00     0.247 C 
HETATM   10  O   UNL     1     -43.559  54.692 -53.236  1.00  0.00    -0.271 OA
HETATM   11  H   UNL     1     -44.422  56.576 -54.403  1.00  0.00     0.170 HD
BRANCH   9  12
HETATM   12  C   UNL     1     -41.339  55.248 -53.967  1.00  0.00     0.278 C 
BRANCH  12  13
HETATM   13  O   UNL     1     -40.780  54.579 -52.846  1.00  0.00    -0.339 OA
BRANCH  13  14
HETATM   14  C   UNL     1     -40.443  53.264 -53.043  1.00  0.00     0.108 A 
HETATM   15  C   UNL     1     -39.829  52.619 -51.961  1.00  0.00     0.152 A 
HETATM   16  F   UNL     1     -39.614  53.288 -50.818  1.00  0.00    -0.203 F 
HETATM   17  C   UNL     1     -39.440  51.285 -52.035  1.00  0.00     0.087 A 
HETATM   18  C   UNL     1     -39.657  50.592 -53.217  1.00  0.00     0.119 A 
HETATM   19  F   UNL     1     -39.290  49.308 -53.307  1.00  0.00    -0.206 F 
HETATM   20  C   UNL     1     -40.246  51.213 -54.314  1.00  0.00     0.045 A 
HETATM   21  C   UNL     1     -40.638  52.552 -54.230  1.00  0.00     0.043 A 
ENDBRANCH  13  14
ENDBRANCH  12  13
ENDBRANCH   9  12
ENDBRANCH   6   8
BRANCH   7  22
HETATM   22  C   UNL     1     -43.395  57.458 -57.332  1.00  0.00    -0.020 A 
HETATM   23  C   UNL     1     -44.571  57.903 -57.946  1.00  0.00     0.014 A 
HETATM   24  C   UNL     1     -45.103  57.208 -59.036  1.00  0.00     0.020 A 
HETATM   25  C   UNL     1     -44.457  56.068 -59.515  1.00  0.00     0.011 A 
HETATM   26 BR   UNL     1     -45.173  55.132 -60.992  1.00  0.00    -0.051 Br
HETATM   27  C   UNL     1     -43.285  55.616 -58.915  1.00  0.00     0.020 A 
HETATM   28  C   UNL     1     -42.753  56.313 -57.826  1.00  0.00     0.014 A 
ENDBRANCH   7  22
TORSDOF 5
ENDMDL
MODEL 7
REMARK VINA RESULT:      -8.0      1.949      2.305
REMARK  5 active torsions:
REMARK  status: ('A' for Active; 'I' for Inactive)
REMARK    1  A    between atoms: C_6  and  N_7 
REMARK       I    between atoms: N_7  and  C_8 
REMARK    2  A    between atoms: C_8  and  C_9 
REMARK    3  A    between atoms: C_9  and  O_10 
REMARK    4  A    between atoms: O_10  and  C_11 
REMARK    5  A    between atoms: C_20  and  C_21 
ROOT
HETATM    1  C   UNL     1     -42.575  57.192 -57.224  1.00  0.00     0.073 C 
HETATM    2  C   UNL     1     -42.944  56.209 -56.175  1.00  0.00     0.065 A 
HETATM    3  N   UNL     1     -43.075  54.914 -56.489  1.00  0.00    -0.177 NA
HETATM    4  N   UNL     1     -43.414  54.330 -55.328  1.00  0.00    -0.262 N 
HETATM    5  H   UNL     1     -43.494  53.318 -55.310  1.00  0.00     0.191 HD
HETATM    6  C   UNL     1     -43.546  55.204 -54.281  1.00  0.00     0.137 A 
HETATM    7  C   UNL     1     -43.220  56.446 -54.800  1.00  0.00     0.046 A 
ENDROOT
BRANCH   6   8
HETATM    8  N   UNL     1     -43.838  54.861 -52.976  1.00  0.00    -0.309 N 
HETATM    9  C   UNL     1     -43.027  54.891 -51.874  1.00  0.00     0.247 C 
HETATM   10  O   UNL     1     -43.529  54.678 -50.767  1.00  0.00    -0.271 OA
HETATM   11  H   UNL     1     -44.775  54.518 -52.785  1.00  0.00     0.170 HD
BRANCH   9  12
HETATM   12  C   UNL     1     -41.514  55.026 -52.028  1.00  0.00     0.278 C 
BRANCH  12  13
HETATM   13  O   UNL     1     -40.818  53.937 -51.440  1.00  0.00    -0.339 OA
BRANCH  13  14
HETATM   14  C   UNL     1     -40.459  52.926 -52.296  1.00  0.00     0.108 A 
HETATM   15  C   UNL     1     -39.979  51.755 -51.696  1.00  0.00     0.152 A 
HETATM   16  F   UNL     1     -39.903  51.672 -50.359  1.00  0.00    -0.203 F 
HETATM   17  C   UNL     1     -39.584  50.658 -52.455  1.00  0.00     0.087 A 
HETATM   18  C   UNL     1     -39.658  50.743 -53.837  1.00  0.00     0.119 A 
HETATM   19  F   UNL     1     -39.283  49.697 -54.585  1.00  0.00    -0.206 F 
HETATM   20  C   UNL     1     -40.111  51.900 -54.461  1.00  0.00     0.045 A 
HETATM   21  C   UNL     1     -40.510  52.998 -53.691  1.00  0.00     0.043 A 
ENDBRANCH  13  14
ENDBRANCH  12  13
ENDBRANCH   9  12
ENDBRANCH   6   8
BRANCH   7  22
HETATM   22  C   UNL     1     -43.262  57.692 -54.055  1.00  0.00    -0.020 A 
HETATM   23  C   UNL     1     -44.485  58.232 -53.641  1.00  0.00     0.014 A 
HETATM   24  C   UNL     1     -44.517  59.421 -52.906  1.00  0.00     0.020 A 
HETATM   25  C   UNL     1     -43.325  60.069 -52.582  1.00  0.00     0.011 A 
HETATM   26 BR   UNL     1     -43.368  61.673 -51.583  1.00  0.00    -0.051 Br
HETATM   27  C   UNL     1     -42.102  59.542 -52.987  1.00  0.00     0.020 A 
HETATM   28  C   UNL     1     -42.071  58.352 -53.719  1.00  0.00     0.014 A 
ENDBRANCH   7  22
TORSDOF 5
ENDMDL
MODEL 8
REMARK VINA RESULT:      -7.6      2.995      4.332
REMARK  5 active torsions:
REMARK  status: ('A' for Active; 'I' for Inactive)
REMARK    1  A    between atoms: C_6  and  N_7 
REMARK       I    between atoms: N_7  and  C_8 
REMARK    2  A    between atoms: C_8  and  C_9 
REMARK    3  A    between atoms: C_9  and  O_10 
REMARK    4  A    between atoms: O_10  and  C_11 
REMARK    5  A    between atoms: C_20  and  C_21 
ROOT
HETATM    1  C   UNL     1     -38.718  59.177 -52.443  1.00  0.00     0.073 C 
HETATM    2  C   UNL     1     -40.000  58.917 -51.741  1.00  0.00     0.065 A 
HETATM    3  N   UNL     1     -40.032  58.875 -50.403  1.00  0.00    -0.177 NA
HETATM    4  N   UNL     1     -41.319  58.619 -50.115  1.00  0.00    -0.262 N 
HETATM    5  H   UNL     1     -41.597  58.617 -49.139  1.00  0.00     0.191 HD
HETATM    6  C   UNL     1     -42.115  58.456 -51.219  1.00  0.00     0.137 A 
HETATM    7  C   UNL     1     -41.283  58.670 -52.304  1.00  0.00     0.046 A 
ENDROOT
BRANCH   6   8
HETATM    8  N   UNL     1     -43.478  58.234 -51.204  1.00  0.00    -0.309 N 
HETATM    9  C   UNL     1     -44.160  57.079 -50.931  1.00  0.00     0.247 C 
HETATM   10  O   UNL     1     -45.389  57.130 -50.832  1.00  0.00    -0.271 OA
HETATM   11  H   UNL     1     -44.078  59.017 -51.444  1.00  0.00     0.170 HD
BRANCH   9  12
HETATM   12  C   UNL     1     -43.434  55.736 -50.910  1.00  0.00     0.278 C 
BRANCH  12  13
HETATM   13  O   UNL     1     -43.382  55.136 -52.196  1.00  0.00    -0.339 OA
BRANCH  13  14
HETATM   14  C   UNL     1     -42.323  54.292 -52.418  1.00  0.00     0.108 A 
HETATM   15  C   UNL     1     -42.222  53.760 -53.710  1.00  0.00     0.152 A 
HETATM   16  F   UNL     1     -43.126  54.095 -54.643  1.00  0.00    -0.203 F 
HETATM   17  C   UNL     1     -41.193  52.892 -54.060  1.00  0.00     0.087 A 
HETATM   18  C   UNL     1     -40.260  52.541 -53.096  1.00  0.00     0.119 A 
HETATM   19  F   UNL     1     -39.262  51.708 -53.415  1.00  0.00    -0.206 F 
HETATM   20  C   UNL     1     -40.347  53.037 -51.800  1.00  0.00     0.045 A 
HETATM   21  C   UNL     1     -41.382  53.912 -51.456  1.00  0.00     0.043 A 
ENDBRANCH  13  14
ENDBRANCH  12  13
ENDBRANCH   9  12
ENDBRANCH   6   8
BRANCH   7  22
HETATM   22  C   UNL     1     -41.688  58.559 -53.694  1.00  0.00    -0.020 A 
HETATM   23  C   UNL     1     -41.844  57.303 -54.291  1.00  0.00     0.014 A 
HETATM   24  C   UNL     1     -42.256  57.202 -55.623  1.00  0.00     0.020 A 
HETATM   25  C   UNL     1     -42.513  58.358 -56.359  1.00  0.00     0.011 A 
HETATM   26 BR   UNL     1     -43.075  58.222 -58.159  1.00  0.00    -0.051 Br
HETATM   27  C   UNL     1     -42.362  59.614 -55.778  1.00  0.00     0.020 A 
HETATM   28  C   UNL     1     -41.954  59.713 -54.445  1.00  0.00     0.014 A 
ENDBRANCH   7  22
TORSDOF 5
ENDMDL
MODEL 9
REMARK VINA RESULT:      -7.5      2.438      2.902
REMARK  5 active torsions:
REMARK  status: ('A' for Active; 'I' for Inactive)
REMARK    1  A    between atoms: C_6  and  N_7 
REMARK       I    between atoms: N_7  and  C_8 
REMARK    2  A    between atoms: C_8  and  C_9 
REMARK    3  A    between atoms: C_9  and  O_10 
REMARK    4  A    between atoms: O_10  and  C_11 
REMARK    5  A    between atoms: C_20  and  C_21 
ROOT
HETATM    1  C   UNL     1     -45.208  58.947 -54.415  1.00  0.00     0.073 C 
HETATM    2  C   UNL     1     -44.563  57.954 -53.519  1.00  0.00     0.065 A 
HETATM    3  N   UNL     1     -44.320  56.714 -53.960  1.00  0.00    -0.177 NA
HETATM    4  N   UNL     1     -43.750  56.100 -52.910  1.00  0.00    -0.262 N 
HETATM    5  H   UNL     1     -43.407  55.153 -53.040  1.00  0.00     0.191 HD
HETATM    6  C   UNL     1     -43.649  56.886 -51.792  1.00  0.00     0.137 A 
HETATM    7  C   UNL     1     -44.153  58.120 -52.166  1.00  0.00     0.046 A 
ENDROOT
BRANCH   6   8
HETATM    8  N   UNL     1     -43.063  56.517 -50.597  1.00  0.00    -0.309 N 
HETATM    9  C   UNL     1     -41.886  55.851 -50.383  1.00  0.00     0.247 C 
HETATM   10  O   UNL     1     -41.470  55.746 -49.226  1.00  0.00    -0.271 OA
HETATM   11  H   UNL     1     -43.565  56.745 -49.744  1.00  0.00     0.170 HD
BRANCH   9  12
HETATM   12  C   UNL     1     -41.190  55.120 -51.528  1.00  0.00     0.278 C 
BRANCH  12  13
HETATM   13  O   UNL     1     -40.629  53.884 -51.110  1.00  0.00    -0.339 OA
BRANCH  13  14
HETATM   14  C   UNL     1     -40.364  52.981 -52.109  1.00  0.00     0.108 A 
HETATM   15  C   UNL     1     -39.927  51.717 -51.694  1.00  0.00     0.152 A 
HETATM   16  F   UNL     1     -39.800  51.450 -50.385  1.00  0.00    -0.203 F 
HETATM   17  C   UNL     1     -39.626  50.714 -52.610  1.00  0.00     0.087 A 
HETATM   18  C   UNL     1     -39.751  50.989 -53.963  1.00  0.00     0.119 A 
HETATM   19  F   UNL     1     -39.467  50.036 -54.860  1.00  0.00    -0.206 F 
HETATM   20  C   UNL     1     -40.164  52.241 -54.406  1.00  0.00     0.045 A 
HETATM   21  C   UNL     1     -40.468  53.243 -53.478  1.00  0.00     0.043 A 
ENDBRANCH  13  14
ENDBRANCH  12  13
ENDBRANCH   9  12
ENDBRANCH   6   8
BRANCH   7  22
HETATM   22  C   UNL     1     -44.286  59.264 -51.282  1.00  0.00    -0.020 A 
HETATM   23  C   UNL     1     -45.475  59.485 -50.578  1.00  0.00     0.014 A 
HETATM   24  C   UNL     1     -45.588  60.576 -49.712  1.00  0.00     0.020 A 
HETATM   25  C   UNL     1     -44.511  61.447 -49.548  1.00  0.00     0.011 A 
HETATM   26 BR   UNL     1     -44.662  62.920 -48.372  1.00  0.00    -0.051 Br
HETATM   27  C   UNL     1     -43.321  61.238 -50.241  1.00  0.00     0.020 A 
HETATM   28  C   UNL     1     -43.209  60.145 -51.105  1.00  0.00     0.014 A 
ENDBRANCH   7  22
TORSDOF 5
ENDMDL
MODEL 10
REMARK VINA RESULT:      -7.5      2.803      3.510
REMARK  5 active torsions:
REMARK  status: ('A' for Active; 'I' for Inactive)
REMARK    1  A    between atoms: C_6  and  N_7 
REMARK       I    between atoms: N_7  and  C_8 
REMARK    2  A    between atoms: C_8  and  C_9 
REMARK    3  A    between atoms: C_9  and  O_10 
REMARK    4  A    between atoms: O_10  and  C_11 
REMARK    5  A    between atoms: C_20  and  C_21 
ROOT
HETATM    1  C   UNL     1     -42.580  60.421 -54.251  1.00  0.00     0.073 C 
HETATM    2  C   UNL     1     -42.088  59.311 -53.397  1.00  0.00     0.065 A 
HETATM    3  N   UNL     1     -41.257  58.394 -53.906  1.00  0.00    -0.177 NA
HETATM    4  N   UNL     1     -41.027  57.557 -52.881  1.00  0.00    -0.262 N 
HETATM    5  H   UNL     1     -40.352  56.810 -53.018  1.00  0.00     0.191 HD
HETATM    6  C   UNL     1     -41.709  57.876 -51.737  1.00  0.00     0.137 A 
HETATM    7  C   UNL     1     -42.399  59.039 -52.035  1.00  0.00     0.046 A 
ENDROOT
BRANCH   6   8
HETATM    8  N   UNL     1     -41.616  57.211 -50.530  1.00  0.00    -0.309 N 
HETATM    9  C   UNL     1     -41.530  55.866 -50.291  1.00  0.00     0.247 C 
HETATM   10  O   UNL     1     -41.309  55.486 -49.138  1.00  0.00    -0.271 OA
HETATM   11  H   UNL     1     -41.630  57.777 -49.687  1.00  0.00     0.170 HD
BRANCH   9  12
HETATM   12  C   UNL     1     -41.858  54.861 -51.391  1.00  0.00     0.278 C 
BRANCH  12  13
HETATM   13  O   UNL     1     -40.780  54.693 -52.301  1.00  0.00    -0.339 OA
BRANCH  13  14
HETATM   14  C   UNL     1     -40.394  53.398 -52.536  1.00  0.00     0.108 A 
HETATM   15  C   UNL     1     -40.616  52.916 -53.833  1.00  0.00     0.152 A 
HETATM   16  F   UNL     1     -41.168  53.717 -54.757  1.00  0.00    -0.203 F 
HETATM   17  C   UNL     1     -40.268  51.620 -54.197  1.00  0.00     0.087 A 
HETATM   18  C   UNL     1     -39.701  50.789 -53.242  1.00  0.00     0.119 A 
HETATM   19  F   UNL     1     -39.358  49.538 -53.574  1.00  0.00    -0.206 F 
HETATM   20  C   UNL     1     -39.487  51.233 -51.941  1.00  0.00     0.045 A 
HETATM   21  C   UNL     1     -39.837  52.539 -51.584  1.00  0.00     0.043 A 
ENDBRANCH  13  14
ENDBRANCH  12  13
ENDBRANCH   9  12
ENDBRANCH   6   8
BRANCH   7  22
HETATM   22  C   UNL     1     -43.298  59.727 -51.126  1.00  0.00    -0.020 A 
HETATM   23  C   UNL     1     -42.858  60.836 -50.394  1.00  0.00     0.014 A 
HETATM   24  C   UNL     1     -43.736  61.506 -49.537  1.00  0.00     0.020 A 
HETATM   25  C   UNL     1     -45.054  61.070 -49.413  1.00  0.00     0.011 A 
HETATM   26 BR   UNL     1     -46.242  61.981 -48.258  1.00  0.00    -0.051 Br
HETATM   27  C   UNL     1     -45.505  59.969 -50.137  1.00  0.00     0.020 A 
HETATM   28  C   UNL     1     -44.628  59.301 -50.995  1.00  0.00     0.014 A 
ENDBRANCH   7  22
TORSDOF 5
ENDMDL
