MODEL 1
REMARK VINA RESULT:      -8.0      0.000      0.000
REMARK  4 active torsions:
REMARK  status: ('A' for Active; 'I' for Inactive)
REMARK    1  A    between atoms: C_2  and  C_3 
REMARK    2  A    between atoms: C_3  and  C_4 
REMARK    3  A    between atoms: N_7  and  C_8 
REMARK    4  A    between atoms: C_13  and  C_14 
ROOT
HETATM    1  C   UNL     1     -41.629  55.269 -50.995  1.00  0.00     0.017 A 
HETATM    2  C   UNL     1     -41.191  56.567 -51.253  1.00  0.00     0.033 A 
HETATM    3  C   UNL     1     -42.114  57.599 -51.368  1.00  0.00     0.099 A 
HETATM    4  N   UNL     1     -43.447  57.375 -51.227  1.00  0.00    -0.318 N 
HETATM    5  C   UNL     1     -43.883  56.108 -50.994  1.00  0.00     0.099 A 
HETATM    6  C   UNL     1     -42.993  55.043 -50.858  1.00  0.00     0.033 A 
ENDROOT
BRANCH   1   7
HETATM    7  C   UNL     1     -40.602  54.213 -50.797  1.00  0.00     0.192 C 
HETATM    8  O   UNL     1     -39.956  54.224 -49.754  1.00  0.00    -0.287 OA
BRANCH   7   9
HETATM    9  C   UNL     1     -40.357  53.140 -51.785  1.00  0.00     0.015 A 
HETATM   10  C   UNL     1     -39.796  51.940 -51.335  1.00  0.00     0.017 A 
HETATM   11  C   UNL     1     -39.545  50.904 -52.236  1.00  0.00     0.025 A 
HETATM   12  C   UNL     1     -39.842  51.077 -53.588  1.00  0.00     0.034 A 
HETATM   13  C   UNL     1     -40.375  52.281 -54.047  1.00  0.00     0.025 A 
HETATM   14 CL   UNL     1     -39.540  49.800 -54.700  1.00  0.00    -0.084 Cl
HETATM   15  C   UNL     1     -40.628  53.321 -53.147  1.00  0.00     0.017 A 
ENDBRANCH   7   9
ENDBRANCH   1   7
BRANCH   4  16
HETATM   16  C   UNL     1     -44.344  58.453 -51.359  1.00  0.00     0.135 A 
HETATM   17  N   UNL     1     -44.816  59.111 -50.248  1.00  0.00    -0.302 N 
HETATM   18  C   UNL     1     -45.685  60.149 -50.475  1.00  0.00     0.290 A 
HETATM   19  H   UNL     1     -44.537  58.936 -49.293  1.00  0.00     0.171 HD
HETATM   20  O   UNL     1     -46.188  60.857 -49.626  1.00  0.00    -0.260 OA
HETATM   21  S   UNL     1     -45.935  60.285 -52.209  1.00  0.00    -0.022 SA
HETATM   22  C   UNL     1     -44.859  58.950 -52.498  1.00  0.00     0.092 A 
BRANCH  22  23
HETATM   23  C   UNL     1     -44.721  58.459 -53.877  1.00  0.00     0.281 C 
HETATM   24  O   UNL     1     -45.132  57.353 -54.206  1.00  0.00    -0.301 OA
ENDBRANCH  22  23
ENDBRANCH   4  16
TORSDOF 4
ENDMDL
MODEL 2
REMARK VINA RESULT:      -7.9      0.425      1.472
REMARK  4 active torsions:
REMARK  status: ('A' for Active; 'I' for Inactive)
REMARK    1  A    between atoms: C_2  and  C_3 
REMARK    2  A    between atoms: C_3  and  C_4 
REMARK    3  A    between atoms: N_7  and  C_8 
REMARK    4  A    between atoms: C_13  and  C_14 
ROOT
HETATM    1  C   UNL     1     -41.413  55.046 -50.623  1.00  0.00     0.017 A 
HETATM    2  C   UNL     1     -42.788  54.822 -50.620  1.00  0.00     0.033 A 
HETATM    3  C   UNL     1     -43.662  55.869 -50.882  1.00  0.00     0.099 A 
HETATM    4  N   UNL     1     -43.204  57.120 -51.151  1.00  0.00    -0.318 N 
HETATM    5  C   UNL     1     -41.864  57.351 -51.138  1.00  0.00     0.099 A 
HETATM    6  C   UNL     1     -40.949  56.328 -50.892  1.00  0.00     0.033 A 
ENDROOT
BRANCH   1   7
HETATM    7  C   UNL     1     -40.515  53.878 -50.420  1.00  0.00     0.192 C 
HETATM    8  O   UNL     1     -39.992  53.738 -49.320  1.00  0.00    -0.287 OA
BRANCH   7   9
HETATM    9  C   UNL     1     -40.261  52.872 -51.474  1.00  0.00     0.015 A 
HETATM   10  C   UNL     1     -40.533  53.220 -52.802  1.00  0.00     0.017 A 
HETATM   11  C   UNL     1     -40.310  52.298 -53.826  1.00  0.00     0.025 A 
HETATM   12  C   UNL     1     -39.833  51.024 -53.517  1.00  0.00     0.034 A 
HETATM   13  C   UNL     1     -39.588  50.662 -52.192  1.00  0.00     0.025 A 
HETATM   14 CL   UNL     1     -39.553  49.888 -54.776  1.00  0.00    -0.084 Cl
HETATM   15  C   UNL     1     -39.809  51.584 -51.164  1.00  0.00     0.017 A 
ENDBRANCH   7   9
ENDBRANCH   1   7
BRANCH   4  16
HETATM   16  C   UNL     1     -44.130  58.152 -51.404  1.00  0.00     0.135 A 
HETATM   17  N   UNL     1     -44.689  58.862 -50.367  1.00  0.00    -0.302 N 
HETATM   18  C   UNL     1     -45.579  59.848 -50.710  1.00  0.00     0.290 A 
HETATM   19  H   UNL     1     -44.458  58.760 -49.388  1.00  0.00     0.171 HD
HETATM   20  O   UNL     1     -46.154  60.590 -49.940  1.00  0.00    -0.260 OA
HETATM   21  S   UNL     1     -45.735  59.861 -52.460  1.00  0.00    -0.022 SA
HETATM   22  C   UNL     1     -44.597  58.553 -52.600  1.00  0.00     0.092 A 
BRANCH  22  23
HETATM   23  C   UNL     1     -44.362  57.979 -53.933  1.00  0.00     0.281 C 
HETATM   24  O   UNL     1     -44.777  56.866 -54.231  1.00  0.00    -0.301 OA
ENDBRANCH  22  23
ENDBRANCH   4  16
TORSDOF 4
ENDMDL
MODEL 3
REMARK VINA RESULT:      -7.6      2.061      2.416
REMARK  4 active torsions:
REMARK  status: ('A' for Active; 'I' for Inactive)
REMARK    1  A    between atoms: C_2  and  C_3 
REMARK    2  A    between atoms: C_3  and  C_4 
REMARK    3  A    between atoms: N_7  and  C_8 
REMARK    4  A    between atoms: C_13  and  C_14 
ROOT
HETATM    1  C   UNL     1     -41.683  55.139 -53.938  1.00  0.00     0.017 A 
HETATM    2  C   UNL     1     -41.221  56.357 -53.443  1.00  0.00     0.033 A 
HETATM    3  C   UNL     1     -42.127  57.314 -53.005  1.00  0.00     0.099 A 
HETATM    4  N   UNL     1     -43.467  57.089 -53.043  1.00  0.00    -0.318 N 
HETATM    5  C   UNL     1     -43.925  55.910 -53.542  1.00  0.00     0.099 A 
HETATM    6  C   UNL     1     -43.053  54.914 -53.980  1.00  0.00     0.033 A 
ENDROOT
BRANCH   1   7
HETATM    7  C   UNL     1     -40.675  54.113 -54.316  1.00  0.00     0.192 C 
HETATM    8  O   UNL     1     -40.119  54.224 -55.404  1.00  0.00    -0.287 OA
BRANCH   7   9
HETATM    9  C   UNL     1     -40.297  52.996 -53.424  1.00  0.00     0.015 A 
HETATM   10  C   UNL     1     -40.016  51.752 -54.002  1.00  0.00     0.017 A 
HETATM   11  C   UNL     1     -39.659  50.671 -53.194  1.00  0.00     0.025 A 
HETATM   12  C   UNL     1     -39.600  50.832 -51.810  1.00  0.00     0.034 A 
HETATM   13  C   UNL     1     -39.907  52.062 -51.227  1.00  0.00     0.025 A 
HETATM   14 CL   UNL     1     -39.156  49.504 -50.813  1.00  0.00    -0.084 Cl
HETATM   15  C   UNL     1     -40.265  53.147 -52.032  1.00  0.00     0.017 A 
ENDBRANCH   7   9
ENDBRANCH   1   7
BRANCH   4  16
HETATM   16  C   UNL     1     -44.346  58.094 -52.594  1.00  0.00     0.135 A 
HETATM   17  N   UNL     1     -44.832  58.077 -51.307  1.00  0.00    -0.302 N 
HETATM   18  C   UNL     1     -45.681  59.097 -50.960  1.00  0.00     0.290 A 
HETATM   19  H   UNL     1     -44.573  57.418 -50.586  1.00  0.00     0.171 HD
HETATM   20  O   UNL     1     -46.191  59.262 -49.870  1.00  0.00    -0.260 OA
HETATM   21  S   UNL     1     -45.896  60.133 -52.363  1.00  0.00    -0.022 SA
HETATM   22  C   UNL     1     -44.833  59.128 -53.303  1.00  0.00     0.092 A 
BRANCH  22  23
HETATM   23  C   UNL     1     -44.674  59.436 -54.733  1.00  0.00     0.281 C 
HETATM   24  O   UNL     1     -45.425  58.960 -55.575  1.00  0.00    -0.301 OA
ENDBRANCH  22  23
ENDBRANCH   4  16
TORSDOF 4
ENDMDL
MODEL 4
REMARK VINA RESULT:      -7.3      2.523      3.230
REMARK  4 active torsions:
REMARK  status: ('A' for Active; 'I' for Inactive)
REMARK    1  A    between atoms: C_2  and  C_3 
REMARK    2  A    between atoms: C_3  and  C_4 
REMARK    3  A    between atoms: N_7  and  C_8 
REMARK    4  A    between atoms: C_13  and  C_14 
ROOT
HETATM    1  C   UNL     1     -41.570  55.304 -54.143  1.00  0.00     0.017 A 
HETATM    2  C   UNL     1     -42.937  55.173 -54.379  1.00  0.00     0.033 A 
HETATM    3  C   UNL     1     -43.787  56.245 -54.142  1.00  0.00     0.099 A 
HETATM    4  N   UNL     1     -43.315  57.434 -53.686  1.00  0.00    -0.318 N 
HETATM    5  C   UNL     1     -41.984  57.565 -53.435  1.00  0.00     0.099 A 
HETATM    6  C   UNL     1     -41.091  56.520 -53.670  1.00  0.00     0.033 A 
ENDROOT
BRANCH   1   7
HETATM    7  C   UNL     1     -40.689  54.158 -54.490  1.00  0.00     0.192 C 
HETATM    8  O   UNL     1     -40.207  54.122 -55.618  1.00  0.00    -0.287 OA
BRANCH   7   9
HETATM    9  C   UNL     1     -40.346  53.092 -53.525  1.00  0.00     0.015 A 
HETATM   10  C   UNL     1     -39.996  51.833 -54.026  1.00  0.00     0.017 A 
HETATM   11  C   UNL     1     -39.669  50.797 -53.148  1.00  0.00     0.025 A 
HETATM   12  C   UNL     1     -39.709  51.020 -51.772  1.00  0.00     0.034 A 
HETATM   13  C   UNL     1     -40.084  52.265 -51.266  1.00  0.00     0.025 A 
HETATM   14 CL   UNL     1     -39.302  49.748 -50.688  1.00  0.00    -0.084 Cl
HETATM   15  C   UNL     1     -40.412  53.304 -52.142  1.00  0.00     0.017 A 
ENDBRANCH   7   9
ENDBRANCH   1   7
BRANCH   4  16
HETATM   16  C   UNL     1     -44.218  58.491 -53.454  1.00  0.00     0.135 A 
HETATM   17  N   UNL     1     -44.505  59.398 -54.447  1.00  0.00    -0.302 N 
HETATM   18  C   UNL     1     -45.396  60.391 -54.129  1.00  0.00     0.290 A 
HETATM   19  H   UNL     1     -44.164  59.362 -55.398  1.00  0.00     0.171 HD
HETATM   20  O   UNL     1     -45.787  61.265 -54.875  1.00  0.00    -0.260 OA
HETATM   21  S   UNL     1     -45.885  60.174 -52.455  1.00  0.00    -0.022 SA
HETATM   22  C   UNL     1     -44.867  58.772 -52.309  1.00  0.00     0.092 A 
BRANCH  22  23
HETATM   23  C   UNL     1     -44.742  58.141 -50.987  1.00  0.00     0.281 C 
HETATM   24  O   UNL     1     -45.067  56.975 -50.802  1.00  0.00    -0.301 OA
ENDBRANCH  22  23
ENDBRANCH   4  16
TORSDOF 4
ENDMDL
MODEL 5
REMARK VINA RESULT:      -7.2      1.197      2.589
REMARK  4 active torsions:
REMARK  status: ('A' for Active; 'I' for Inactive)
REMARK    1  A    between atoms: C_2  and  C_3 
REMARK    2  A    between atoms: C_3  and  C_4 
REMARK    3  A    between atoms: N_7  and  C_8 
REMARK    4  A    between atoms: C_13  and  C_14 
ROOT
HETATM    1  C   UNL     1     -41.548  55.678 -51.307  1.00  0.00     0.017 A 
HETATM    2  C   UNL     1     -42.923  55.452 -51.349  1.00  0.00     0.033 A 
HETATM    3  C   UNL     1     -43.775  56.451 -51.800  1.00  0.00     0.099 A 
HETATM    4  N   UNL     1     -43.297  57.655 -52.212  1.00  0.00    -0.318 N 
HETATM    5  C   UNL     1     -41.959  57.889 -52.157  1.00  0.00     0.099 A 
HETATM    6  C   UNL     1     -41.064  56.912 -51.723  1.00  0.00     0.033 A 
ENDROOT
BRANCH   1   7
HETATM    7  C   UNL     1     -40.669  54.552 -50.896  1.00  0.00     0.192 C 
HETATM    8  O   UNL     1     -40.207  54.565 -49.760  1.00  0.00    -0.287 OA
BRANCH   7   9
HETATM    9  C   UNL     1     -40.362  53.411 -51.785  1.00  0.00     0.015 A 
HETATM   10  C   UNL     1     -40.619  53.550 -53.154  1.00  0.00     0.017 A 
HETATM   11  C   UNL     1     -40.347  52.495 -54.027  1.00  0.00     0.025 A 
HETATM   12  C   UNL     1     -39.836  51.298 -53.527  1.00  0.00     0.034 A 
HETATM   13  C   UNL     1     -39.604  51.144 -52.160  1.00  0.00     0.025 A 
HETATM   14 CL   UNL     1     -39.495  49.999 -54.600  1.00  0.00    -0.084 Cl
HETATM   15  C   UNL     1     -39.875  52.198 -51.282  1.00  0.00     0.017 A 
ENDBRANCH   7   9
ENDBRANCH   1   7
BRANCH   4  16
HETATM   16  C   UNL     1     -44.203  58.640 -52.656  1.00  0.00     0.135 A 
HETATM   17  N   UNL     1     -44.316  58.935 -53.994  1.00  0.00    -0.302 N 
HETATM   18  C   UNL     1     -45.224  59.907 -54.331  1.00  0.00     0.290 A 
HETATM   19  H   UNL     1     -43.836  58.463 -54.747  1.00  0.00     0.171 HD
HETATM   20  O   UNL     1     -45.479  60.287 -55.456  1.00  0.00    -0.260 OA
HETATM   21  S   UNL     1     -45.966  60.500 -52.853  1.00  0.00    -0.022 SA
HETATM   22  C   UNL     1     -45.012  59.403 -51.899  1.00  0.00     0.092 A 
BRANCH  22  23
HETATM   23  C   UNL     1     -45.103  59.499 -50.435  1.00  0.00     0.281 C 
HETATM   24  O   UNL     1     -46.154  59.280 -49.845  1.00  0.00    -0.301 OA
ENDBRANCH  22  23
ENDBRANCH   4  16
TORSDOF 4
ENDMDL
MODEL 6
REMARK VINA RESULT:      -7.2      3.792      5.132
REMARK  4 active torsions:
REMARK  status: ('A' for Active; 'I' for Inactive)
REMARK    1  A    between atoms: C_2  and  C_3 
REMARK    2  A    between atoms: C_3  and  C_4 
REMARK    3  A    between atoms: N_7  and  C_8 
REMARK    4  A    between atoms: C_13  and  C_14 
ROOT
HETATM    1  C   UNL     1     -41.930  55.654 -53.240  1.00  0.00     0.017 A 
HETATM    2  C   UNL     1     -43.026  55.042 -53.843  1.00  0.00     0.033 A 
HETATM    3  C   UNL     1     -43.411  55.417 -55.124  1.00  0.00     0.099 A 
HETATM    4  N   UNL     1     -42.735  56.372 -55.814  1.00  0.00    -0.318 N 
HETATM    5  C   UNL     1     -41.674  56.987 -55.225  1.00  0.00     0.099 A 
HETATM    6  C   UNL     1     -41.244  56.635 -53.946  1.00  0.00     0.033 A 
ENDROOT
BRANCH   1   7
HETATM    7  C   UNL     1     -41.504  55.162 -51.903  1.00  0.00     0.192 C 
HETATM    8  O   UNL     1     -41.672  55.899 -50.936  1.00  0.00    -0.287 OA
BRANCH   7   9
HETATM    9  C   UNL     1     -40.925  53.818 -51.692  1.00  0.00     0.015 A 
HETATM   10  C   UNL     1     -40.930  53.290 -50.396  1.00  0.00     0.017 A 
HETATM   11  C   UNL     1     -40.390  52.026 -50.154  1.00  0.00     0.025 A 
HETATM   12  C   UNL     1     -39.831  51.300 -51.206  1.00  0.00     0.034 A 
HETATM   13  C   UNL     1     -39.799  51.833 -52.495  1.00  0.00     0.025 A 
HETATM   14 CL   UNL     1     -39.170  49.740 -50.912  1.00  0.00    -0.084 Cl
HETATM   15  C   UNL     1     -40.339  53.099 -52.741  1.00  0.00     0.017 A 
ENDBRANCH   7   9
ENDBRANCH   1   7
BRANCH   4  16
HETATM   16  C   UNL     1     -43.168  56.723 -57.108  1.00  0.00     0.135 A 
HETATM   17  N   UNL     1     -42.536  56.217 -58.220  1.00  0.00    -0.302 N 
HETATM   18  C   UNL     1     -43.028  56.614 -59.437  1.00  0.00     0.290 A 
HETATM   19  H   UNL     1     -41.786  55.539 -58.217  1.00  0.00     0.171 HD
HETATM   20  O   UNL     1     -42.617  56.258 -60.523  1.00  0.00    -0.260 OA
HETATM   21  S   UNL     1     -44.365  57.718 -59.154  1.00  0.00    -0.022 SA
HETATM   22  C   UNL     1     -44.167  57.562 -57.434  1.00  0.00     0.092 A 
BRANCH  22  23
HETATM   23  C   UNL     1     -44.998  58.406 -56.562  1.00  0.00     0.281 C 
HETATM   24  O   UNL     1     -45.773  57.918 -55.750  1.00  0.00    -0.301 OA
ENDBRANCH  22  23
ENDBRANCH   4  16
TORSDOF 4
ENDMDL
MODEL 7
REMARK VINA RESULT:      -7.1      4.490      5.530
REMARK  4 active torsions:
REMARK  status: ('A' for Active; 'I' for Inactive)
REMARK    1  A    between atoms: C_2  and  C_3 
REMARK    2  A    between atoms: C_3  and  C_4 
REMARK    3  A    between atoms: N_7  and  C_8 
REMARK    4  A    between atoms: C_13  and  C_14 
ROOT
HETATM    1  C   UNL     1     -41.431  54.359 -54.619  1.00  0.00     0.017 A 
HETATM    2  C   UNL     1     -42.578  53.840 -55.217  1.00  0.00     0.033 A 
HETATM    3  C   UNL     1     -43.320  54.625 -56.091  1.00  0.00     0.099 A 
HETATM    4  N   UNL     1     -42.947  55.898 -56.386  1.00  0.00    -0.318 N 
HETATM    5  C   UNL     1     -41.839  56.418 -55.793  1.00  0.00     0.099 A 
HETATM    6  C   UNL     1     -41.057  55.663 -54.919  1.00  0.00     0.033 A 
ENDROOT
BRANCH   1   7
HETATM    7  C   UNL     1     -40.625  53.456 -53.757  1.00  0.00     0.192 C 
HETATM    8  O   UNL     1     -39.944  52.593 -54.302  1.00  0.00    -0.287 OA
BRANCH   7   9
HETATM    9  C   UNL     1     -40.585  53.581 -52.284  1.00  0.00     0.015 A 
HETATM   10  C   UNL     1     -40.244  52.451 -51.532  1.00  0.00     0.017 A 
HETATM   11  C   UNL     1     -40.199  52.526 -50.139  1.00  0.00     0.025 A 
HETATM   12  C   UNL     1     -40.511  53.726 -49.501  1.00  0.00     0.034 A 
HETATM   13  C   UNL     1     -40.880  54.847 -50.244  1.00  0.00     0.025 A 
HETATM   14 CL   UNL     1     -40.452  53.823 -47.785  1.00  0.00    -0.084 Cl
HETATM   15  C   UNL     1     -40.926  54.776 -51.639  1.00  0.00     0.017 A 
ENDBRANCH   7   9
ENDBRANCH   1   7
BRANCH   4  16
HETATM   16  C   UNL     1     -43.736  56.657 -57.274  1.00  0.00     0.135 A 
HETATM   17  N   UNL     1     -44.738  57.471 -56.800  1.00  0.00    -0.302 N 
HETATM   18  C   UNL     1     -45.452  58.172 -57.739  1.00  0.00     0.290 A 
HETATM   19  H   UNL     1     -44.954  57.639 -55.827  1.00  0.00     0.171 HD
HETATM   20  O   UNL     1     -46.355  58.952 -57.513  1.00  0.00    -0.260 OA
HETATM   21  S   UNL     1     -44.826  57.756 -59.327  1.00  0.00    -0.022 SA
HETATM   22  C   UNL     1     -43.657  56.682 -58.616  1.00  0.00     0.092 A 
BRANCH  22  23
HETATM   23  C   UNL     1     -42.824  55.872 -59.518  1.00  0.00     0.281 C 
HETATM   24  O   UNL     1     -42.036  56.391 -60.298  1.00  0.00    -0.301 OA
ENDBRANCH  22  23
ENDBRANCH   4  16
TORSDOF 4
ENDMDL
MODEL 8
REMARK VINA RESULT:      -7.0      2.396      2.935
REMARK  4 active torsions:
REMARK  status: ('A' for Active; 'I' for Inactive)
REMARK    1  A    between atoms: C_2  and  C_3 
REMARK    2  A    between atoms: C_3  and  C_4 
REMARK    3  A    between atoms: N_7  and  C_8 
REMARK    4  A    between atoms: C_13  and  C_14 
ROOT
HETATM    1  C   UNL     1     -41.475  55.141 -53.874  1.00  0.00     0.017 A 
HETATM    2  C   UNL     1     -40.943  56.417 -54.049  1.00  0.00     0.033 A 
HETATM    3  C   UNL     1     -41.610  57.522 -53.537  1.00  0.00     0.099 A 
HETATM    4  N   UNL     1     -42.779  57.389 -52.856  1.00  0.00    -0.318 N 
HETATM    5  C   UNL     1     -43.314  56.149 -52.697  1.00  0.00     0.099 A 
HETATM    6  C   UNL     1     -42.673  55.010 -53.183  1.00  0.00     0.033 A 
ENDROOT
BRANCH   1   7
HETATM    7  C   UNL     1     -40.684  53.982 -54.366  1.00  0.00     0.192 C 
HETATM    8  O   UNL     1     -40.306  53.995 -55.532  1.00  0.00    -0.287 OA
BRANCH   7   9
HETATM    9  C   UNL     1     -40.312  52.843 -53.500  1.00  0.00     0.015 A 
HETATM   10  C   UNL     1     -40.169  53.073 -52.126  1.00  0.00     0.017 A 
HETATM   11  C   UNL     1     -39.815  52.025 -51.275  1.00  0.00     0.025 A 
HETATM   12  C   UNL     1     -39.588  50.754 -51.801  1.00  0.00     0.034 A 
HETATM   13  C   UNL     1     -39.701  50.525 -53.172  1.00  0.00     0.025 A 
HETATM   14 CL   UNL     1     -39.156  49.460 -50.754  1.00  0.00    -0.084 Cl
HETATM   15  C   UNL     1     -40.056  51.572 -54.028  1.00  0.00     0.017 A 
ENDBRANCH   7   9
ENDBRANCH   1   7
BRANCH   4  16
HETATM   16  C   UNL     1     -43.422  58.541 -52.362  1.00  0.00     0.135 A 
HETATM   17  N   UNL     1     -44.648  58.925 -52.853  1.00  0.00    -0.302 N 
HETATM   18  C   UNL     1     -45.197  60.059 -52.310  1.00  0.00     0.290 A 
HETATM   19  H   UNL     1     -45.199  58.417 -53.531  1.00  0.00     0.171 HD
HETATM   20  O   UNL     1     -46.274  60.539 -52.599  1.00  0.00    -0.260 OA
HETATM   21  S   UNL     1     -44.076  60.693 -51.114  1.00  0.00    -0.022 SA
HETATM   22  C   UNL     1     -42.963  59.393 -51.427  1.00  0.00     0.092 A 
BRANCH  22  23
HETATM   23  C   UNL     1     -41.656  59.424 -50.754  1.00  0.00     0.281 C 
HETATM   24  O   UNL     1     -41.197  58.430 -50.204  1.00  0.00    -0.301 OA
ENDBRANCH  22  23
ENDBRANCH   4  16
TORSDOF 4
ENDMDL
MODEL 9
REMARK VINA RESULT:      -6.9      2.916      4.007
REMARK  4 active torsions:
REMARK  status: ('A' for Active; 'I' for Inactive)
REMARK    1  A    between atoms: C_2  and  C_3 
REMARK    2  A    between atoms: C_3  and  C_4 
REMARK    3  A    between atoms: N_7  and  C_8 
REMARK    4  A    between atoms: C_13  and  C_14 
ROOT
HETATM    1  C   UNL     1     -42.141  55.639 -53.513  1.00  0.00     0.017 A 
HETATM    2  C   UNL     1     -41.586  56.551 -54.409  1.00  0.00     0.033 A 
HETATM    3  C   UNL     1     -42.412  57.285 -55.250  1.00  0.00     0.099 A 
HETATM    4  N   UNL     1     -43.763  57.140 -55.217  1.00  0.00    -0.318 N 
HETATM    5  C   UNL     1     -44.311  56.238 -54.358  1.00  0.00     0.099 A 
HETATM    6  C   UNL     1     -43.522  55.489 -53.486  1.00  0.00     0.033 A 
ENDROOT
BRANCH   1   7
HETATM    7  C   UNL     1     -41.225  54.937 -52.575  1.00  0.00     0.192 C 
HETATM    8  O   UNL     1     -40.898  55.518 -51.545  1.00  0.00    -0.287 OA
BRANCH   7   9
HETATM    9  C   UNL     1     -40.727  53.566 -52.819  1.00  0.00     0.015 A 
HETATM   10  C   UNL     1     -40.095  52.894 -51.766  1.00  0.00     0.017 A 
HETATM   11  C   UNL     1     -39.608  51.599 -51.956  1.00  0.00     0.025 A 
HETATM   12  C   UNL     1     -39.739  50.987 -53.202  1.00  0.00     0.034 A 
HETATM   13  C   UNL     1     -40.343  51.663 -54.263  1.00  0.00     0.025 A 
HETATM   14 CL   UNL     1     -39.145  49.391 -53.438  1.00  0.00    -0.084 Cl
HETATM   15  C   UNL     1     -40.833  52.960 -54.076  1.00  0.00     0.017 A 
ENDBRANCH   7   9
ENDBRANCH   1   7
BRANCH   4  16
HETATM   16  C   UNL     1     -44.559  57.902 -56.095  1.00  0.00     0.135 A 
HETATM   17  N   UNL     1     -44.790  57.475 -57.381  1.00  0.00    -0.302 N 
HETATM   18  C   UNL     1     -45.577  58.283 -58.162  1.00  0.00     0.290 A 
HETATM   19  H   UNL     1     -44.482  56.598 -57.778  1.00  0.00     0.171 HD
HETATM   20  O   UNL     1     -45.908  58.063 -59.310  1.00  0.00    -0.260 OA
HETATM   21  S   UNL     1     -46.036  59.687 -57.211  1.00  0.00    -0.022 SA
HETATM   22  C   UNL     1     -45.146  59.086 -55.842  1.00  0.00     0.092 A 
BRANCH  22  23
HETATM   23  C   UNL     1     -45.042  59.944 -54.653  1.00  0.00     0.281 C 
HETATM   24  O   UNL     1     -45.461  59.578 -53.562  1.00  0.00    -0.301 OA
ENDBRANCH  22  23
ENDBRANCH   4  16
TORSDOF 4
ENDMDL
MODEL 10
REMARK VINA RESULT:      -6.8      1.846      2.008
REMARK  4 active torsions:
REMARK  status: ('A' for Active; 'I' for Inactive)
REMARK    1  A    between atoms: C_2  and  C_3 
REMARK    2  A    between atoms: C_3  and  C_4 
REMARK    3  A    between atoms: N_7  and  C_8 
REMARK    4  A    between atoms: C_13  and  C_14 
ROOT
HETATM    1  C   UNL     1     -41.864  55.855 -52.205  1.00  0.00     0.017 A 
HETATM    2  C   UNL     1     -41.251  56.922 -52.860  1.00  0.00     0.033 A 
HETATM    3  C   UNL     1     -42.022  57.964 -53.357  1.00  0.00     0.099 A 
HETATM    4  N   UNL     1     -43.373  57.974 -53.216  1.00  0.00    -0.318 N 
HETATM    5  C   UNL     1     -43.980  56.928 -52.594  1.00  0.00     0.099 A 
HETATM    6  C   UNL     1     -43.246  55.866 -52.068  1.00  0.00     0.033 A 
ENDROOT
BRANCH   1   7
HETATM    7  C   UNL     1     -40.992  54.804 -51.616  1.00  0.00     0.192 C 
HETATM    8  O   UNL     1     -40.594  54.962 -50.467  1.00  0.00    -0.287 OA
BRANCH   7   9
HETATM    9  C   UNL     1     -40.621  53.572 -52.345  1.00  0.00     0.015 A 
HETATM   10  C   UNL     1     -39.859  52.609 -51.673  1.00  0.00     0.017 A 
HETATM   11  C   UNL     1     -39.485  51.434 -52.326  1.00  0.00     0.025 A 
HETATM   12  C   UNL     1     -39.860  51.232 -53.654  1.00  0.00     0.034 A 
HETATM   13  C   UNL     1     -40.595  52.200 -54.337  1.00  0.00     0.025 A 
HETATM   14 CL   UNL     1     -39.405  49.782 -54.460  1.00  0.00    -0.084 Cl
HETATM   15  C   UNL     1     -40.972  53.379 -53.687  1.00  0.00     0.017 A 
ENDBRANCH   7   9
ENDBRANCH   1   7
BRANCH   4  16
HETATM   16  C   UNL     1     -44.113  59.051 -53.743  1.00  0.00     0.135 A 
HETATM   17  N   UNL     1     -44.399  60.151 -52.969  1.00  0.00    -0.302 N 
HETATM   18  C   UNL     1     -45.123  61.150 -53.569  1.00  0.00     0.290 A 
HETATM   19  H   UNL     1     -44.075  60.310 -52.025  1.00  0.00     0.171 HD
HETATM   20  O   UNL     1     -45.452  62.200 -53.056  1.00  0.00    -0.260 OA
HETATM   21  S   UNL     1     -45.484  60.652 -55.215  1.00  0.00    -0.022 SA
HETATM   22  C   UNL     1     -44.637  59.152 -54.978  1.00  0.00     0.092 A 
BRANCH  22  23
HETATM   23  C   UNL     1     -44.677  58.156 -56.059  1.00  0.00     0.281 C 
HETATM   24  O   UNL     1     -43.753  58.039 -56.854  1.00  0.00    -0.301 OA
ENDBRANCH  22  23
ENDBRANCH   4  16
TORSDOF 4
ENDMDL
