MODEL 1
REMARK VINA RESULT:      -8.4      0.000      0.000
REMARK  4 active torsions:
REMARK  status: ('A' for Active; 'I' for Inactive)
REMARK    1  A    between atoms: S_2  and  C_3 
REMARK    2  A    between atoms: C_3  and  C_4 
REMARK       I    between atoms: C_4  and  N_5 
REMARK    3  A    between atoms: N_5  and  N_6 
REMARK       I    between atoms: N_6  and  C_7 
REMARK    4  A    between atoms: C_7  and  C_8 
ROOT
HETATM    1  C   UNL     1     -41.801  55.230 -54.850  1.00  0.00     0.103 A 
HETATM    2  N   UNL     1     -41.520  55.496 -53.529  1.00  0.00    -0.351 N 
HETATM    3  H   UNL     1     -41.714  56.383 -53.082  1.00  0.00     0.166 HD
HETATM    4  C   UNL     1     -40.982  54.396 -52.903  1.00  0.00     0.044 A 
HETATM    5  C   UNL     1     -40.895  53.380 -53.854  1.00  0.00     0.004 A 
HETATM    6  C   UNL     1     -41.403  53.923 -55.075  1.00  0.00     0.050 A 
HETATM    7  C   UNL     1     -40.577  54.231 -51.576  1.00  0.00     0.031 A 
HETATM    8  C   UNL     1     -40.074  52.982 -51.199  1.00  0.00     0.014 A 
HETATM    9  C   UNL     1     -39.971  51.923 -52.112  1.00  0.00    -0.025 A 
HETATM   10  C   UNL     1     -40.378  52.111 -53.456  1.00  0.00    -0.013 A 
HETATM   11  C   UNL     1     -39.473  50.669 -51.724  1.00  0.00     0.012 A 
HETATM   12  C   UNL     1     -39.379  49.620 -52.642  1.00  0.00     0.001 A 
HETATM   13  C   UNL     1     -39.779  49.807 -53.964  1.00  0.00     0.001 A 
HETATM   14  C   UNL     1     -40.276  51.045 -54.373  1.00  0.00     0.013 A 
ENDROOT
BRANCH   1  15
HETATM   15  C   UNL     1     -42.422  56.217 -55.704  1.00  0.00     0.286 C 
HETATM   16  N   UNL     1     -43.383  55.733 -56.568  1.00  0.00    -0.262 N 
HETATM   17  H   UNL     1     -43.516  54.741 -56.742  1.00  0.00     0.190 HD
HETATM   18  O   UNL     1     -42.124  57.411 -55.664  1.00  0.00    -0.264 OA
BRANCH  16  19
HETATM   19  N   UNL     1     -44.014  56.617 -57.452  1.00  0.00    -0.267 N 
HETATM   20  C   UNL     1     -43.797  56.440 -58.804  1.00  0.00     0.245 C 
HETATM   21  O   UNL     1     -43.214  55.453 -59.254  1.00  0.00    -0.271 OA
HETATM   22  H   UNL     1     -44.242  57.544 -57.088  1.00  0.00     0.190 HD
BRANCH  20  23
HETATM   23  C   UNL     1     -44.429  57.489 -59.703  1.00  0.00     0.177 C 
BRANCH  23  24
HETATM   24  S   UNL     1     -46.220  57.690 -59.433  1.00  0.00    -0.164 SA
HETATM   25  C   UNL     1     -46.809  56.216 -60.303  1.00  0.00     0.090 C 
ENDBRANCH  23  24
ENDBRANCH  20  23
ENDBRANCH  16  19
ENDBRANCH   1  15
TORSDOF 4
ENDMDL
MODEL 2
REMARK VINA RESULT:      -8.3      0.854      1.279
REMARK  4 active torsions:
REMARK  status: ('A' for Active; 'I' for Inactive)
REMARK    1  A    between atoms: S_2  and  C_3 
REMARK    2  A    between atoms: C_3  and  C_4 
REMARK       I    between atoms: C_4  and  N_5 
REMARK    3  A    between atoms: N_5  and  N_6 
REMARK       I    between atoms: N_6  and  C_7 
REMARK    4  A    between atoms: C_7  and  C_8 
ROOT
HETATM    1  C   UNL     1     -41.763  55.218 -54.831  1.00  0.00     0.103 A 
HETATM    2  N   UNL     1     -41.501  55.476 -53.504  1.00  0.00    -0.351 N 
HETATM    3  H   UNL     1     -41.701  56.361 -53.055  1.00  0.00     0.166 HD
HETATM    4  C   UNL     1     -40.972  54.372 -52.877  1.00  0.00     0.044 A 
HETATM    5  C   UNL     1     -40.872  53.362 -53.833  1.00  0.00     0.004 A 
HETATM    6  C   UNL     1     -41.361  53.912 -55.058  1.00  0.00     0.050 A 
HETATM    7  C   UNL     1     -40.587  54.199 -51.545  1.00  0.00     0.031 A 
HETATM    8  C   UNL     1     -40.089  52.948 -51.168  1.00  0.00     0.014 A 
HETATM    9  C   UNL     1     -39.973  51.895 -52.086  1.00  0.00    -0.025 A 
HETATM   10  C   UNL     1     -40.361  52.091 -53.435  1.00  0.00    -0.013 A 
HETATM   11  C   UNL     1     -39.481  50.638 -51.698  1.00  0.00     0.012 A 
HETATM   12  C   UNL     1     -39.374  49.594 -52.621  1.00  0.00     0.001 A 
HETATM   13  C   UNL     1     -39.754  49.790 -53.947  1.00  0.00     0.001 A 
HETATM   14  C   UNL     1     -40.245  51.030 -54.357  1.00  0.00     0.013 A 
ENDROOT
BRANCH   1  15
HETATM   15  C   UNL     1     -42.371  56.210 -55.688  1.00  0.00     0.286 C 
HETATM   16  N   UNL     1     -43.263  55.721 -56.620  1.00  0.00    -0.262 N 
HETATM   17  H   UNL     1     -43.350  54.731 -56.833  1.00  0.00     0.190 HD
HETATM   18  O   UNL     1     -42.121  57.411 -55.594  1.00  0.00    -0.264 OA
BRANCH  16  19
HETATM   19  N   UNL     1     -43.877  56.611 -57.511  1.00  0.00    -0.267 N 
HETATM   20  C   UNL     1     -43.988  56.225 -58.832  1.00  0.00     0.245 C 
HETATM   21  O   UNL     1     -43.722  55.083 -59.209  1.00  0.00    -0.271 OA
HETATM   22  H   UNL     1     -43.833  57.603 -57.271  1.00  0.00     0.190 HD
BRANCH  20  23
HETATM   23  C   UNL     1     -44.572  57.272 -59.765  1.00  0.00     0.177 C 
BRANCH  23  24
HETATM   24  S   UNL     1     -43.519  58.749 -59.942  1.00  0.00    -0.164 SA
HETATM   25  C   UNL     1     -41.941  57.937 -60.295  1.00  0.00     0.090 C 
ENDBRANCH  23  24
ENDBRANCH  20  23
ENDBRANCH  16  19
ENDBRANCH   1  15
TORSDOF 4
ENDMDL
MODEL 3
REMARK VINA RESULT:      -8.0      5.008      6.404
REMARK  4 active torsions:
REMARK  status: ('A' for Active; 'I' for Inactive)
REMARK    1  A    between atoms: S_2  and  C_3 
REMARK    2  A    between atoms: C_3  and  C_4 
REMARK       I    between atoms: C_4  and  N_5 
REMARK    3  A    between atoms: N_5  and  N_6 
REMARK       I    between atoms: N_6  and  C_7 
REMARK    4  A    between atoms: C_7  and  C_8 
ROOT
HETATM    1  C   UNL     1     -41.810  57.164 -52.036  1.00  0.00     0.103 A 
HETATM    2  N   UNL     1     -41.753  57.003 -53.402  1.00  0.00    -0.351 N 
HETATM    3  H   UNL     1     -41.994  57.732 -54.063  1.00  0.00     0.166 HD
HETATM    4  C   UNL     1     -41.299  55.750 -53.737  1.00  0.00     0.044 A 
HETATM    5  C   UNL     1     -41.064  55.063 -52.548  1.00  0.00     0.004 A 
HETATM    6  C   UNL     1     -41.402  55.961 -51.487  1.00  0.00     0.050 A 
HETATM    7  C   UNL     1     -41.074  55.187 -54.997  1.00  0.00     0.031 A 
HETATM    8  C   UNL     1     -40.585  53.878 -55.047  1.00  0.00     0.014 A 
HETATM    9  C   UNL     1     -40.325  53.143 -53.882  1.00  0.00    -0.025 A 
HETATM   10  C   UNL     1     -40.566  53.728 -52.614  1.00  0.00    -0.013 A 
HETATM   11  C   UNL     1     -39.825  51.833 -53.941  1.00  0.00     0.012 A 
HETATM   12  C   UNL     1     -39.566  51.112 -52.772  1.00  0.00     0.001 A 
HETATM   13  C   UNL     1     -39.804  51.688 -51.526  1.00  0.00     0.001 A 
HETATM   14  C   UNL     1     -40.302  52.989 -51.442  1.00  0.00     0.013 A 
ENDROOT
BRANCH   1  15
HETATM   15  C   UNL     1     -42.210  58.418 -51.438  1.00  0.00     0.286 C 
HETATM   16  N   UNL     1     -43.504  58.463 -50.965  1.00  0.00    -0.262 N 
HETATM   17  H   UNL     1     -44.196  57.752 -51.185  1.00  0.00     0.190 HD
HETATM   18  O   UNL     1     -41.450  59.383 -51.349  1.00  0.00    -0.264 OA
BRANCH  16  19
HETATM   19  N   UNL     1     -43.984  59.650 -50.397  1.00  0.00    -0.267 N 
HETATM   20  C   UNL     1     -45.346  59.770 -50.208  1.00  0.00     0.245 C 
HETATM   21  O   UNL     1     -46.118  58.824 -50.366  1.00  0.00    -0.271 OA
HETATM   22  H   UNL     1     -43.411  60.486 -50.530  1.00  0.00     0.190 HD
BRANCH  20  23
HETATM   23  C   UNL     1     -45.811  61.117 -49.682  1.00  0.00     0.177 C 
BRANCH  23  24
HETATM   24  S   UNL     1     -45.187  61.494 -48.011  1.00  0.00    -0.164 SA
HETATM   25  C   UNL     1     -46.694  62.197 -47.294  1.00  0.00     0.090 C 
ENDBRANCH  23  24
ENDBRANCH  20  23
ENDBRANCH  16  19
ENDBRANCH   1  15
TORSDOF 4
ENDMDL
MODEL 4
REMARK VINA RESULT:      -7.9      5.016      6.179
REMARK  4 active torsions:
REMARK  status: ('A' for Active; 'I' for Inactive)
REMARK    1  A    between atoms: S_2  and  C_3 
REMARK    2  A    between atoms: C_3  and  C_4 
REMARK       I    between atoms: C_4  and  N_5 
REMARK    3  A    between atoms: N_5  and  N_6 
REMARK       I    between atoms: N_6  and  C_7 
REMARK    4  A    between atoms: C_7  and  C_8 
ROOT
HETATM    1  C   UNL     1     -41.792  57.268 -51.335  1.00  0.00     0.103 A 
HETATM    2  N   UNL     1     -41.455  56.604 -50.177  1.00  0.00    -0.351 N 
HETATM    3  H   UNL     1     -41.564  57.000 -49.252  1.00  0.00     0.166 HD
HETATM    4  C   UNL     1     -40.992  55.338 -50.447  1.00  0.00     0.044 A 
HETATM    5  C   UNL     1     -41.015  55.175 -51.831  1.00  0.00     0.004 A 
HETATM    6  C   UNL     1     -41.509  56.401 -52.376  1.00  0.00     0.050 A 
HETATM    7  C   UNL     1     -40.568  54.335 -49.571  1.00  0.00     0.031 A 
HETATM    8  C   UNL     1     -40.159  53.117 -50.123  1.00  0.00     0.014 A 
HETATM    9  C   UNL     1     -40.168  52.897 -51.508  1.00  0.00    -0.025 A 
HETATM   10  C   UNL     1     -40.593  53.928 -52.382  1.00  0.00    -0.013 A 
HETATM   11  C   UNL     1     -39.764  51.668 -52.055  1.00  0.00     0.012 A 
HETATM   12  C   UNL     1     -39.781  51.459 -53.436  1.00  0.00     0.001 A 
HETATM   13  C   UNL     1     -40.199  52.474 -54.294  1.00  0.00     0.001 A 
HETATM   14  C   UNL     1     -40.604  53.704 -53.774  1.00  0.00     0.013 A 
ENDROOT
BRANCH   1  15
HETATM   15  C   UNL     1     -42.353  58.600 -51.306  1.00  0.00     0.286 C 
HETATM   16  N   UNL     1     -43.560  58.721 -50.651  1.00  0.00    -0.262 N 
HETATM   17  H   UNL     1     -44.121  57.918 -50.377  1.00  0.00     0.190 HD
HETATM   18  O   UNL     1     -41.793  59.567 -51.823  1.00  0.00    -0.264 OA
BRANCH  16  19
HETATM   19  N   UNL     1     -44.189  59.972 -50.602  1.00  0.00    -0.267 N 
HETATM   20  C   UNL     1     -45.562  59.998 -50.463  1.00  0.00     0.245 C 
HETATM   21  O   UNL     1     -46.219  58.985 -50.221  1.00  0.00    -0.271 OA
HETATM   22  H   UNL     1     -43.707  60.746 -51.064  1.00  0.00     0.190 HD
BRANCH  20  23
HETATM   23  C   UNL     1     -46.192  61.379 -50.515  1.00  0.00     0.177 C 
BRANCH  23  24
HETATM   24  S   UNL     1     -45.526  62.525 -49.264  1.00  0.00    -0.164 SA
HETATM   25  C   UNL     1     -45.942  61.592 -47.769  1.00  0.00     0.090 C 
ENDBRANCH  23  24
ENDBRANCH  20  23
ENDBRANCH  16  19
ENDBRANCH   1  15
TORSDOF 4
ENDMDL
MODEL 5
REMARK VINA RESULT:      -7.9      4.965      6.604
REMARK  4 active torsions:
REMARK  status: ('A' for Active; 'I' for Inactive)
REMARK    1  A    between atoms: S_2  and  C_3 
REMARK    2  A    between atoms: C_3  and  C_4 
REMARK       I    between atoms: C_4  and  N_5 
REMARK    3  A    between atoms: N_5  and  N_6 
REMARK       I    between atoms: N_6  and  C_7 
REMARK    4  A    between atoms: C_7  and  C_8 
ROOT
HETATM    1  C   UNL     1     -43.697  56.386 -51.779  1.00  0.00     0.103 A 
HETATM    2  N   UNL     1     -43.947  56.092 -53.101  1.00  0.00    -0.351 N 
HETATM    3  H   UNL     1     -44.615  56.596 -53.670  1.00  0.00     0.166 HD
HETATM    4  C   UNL     1     -43.151  55.061 -53.541  1.00  0.00     0.044 A 
HETATM    5  C   UNL     1     -42.362  54.659 -52.465  1.00  0.00     0.004 A 
HETATM    6  C   UNL     1     -42.726  55.492 -51.361  1.00  0.00     0.050 A 
HETATM    7  C   UNL     1     -43.070  54.470 -54.805  1.00  0.00     0.031 A 
HETATM    8  C   UNL     1     -42.146  53.436 -54.983  1.00  0.00     0.014 A 
HETATM    9  C   UNL     1     -41.324  52.995 -53.936  1.00  0.00    -0.025 A 
HETATM   10  C   UNL     1     -41.425  53.600 -52.659  1.00  0.00    -0.013 A 
HETATM   11  C   UNL     1     -40.392  51.962 -54.125  1.00  0.00     0.012 A 
HETATM   12  C   UNL     1     -39.574  51.534 -53.075  1.00  0.00     0.001 A 
HETATM   13  C   UNL     1     -39.677  52.130 -51.820  1.00  0.00     0.001 A 
HETATM   14  C   UNL     1     -40.596  53.158 -51.608  1.00  0.00     0.013 A 
ENDROOT
BRANCH   1  15
HETATM   15  C   UNL     1     -44.375  57.469 -51.104  1.00  0.00     0.286 C 
HETATM   16  N   UNL     1     -43.611  58.594 -50.874  1.00  0.00    -0.262 N 
HETATM   17  H   UNL     1     -42.601  58.606 -50.984  1.00  0.00     0.190 HD
HETATM   18  O   UNL     1     -45.556  57.402 -50.762  1.00  0.00    -0.264 OA
BRANCH  16  19
HETATM   19  N   UNL     1     -44.182  59.680 -50.198  1.00  0.00    -0.267 N 
HETATM   20  C   UNL     1     -43.514  60.888 -50.239  1.00  0.00     0.245 C 
HETATM   21  O   UNL     1     -42.542  61.078 -50.971  1.00  0.00    -0.271 OA
HETATM   22  H   UNL     1     -44.790  59.460 -49.407  1.00  0.00     0.190 HD
BRANCH  20  23
HETATM   23  C   UNL     1     -44.131  61.998 -49.407  1.00  0.00     0.177 C 
BRANCH  23  24
HETATM   24  S   UNL     1     -45.611  61.471 -48.482  1.00  0.00    -0.164 SA
HETATM   25  C   UNL     1     -44.853  61.188 -46.863  1.00  0.00     0.090 C 
ENDBRANCH  23  24
ENDBRANCH  20  23
ENDBRANCH  16  19
ENDBRANCH   1  15
TORSDOF 4
ENDMDL
MODEL 6
REMARK VINA RESULT:      -7.9      3.996      5.084
REMARK  4 active torsions:
REMARK  status: ('A' for Active; 'I' for Inactive)
REMARK    1  A    between atoms: S_2  and  C_3 
REMARK    2  A    between atoms: C_3  and  C_4 
REMARK       I    between atoms: C_4  and  N_5 
REMARK    3  A    between atoms: N_5  and  N_6 
REMARK       I    between atoms: N_6  and  C_7 
REMARK    4  A    between atoms: C_7  and  C_8 
ROOT
HETATM    1  C   UNL     1     -41.610  55.902 -52.229  1.00  0.00     0.103 A 
HETATM    2  N   UNL     1     -41.285  55.490 -53.502  1.00  0.00    -0.351 N 
HETATM    3  H   UNL     1     -41.358  56.083 -54.319  1.00  0.00     0.166 HD
HETATM    4  C   UNL     1     -40.822  54.195 -53.503  1.00  0.00     0.044 A 
HETATM    5  C   UNL     1     -40.859  53.741 -52.186  1.00  0.00     0.004 A 
HETATM    6  C   UNL     1     -41.368  54.821 -51.399  1.00  0.00     0.050 A 
HETATM    7  C   UNL     1     -40.371  53.408 -54.566  1.00  0.00     0.031 A 
HETATM    8  C   UNL     1     -39.933  52.112 -54.277  1.00  0.00     0.014 A 
HETATM    9  C   UNL     1     -39.943  51.606 -52.969  1.00  0.00    -0.025 A 
HETATM   10  C   UNL     1     -40.411  52.416 -51.905  1.00  0.00    -0.013 A 
HETATM   11  C   UNL     1     -39.493  50.306 -52.685  1.00  0.00     0.012 A 
HETATM   12  C   UNL     1     -39.504  49.815 -51.377  1.00  0.00     0.001 A 
HETATM   13  C   UNL     1     -39.966  50.612 -50.333  1.00  0.00     0.001 A 
HETATM   14  C   UNL     1     -40.419  51.907 -50.590  1.00  0.00     0.013 A 
ENDROOT
BRANCH   1  15
HETATM   15  C   UNL     1     -42.072  57.245 -51.964  1.00  0.00     0.286 C 
HETATM   16  N   UNL     1     -43.076  57.352 -51.024  1.00  0.00    -0.262 N 
HETATM   17  H   UNL     1     -43.596  56.549 -50.681  1.00  0.00     0.190 HD
HETATM   18  O   UNL     1     -41.601  58.233 -52.530  1.00  0.00    -0.264 OA
BRANCH  16  19
HETATM   19  N   UNL     1     -43.603  58.616 -50.729  1.00  0.00    -0.267 N 
HETATM   20  C   UNL     1     -44.976  58.762 -50.747  1.00  0.00     0.245 C 
HETATM   21  O   UNL     1     -45.739  57.800 -50.851  1.00  0.00    -0.271 OA
HETATM   22  H   UNL     1     -43.002  59.420 -50.919  1.00  0.00     0.190 HD
BRANCH  20  23
HETATM   23  C   UNL     1     -45.480  60.176 -50.516  1.00  0.00     0.177 C 
BRANCH  23  24
HETATM   24  S   UNL     1     -46.455  60.832 -51.909  1.00  0.00    -0.164 SA
HETATM   25  C   UNL     1     -45.501  60.138 -53.281  1.00  0.00     0.090 C 
ENDBRANCH  23  24
ENDBRANCH  20  23
ENDBRANCH  16  19
ENDBRANCH   1  15
TORSDOF 4
ENDMDL
MODEL 7
REMARK VINA RESULT:      -7.6      4.024      4.863
REMARK  4 active torsions:
REMARK  status: ('A' for Active; 'I' for Inactive)
REMARK    1  A    between atoms: S_2  and  C_3 
REMARK    2  A    between atoms: C_3  and  C_4 
REMARK       I    between atoms: C_4  and  N_5 
REMARK    3  A    between atoms: N_5  and  N_6 
REMARK       I    between atoms: N_6  and  C_7 
REMARK    4  A    between atoms: C_7  and  C_8 
ROOT
HETATM    1  C   UNL     1     -41.279  55.764 -52.321  1.00  0.00     0.103 A 
HETATM    2  N   UNL     1     -41.019  55.314 -53.596  1.00  0.00    -0.351 N 
HETATM    3  H   UNL     1     -41.081  55.898 -54.420  1.00  0.00     0.166 HD
HETATM    4  C   UNL     1     -40.637  53.993 -53.589  1.00  0.00     0.044 A 
HETATM    5  C   UNL     1     -40.662  53.562 -52.264  1.00  0.00     0.004 A 
HETATM    6  C   UNL     1     -41.080  54.683 -51.480  1.00  0.00     0.050 A 
HETATM    7  C   UNL     1     -40.268  53.163 -54.652  1.00  0.00     0.031 A 
HETATM    8  C   UNL     1     -39.903  51.846 -54.353  1.00  0.00     0.014 A 
HETATM    9  C   UNL     1     -39.904  51.362 -53.037  1.00  0.00    -0.025 A 
HETATM   10  C   UNL     1     -40.289  52.216 -51.974  1.00  0.00    -0.013 A 
HETATM   11  C   UNL     1     -39.527  50.042 -52.744  1.00  0.00     0.012 A 
HETATM   12  C   UNL     1     -39.528  49.572 -51.428  1.00  0.00     0.001 A 
HETATM   13  C   UNL     1     -39.908  50.412 -50.384  1.00  0.00     0.001 A 
HETATM   14  C   UNL     1     -40.288  51.728 -50.651  1.00  0.00     0.013 A 
ENDROOT
BRANCH   1  15
HETATM   15  C   UNL     1     -41.649  57.138 -52.066  1.00  0.00     0.286 C 
HETATM   16  N   UNL     1     -42.455  57.722 -53.020  1.00  0.00    -0.262 N 
HETATM   17  H   UNL     1     -42.623  57.302 -53.931  1.00  0.00     0.190 HD
HETATM   18  O   UNL     1     -41.280  57.749 -51.063  1.00  0.00    -0.264 OA
BRANCH  16  19
HETATM   19  N   UNL     1     -42.837  59.061 -52.866  1.00  0.00    -0.267 N 
HETATM   20  C   UNL     1     -42.213  60.004 -53.658  1.00  0.00     0.245 C 
HETATM   21  O   UNL     1     -41.469  59.694 -54.589  1.00  0.00    -0.271 OA
HETATM   22  H   UNL     1     -43.214  59.328 -51.955  1.00  0.00     0.190 HD
BRANCH  20  23
HETATM   23  C   UNL     1     -42.599  61.445 -53.375  1.00  0.00     0.177 C 
BRANCH  23  24
HETATM   24  S   UNL     1     -43.945  61.607 -52.157  1.00  0.00    -0.164 SA
HETATM   25  C   UNL     1     -42.962  62.027 -50.696  1.00  0.00     0.090 C 
ENDBRANCH  23  24
ENDBRANCH  20  23
ENDBRANCH  16  19
ENDBRANCH   1  15
TORSDOF 4
ENDMDL
MODEL 8
REMARK VINA RESULT:      -7.5      3.482      4.174
REMARK  4 active torsions:
REMARK  status: ('A' for Active; 'I' for Inactive)
REMARK    1  A    between atoms: S_2  and  C_3 
REMARK    2  A    between atoms: C_3  and  C_4 
REMARK       I    between atoms: C_4  and  N_5 
REMARK    3  A    between atoms: N_5  and  N_6 
REMARK       I    between atoms: N_6  and  C_7 
REMARK    4  A    between atoms: C_7  and  C_8 
ROOT
HETATM    1  C   UNL     1     -41.729  55.474 -53.334  1.00  0.00     0.103 A 
HETATM    2  N   UNL     1     -41.438  55.257 -52.006  1.00  0.00    -0.351 N 
HETATM    3  H   UNL     1     -41.617  55.934 -51.275  1.00  0.00     0.166 HD
HETATM    4  C   UNL     1     -40.915  54.001 -51.810  1.00  0.00     0.044 A 
HETATM    5  C   UNL     1     -40.848  53.381 -53.056  1.00  0.00     0.004 A 
HETATM    6  C   UNL     1     -41.352  54.324 -54.006  1.00  0.00     0.050 A 
HETATM    7  C   UNL     1     -40.508  53.376 -50.627  1.00  0.00     0.031 A 
HETATM    8  C   UNL     1     -40.022  52.067 -50.716  1.00  0.00     0.014 A 
HETATM    9  C   UNL     1     -39.939  51.394 -51.943  1.00  0.00    -0.025 A 
HETATM   10  C   UNL     1     -40.349  52.046 -53.132  1.00  0.00    -0.013 A 
HETATM   11  C   UNL     1     -39.459  50.077 -52.023  1.00  0.00     0.012 A 
HETATM   12  C   UNL     1     -39.385  49.415 -53.251  1.00  0.00     0.001 A 
HETATM   13  C   UNL     1     -39.787  50.058 -54.419  1.00  0.00     0.001 A 
HETATM   14  C   UNL     1     -40.267  51.368 -54.366  1.00  0.00     0.013 A 
ENDROOT
BRANCH   1  15
HETATM   15  C   UNL     1     -42.338  56.705 -53.783  1.00  0.00     0.286 C 
HETATM   16  N   UNL     1     -42.342  57.734 -52.865  1.00  0.00    -0.262 N 
HETATM   17  H   UNL     1     -42.118  57.596 -51.883  1.00  0.00     0.190 HD
HETATM   18  O   UNL     1     -42.817  56.836 -54.910  1.00  0.00    -0.264 OA
BRANCH  16  19
HETATM   19  N   UNL     1     -42.939  58.954 -53.207  1.00  0.00    -0.267 N 
HETATM   20  C   UNL     1     -42.120  59.967 -53.663  1.00  0.00     0.245 C 
HETATM   21  O   UNL     1     -40.932  59.783 -53.930  1.00  0.00    -0.271 OA
HETATM   22  H   UNL     1     -43.820  59.180 -52.740  1.00  0.00     0.190 HD
BRANCH  20  23
HETATM   23  C   UNL     1     -42.813  61.293 -53.923  1.00  0.00     0.177 C 
BRANCH  23  24
HETATM   24  S   UNL     1     -44.436  61.432 -53.106  1.00  0.00    -0.164 SA
HETATM   25  C   UNL     1     -43.901  62.122 -51.520  1.00  0.00     0.090 C 
ENDBRANCH  23  24
ENDBRANCH  20  23
ENDBRANCH  16  19
ENDBRANCH   1  15
TORSDOF 4
ENDMDL
MODEL 9
REMARK VINA RESULT:      -7.1      4.658      5.557
REMARK  4 active torsions:
REMARK  status: ('A' for Active; 'I' for Inactive)
REMARK    1  A    between atoms: S_2  and  C_3 
REMARK    2  A    between atoms: C_3  and  C_4 
REMARK       I    between atoms: C_4  and  N_5 
REMARK    3  A    between atoms: N_5  and  N_6 
REMARK       I    between atoms: N_6  and  C_7 
REMARK    4  A    between atoms: C_7  and  C_8 
ROOT
HETATM    1  C   UNL     1     -42.478  56.814 -51.772  1.00  0.00     0.103 A 
HETATM    2  N   UNL     1     -41.835  56.443 -50.612  1.00  0.00    -0.351 N 
HETATM    3  H   UNL     1     -41.888  56.970 -49.749  1.00  0.00     0.166 HD
HETATM    4  C   UNL     1     -41.153  55.261 -50.777  1.00  0.00     0.044 A 
HETATM    5  C   UNL     1     -41.345  54.853 -52.095  1.00  0.00     0.004 A 
HETATM    6  C   UNL     1     -42.170  55.845 -52.711  1.00  0.00     0.050 A 
HETATM    7  C   UNL     1     -40.394  54.531 -49.858  1.00  0.00     0.031 A 
HETATM    8  C   UNL     1     -39.816  53.335 -50.296  1.00  0.00     0.014 A 
HETATM    9  C   UNL     1     -39.982  52.873 -51.609  1.00  0.00    -0.025 A 
HETATM   10  C   UNL     1     -40.748  53.631 -52.529  1.00  0.00    -0.013 A 
HETATM   11  C   UNL     1     -39.406  51.667 -52.038  1.00  0.00     0.012 A 
HETATM   12  C   UNL     1     -39.583  51.215 -53.348  1.00  0.00     0.001 A 
HETATM   13  C   UNL     1     -40.335  51.962 -54.252  1.00  0.00     0.001 A 
HETATM   14  C   UNL     1     -40.917  53.165 -53.849  1.00  0.00     0.013 A 
ENDROOT
BRANCH   1  15
HETATM   15  C   UNL     1     -43.305  57.998 -51.833  1.00  0.00     0.286 C 
HETATM   16  N   UNL     1     -42.659  59.186 -51.562  1.00  0.00    -0.262 N 
HETATM   17  H   UNL     1     -41.727  59.226 -51.158  1.00  0.00     0.190 HD
HETATM   18  O   UNL     1     -44.503  57.956 -52.113  1.00  0.00    -0.264 OA
BRANCH  16  19
HETATM   19  N   UNL     1     -43.393  60.379 -51.570  1.00  0.00    -0.267 N 
HETATM   20  C   UNL     1     -43.114  61.301 -52.559  1.00  0.00     0.245 C 
HETATM   21  O   UNL     1     -42.375  61.043 -53.510  1.00  0.00    -0.271 OA
HETATM   22  H   UNL     1     -43.770  60.691 -50.672  1.00  0.00     0.190 HD
BRANCH  20  23
HETATM   23  C   UNL     1     -43.872  62.613 -52.454  1.00  0.00     0.177 C 
BRANCH  23  24
HETATM   24  S   UNL     1     -44.391  63.014 -50.754  1.00  0.00    -0.164 SA
HETATM   25  C   UNL     1     -42.845  63.732 -50.144  1.00  0.00     0.090 C 
ENDBRANCH  23  24
ENDBRANCH  20  23
ENDBRANCH  16  19
ENDBRANCH   1  15
TORSDOF 4
ENDMDL
MODEL 10
REMARK VINA RESULT:      -6.6      2.138      2.981
REMARK  4 active torsions:
REMARK  status: ('A' for Active; 'I' for Inactive)
REMARK    1  A    between atoms: S_2  and  C_3 
REMARK    2  A    between atoms: C_3  and  C_4 
REMARK       I    between atoms: C_4  and  N_5 
REMARK    3  A    between atoms: N_5  and  N_6 
REMARK       I    between atoms: N_6  and  C_7 
REMARK    4  A    between atoms: C_7  and  C_8 
ROOT
HETATM    1  C   UNL     1     -42.363  55.838 -54.933  1.00  0.00     0.103 A 
HETATM    2  N   UNL     1     -42.317  56.947 -54.119  1.00  0.00    -0.351 N 
HETATM    3  H   UNL     1     -42.599  57.873 -54.416  1.00  0.00     0.166 HD
HETATM    4  C   UNL     1     -41.878  56.621 -52.857  1.00  0.00     0.044 A 
HETATM    5  C   UNL     1     -41.614  55.252 -52.852  1.00  0.00     0.004 A 
HETATM    6  C   UNL     1     -41.912  54.777 -54.167  1.00  0.00     0.050 A 
HETATM    7  C   UNL     1     -41.706  57.432 -51.732  1.00  0.00     0.031 A 
HETATM    8  C   UNL     1     -41.256  56.826 -50.555  1.00  0.00     0.014 A 
HETATM    9  C   UNL     1     -40.981  55.453 -50.492  1.00  0.00    -0.025 A 
HETATM   10  C   UNL     1     -41.154  54.647 -51.645  1.00  0.00    -0.013 A 
HETATM   11  C   UNL     1     -40.538  54.850 -49.303  1.00  0.00     0.012 A 
HETATM   12  C   UNL     1     -40.272  53.480 -49.252  1.00  0.00     0.001 A 
HETATM   13  C   UNL     1     -40.441  52.690 -50.386  1.00  0.00     0.001 A 
HETATM   14  C   UNL     1     -40.879  53.266 -51.579  1.00  0.00     0.013 A 
ENDROOT
BRANCH   1  15
HETATM   15  C   UNL     1     -42.843  55.918 -56.294  1.00  0.00     0.286 C 
HETATM   16  N   UNL     1     -43.127  57.189 -56.748  1.00  0.00    -0.262 N 
HETATM   17  H   UNL     1     -43.190  57.993 -56.129  1.00  0.00     0.190 HD
HETATM   18  O   UNL     1     -42.983  54.925 -57.008  1.00  0.00    -0.264 OA
BRANCH  16  19
HETATM   19  N   UNL     1     -43.626  57.356 -58.046  1.00  0.00    -0.267 N 
HETATM   20  C   UNL     1     -44.955  57.701 -58.187  1.00  0.00     0.245 C 
HETATM   21  O   UNL     1     -45.657  58.021 -57.227  1.00  0.00    -0.271 OA
HETATM   22  H   UNL     1     -43.151  56.840 -58.789  1.00  0.00     0.190 HD
BRANCH  20  23
HETATM   23  C   UNL     1     -45.458  57.769 -59.618  1.00  0.00     0.177 C 
BRANCH  23  24
HETATM   24  S   UNL     1     -45.823  56.134 -60.335  1.00  0.00    -0.164 SA
HETATM   25  C   UNL     1     -47.419  56.506 -61.104  1.00  0.00     0.090 C 
ENDBRANCH  23  24
ENDBRANCH  20  23
ENDBRANCH  16  19
ENDBRANCH   1  15
TORSDOF 4
ENDMDL
