MODEL 1
REMARK VINA RESULT:      -9.0      0.000      0.000
REMARK  4 active torsions:
REMARK  status: ('A' for Active; 'I' for Inactive)
REMARK    1  A    between atoms: C_8  and  C_9 
REMARK    2  A    between atoms: C_9  and  C_10 
REMARK    3  A    between atoms: C_18  and  C_19 
REMARK    4  A    between atoms: C_28  and  N_29 
ROOT
HETATM    1  C   UNL     1     -42.613  56.699 -53.913  1.00  0.00     0.030 A 
HETATM    2  C   UNL     1     -42.193  57.529 -52.846  1.00  0.00     0.007 A 
HETATM    3  C   UNL     1     -41.344  56.930 -51.896  1.00  0.00     0.068 A 
HETATM    4  C   UNL     1     -40.902  57.683 -50.816  1.00  0.00     0.032 A 
HETATM    5  C   UNL     1     -41.266  59.019 -50.645  1.00  0.00     0.002 A 
HETATM    6  C   UNL     1     -42.091  59.628 -51.578  1.00  0.00     0.001 A 
HETATM    7  C   UNL     1     -42.549  58.892 -52.670  1.00  0.00     0.015 A 
HETATM    8  N   UNL     1     -40.931  55.656 -51.981  1.00  0.00    -0.248 NA
HETATM    9  C   UNL     1     -41.330  54.884 -53.019  1.00  0.00     0.068 A 
HETATM   10  C   UNL     1     -42.200  55.365 -53.985  1.00  0.00     0.049 A 
ENDROOT
BRANCH   1  11
HETATM   11  C   UNL     1     -43.553  57.200 -54.951  1.00  0.00     0.202 C 
HETATM   12  O   UNL     1     -44.753  57.267 -54.681  1.00  0.00    -0.286 OA
BRANCH  11  13
HETATM   13  C   UNL     1     -43.041  57.563 -56.314  1.00  0.00     0.121 C 
HETATM   14  C   UNL     1     -42.528  58.921 -56.611  1.00  0.00     0.266 C 
HETATM   15  N   UNL     1     -41.956  59.105 -57.828  1.00  0.00    -0.274 N 
HETATM   16  O   UNL     1     -42.615  59.849 -55.815  1.00  0.00    -0.267 OA
HETATM   17  C   UNL     1     -42.044  58.239 -58.872  1.00  0.00     0.330 C 
HETATM   18  H   UNL     1     -41.617  60.030 -58.047  1.00  0.00     0.173 HD
HETATM   19  N   UNL     1     -42.615  57.007 -58.591  1.00  0.00    -0.293 N 
HETATM   20  O   UNL     1     -41.636  58.589 -59.977  1.00  0.00    -0.246 OA
HETATM   21  C   UNL     1     -42.670  56.037 -59.681  1.00  0.00     0.162 C 
HETATM   22  C   UNL     1     -43.098  56.658 -57.326  1.00  0.00     0.103 C 
BRANCH  22  23
HETATM   23  N   UNL     1     -43.612  55.378 -57.142  1.00  0.00    -0.287 NA
HETATM   24  H   UNL     1     -44.431  55.199 -57.743  1.00  0.00     0.125 HD
HETATM   25  H   UNL     1     -42.919  54.655 -57.313  1.00  0.00     0.125 HD
ENDBRANCH  22  23
ENDBRANCH  11  13
ENDBRANCH   1  11
BRANCH   9  26
HETATM   26  C   UNL     1     -40.770  53.518 -53.047  1.00  0.00    -0.007 A 
HETATM   27  C   UNL     1     -40.853  52.732 -54.213  1.00  0.00     0.015 A 
HETATM   28  C   UNL     1     -40.347  51.428 -54.252  1.00  0.00     0.024 A 
HETATM   29  C   UNL     1     -39.754  50.884 -53.118  1.00  0.00     0.034 A 
HETATM   30 CL   UNL     1     -39.139  49.279 -53.157  1.00  0.00    -0.084 Cl
HETATM   31  C   UNL     1     -39.663  51.632 -51.948  1.00  0.00     0.024 A 
HETATM   32  C   UNL     1     -40.169  52.937 -51.914  1.00  0.00     0.015 A 
ENDBRANCH   9  26
TORSDOF 4
ENDMDL
MODEL 2
REMARK VINA RESULT:      -8.9      2.592      5.208
REMARK  4 active torsions:
REMARK  status: ('A' for Active; 'I' for Inactive)
REMARK    1  A    between atoms: C_8  and  C_9 
REMARK    2  A    between atoms: C_9  and  C_10 
REMARK    3  A    between atoms: C_18  and  C_19 
REMARK    4  A    between atoms: C_28  and  N_29 
ROOT
HETATM    1  C   UNL     1     -41.461  57.252 -53.976  1.00  0.00     0.030 A 
HETATM    2  C   UNL     1     -42.114  57.107 -55.224  1.00  0.00     0.007 A 
HETATM    3  C   UNL     1     -42.189  55.797 -55.734  1.00  0.00     0.068 A 
HETATM    4  C   UNL     1     -42.807  55.583 -56.959  1.00  0.00     0.032 A 
HETATM    5  C   UNL     1     -43.365  56.625 -57.699  1.00  0.00     0.002 A 
HETATM    6  C   UNL     1     -43.312  57.919 -57.206  1.00  0.00     0.001 A 
HETATM    7  C   UNL     1     -42.695  58.160 -55.979  1.00  0.00     0.015 A 
HETATM    8  N   UNL     1     -41.692  54.729 -55.090  1.00  0.00    -0.248 NA
HETATM    9  C   UNL     1     -41.086  54.887 -53.889  1.00  0.00     0.068 A 
HETATM   10  C   UNL     1     -40.923  56.140 -53.320  1.00  0.00     0.049 A 
ENDROOT
BRANCH   1  11
HETATM   11  C   UNL     1     -41.272  58.592 -53.360  1.00  0.00     0.202 C 
HETATM   12  O   UNL     1     -40.168  59.133 -53.444  1.00  0.00    -0.286 OA
BRANCH  11  13
HETATM   13  C   UNL     1     -42.399  59.236 -52.606  1.00  0.00     0.121 C 
HETATM   14  C   UNL     1     -43.032  58.568 -51.445  1.00  0.00     0.266 C 
HETATM   15  N   UNL     1     -43.943  59.293 -50.746  1.00  0.00    -0.274 N 
HETATM   16  O   UNL     1     -42.770  57.415 -51.122  1.00  0.00    -0.267 OA
HETATM   17  C   UNL     1     -44.500  60.460 -51.164  1.00  0.00     0.330 C 
HETATM   18  H   UNL     1     -44.392  58.843 -49.963  1.00  0.00     0.173 HD
HETATM   19  N   UNL     1     -43.950  61.018 -52.309  1.00  0.00    -0.293 N 
HETATM   20  O   UNL     1     -45.439  60.937 -50.530  1.00  0.00    -0.246 OA
HETATM   21  C   UNL     1     -44.493  62.301 -52.747  1.00  0.00     0.162 C 
HETATM   22  C   UNL     1     -42.902  60.427 -53.021  1.00  0.00     0.103 C 
BRANCH  22  23
HETATM   23  N   UNL     1     -42.396  61.095 -54.133  1.00  0.00    -0.287 NA
HETATM   24  H   UNL     1     -41.366  61.129 -54.128  1.00  0.00     0.125 HD
HETATM   25  H   UNL     1     -42.706  60.680 -55.007  1.00  0.00     0.125 HD
ENDBRANCH  22  23
ENDBRANCH  11  13
ENDBRANCH   1  11
BRANCH   9  26
HETATM   26  C   UNL     1     -40.629  53.642 -53.240  1.00  0.00    -0.007 A 
HETATM   27  C   UNL     1     -40.538  53.554 -51.837  1.00  0.00     0.015 A 
HETATM   28  C   UNL     1     -40.086  52.391 -51.206  1.00  0.00     0.024 A 
HETATM   29  C   UNL     1     -39.709  51.292 -51.970  1.00  0.00     0.034 A 
HETATM   30 CL   UNL     1     -39.145  49.863 -51.200  1.00  0.00    -0.084 Cl
HETATM   31  C   UNL     1     -39.780  51.349 -53.359  1.00  0.00     0.024 A 
HETATM   32  C   UNL     1     -40.234  52.515 -53.987  1.00  0.00     0.015 A 
ENDBRANCH   9  26
TORSDOF 4
ENDMDL
MODEL 3
REMARK VINA RESULT:      -8.9      2.316      5.499
REMARK  4 active torsions:
REMARK  status: ('A' for Active; 'I' for Inactive)
REMARK    1  A    between atoms: C_8  and  C_9 
REMARK    2  A    between atoms: C_9  and  C_10 
REMARK    3  A    between atoms: C_18  and  C_19 
REMARK    4  A    between atoms: C_28  and  N_29 
ROOT
HETATM    1  C   UNL     1     -41.647  57.147 -54.698  1.00  0.00     0.030 A 
HETATM    2  C   UNL     1     -42.326  56.883 -55.913  1.00  0.00     0.007 A 
HETATM    3  C   UNL     1     -42.375  55.535 -56.313  1.00  0.00     0.068 A 
HETATM    4  C   UNL     1     -43.016  55.205 -57.501  1.00  0.00     0.032 A 
HETATM    5  C   UNL     1     -43.621  56.169 -58.308  1.00  0.00     0.002 A 
HETATM    6  C   UNL     1     -43.593  57.500 -57.923  1.00  0.00     0.001 A 
HETATM    7  C   UNL     1     -42.955  57.856 -56.735  1.00  0.00     0.015 A 
HETATM    8  N   UNL     1     -41.833  54.537 -55.598  1.00  0.00    -0.248 NA
HETATM    9  C   UNL     1     -41.203  54.808 -54.430  1.00  0.00     0.068 A 
HETATM   10  C   UNL     1     -41.062  56.107 -53.969  1.00  0.00     0.049 A 
ENDROOT
BRANCH   1  11
HETATM   11  C   UNL     1     -41.482  58.537 -54.197  1.00  0.00     0.202 C 
HETATM   12  O   UNL     1     -41.445  59.460 -55.012  1.00  0.00    -0.286 OA
BRANCH  11  13
HETATM   13  C   UNL     1     -41.311  58.788 -52.728  1.00  0.00     0.121 C 
HETATM   14  C   UNL     1     -42.473  58.819 -51.809  1.00  0.00     0.266 C 
HETATM   15  N   UNL     1     -42.199  58.911 -50.482  1.00  0.00    -0.274 N 
HETATM   16  O   UNL     1     -43.631  58.777 -52.207  1.00  0.00    -0.267 OA
HETATM   17  C   UNL     1     -40.988  59.229 -49.954  1.00  0.00     0.330 C 
HETATM   18  H   UNL     1     -42.983  58.948 -49.848  1.00  0.00     0.173 HD
HETATM   19  N   UNL     1     -39.932  59.287 -50.851  1.00  0.00    -0.293 N 
HETATM   20  O   UNL     1     -40.901  59.453 -48.748  1.00  0.00    -0.246 OA
HETATM   21  C   UNL     1     -38.609  59.571 -50.300  1.00  0.00     0.162 C 
HETATM   22  C   UNL     1     -40.079  59.057 -52.222  1.00  0.00     0.103 C 
BRANCH  22  23
HETATM   23  N   UNL     1     -38.943  59.096 -53.026  1.00  0.00    -0.287 NA
HETATM   24  H   UNL     1     -38.753  60.045 -53.382  1.00  0.00     0.125 HD
HETATM   25  H   UNL     1     -38.116  58.757 -52.544  1.00  0.00     0.125 HD
ENDBRANCH  22  23
ENDBRANCH  11  13
ENDBRANCH   1  11
BRANCH   9  26
HETATM   26  C   UNL     1     -40.695  53.632 -53.695  1.00  0.00    -0.007 A 
HETATM   27  C   UNL     1     -40.350  52.450 -54.380  1.00  0.00     0.015 A 
HETATM   28  C   UNL     1     -39.888  51.319 -53.699  1.00  0.00     0.024 A 
HETATM   29  C   UNL     1     -39.770  51.348 -52.314  1.00  0.00     0.034 A 
HETATM   30 CL   UNL     1     -39.211  49.958 -51.470  1.00  0.00    -0.084 Cl
HETATM   31  C   UNL     1     -40.111  52.498 -51.607  1.00  0.00     0.024 A 
HETATM   32  C   UNL     1     -40.571  53.628 -52.293  1.00  0.00     0.015 A 
ENDBRANCH   9  26
TORSDOF 4
ENDMDL
MODEL 4
REMARK VINA RESULT:      -8.6      3.682      6.743
REMARK  4 active torsions:
REMARK  status: ('A' for Active; 'I' for Inactive)
REMARK    1  A    between atoms: C_8  and  C_9 
REMARK    2  A    between atoms: C_9  and  C_10 
REMARK    3  A    between atoms: C_18  and  C_19 
REMARK    4  A    between atoms: C_28  and  N_29 
ROOT
HETATM    1  C   UNL     1     -42.438  55.376 -52.802  1.00  0.00     0.030 A 
HETATM    2  C   UNL     1     -41.569  54.263 -52.909  1.00  0.00     0.007 A 
HETATM    3  C   UNL     1     -41.286  53.823 -54.216  1.00  0.00     0.068 A 
HETATM    4  C   UNL     1     -40.449  52.729 -54.395  1.00  0.00     0.032 A 
HETATM    5  C   UNL     1     -39.872  52.054 -53.319  1.00  0.00     0.002 A 
HETATM    6  C   UNL     1     -40.130  52.482 -52.026  1.00  0.00     0.001 A 
HETATM    7  C   UNL     1     -40.968  53.577 -51.821  1.00  0.00     0.015 A 
HETATM    8  N   UNL     1     -41.785  54.415 -55.313  1.00  0.00    -0.248 NA
HETATM    9  C   UNL     1     -42.600  55.489 -55.190  1.00  0.00     0.068 A 
HETATM   10  C   UNL     1     -42.974  55.974 -53.947  1.00  0.00     0.049 A 
ENDROOT
BRANCH   1  11
HETATM   11  C   UNL     1     -42.854  55.900 -51.475  1.00  0.00     0.202 C 
HETATM   12  O   UNL     1     -43.226  55.103 -50.612  1.00  0.00    -0.286 OA
BRANCH  11  13
HETATM   13  C   UNL     1     -42.868  57.380 -51.223  1.00  0.00     0.121 C 
HETATM   14  C   UNL     1     -41.612  58.140 -51.018  1.00  0.00     0.266 C 
HETATM   15  N   UNL     1     -41.722  59.491 -50.942  1.00  0.00    -0.274 N 
HETATM   16  O   UNL     1     -40.520  57.594 -50.908  1.00  0.00    -0.267 OA
HETATM   17  C   UNL     1     -42.887  60.173 -50.783  1.00  0.00     0.330 C 
HETATM   18  H   UNL     1     -40.876  60.017 -50.786  1.00  0.00     0.173 HD
HETATM   19  N   UNL     1     -44.048  59.420 -50.887  1.00  0.00    -0.293 N 
HETATM   20  O   UNL     1     -42.849  61.379 -50.552  1.00  0.00    -0.246 OA
HETATM   21  C   UNL     1     -45.315  60.139 -50.777  1.00  0.00     0.162 C 
HETATM   22  C   UNL     1     -44.049  58.042 -51.118  1.00  0.00     0.103 C 
BRANCH  22  23
HETATM   23  N   UNL     1     -45.273  57.392 -51.248  1.00  0.00    -0.287 NA
HETATM   24  H   UNL     1     -45.443  57.075 -52.215  1.00  0.00     0.125 HD
HETATM   25  H   UNL     1     -45.355  56.594 -50.625  1.00  0.00     0.125 HD
ENDBRANCH  22  23
ENDBRANCH  11  13
ENDBRANCH   1  11
BRANCH   9  26
HETATM   26  C   UNL     1     -43.043  56.098 -56.460  1.00  0.00    -0.007 A 
HETATM   27  C   UNL     1     -43.043  55.351 -57.654  1.00  0.00     0.015 A 
HETATM   28  C   UNL     1     -43.439  55.917 -58.870  1.00  0.00     0.024 A 
HETATM   29  C   UNL     1     -43.836  57.249 -58.915  1.00  0.00     0.034 A 
HETATM   30 CL   UNL     1     -44.315  57.953 -60.408  1.00  0.00    -0.084 Cl
HETATM   31  C   UNL     1     -43.840  58.017 -57.754  1.00  0.00     0.024 A 
HETATM   32  C   UNL     1     -43.445  57.445 -56.538  1.00  0.00     0.015 A 
ENDBRANCH   9  26
TORSDOF 4
ENDMDL
MODEL 5
REMARK VINA RESULT:      -8.5      2.342      5.429
REMARK  4 active torsions:
REMARK  status: ('A' for Active; 'I' for Inactive)
REMARK    1  A    between atoms: C_8  and  C_9 
REMARK    2  A    between atoms: C_9  and  C_10 
REMARK    3  A    between atoms: C_18  and  C_19 
REMARK    4  A    between atoms: C_28  and  N_29 
ROOT
HETATM    1  C   UNL     1     -42.291  57.521 -55.302  1.00  0.00     0.030 A 
HETATM    2  C   UNL     1     -42.853  57.144 -56.546  1.00  0.00     0.007 A 
HETATM    3  C   UNL     1     -42.748  55.781 -56.883  1.00  0.00     0.068 A 
HETATM    4  C   UNL     1     -43.268  55.343 -58.094  1.00  0.00     0.032 A 
HETATM    5  C   UNL     1     -43.899  56.211 -58.987  1.00  0.00     0.002 A 
HETATM    6  C   UNL     1     -44.021  57.553 -58.665  1.00  0.00     0.001 A 
HETATM    7  C   UNL     1     -43.506  58.017 -57.455  1.00  0.00     0.015 A 
HETATM    8  N   UNL     1     -42.170  54.870 -56.085  1.00  0.00    -0.248 NA
HETATM    9  C   UNL     1     -41.655  55.248 -54.891  1.00  0.00     0.068 A 
HETATM   10  C   UNL     1     -41.668  56.573 -54.484  1.00  0.00     0.049 A 
ENDROOT
BRANCH   1  11
HETATM   11  C   UNL     1     -42.291  58.940 -54.858  1.00  0.00     0.202 C 
HETATM   12  O   UNL     1     -41.592  59.752 -55.467  1.00  0.00    -0.286 OA
BRANCH  11  13
HETATM   13  C   UNL     1     -43.092  59.350 -53.656  1.00  0.00     0.121 C 
HETATM   14  C   UNL     1     -44.572  59.391 -53.691  1.00  0.00     0.266 C 
HETATM   15  N   UNL     1     -45.204  59.634 -52.515  1.00  0.00    -0.274 N 
HETATM   16  O   UNL     1     -45.214  59.227 -54.723  1.00  0.00    -0.267 OA
HETATM   17  C   UNL     1     -44.603  60.089 -51.384  1.00  0.00     0.330 C 
HETATM   18  H   UNL     1     -46.212  59.680 -52.529  1.00  0.00     0.173 HD
HETATM   19  N   UNL     1     -43.216  60.130 -51.410  1.00  0.00    -0.293 N 
HETATM   20  O   UNL     1     -45.299  60.439 -50.433  1.00  0.00    -0.246 OA
HETATM   21  C   UNL     1     -42.543  60.561 -50.187  1.00  0.00     0.162 C 
HETATM   22  C   UNL     1     -42.460  59.754 -52.523  1.00  0.00     0.103 C 
BRANCH  22  23
HETATM   23  N   UNL     1     -41.072  59.792 -52.426  1.00  0.00    -0.287 NA
HETATM   24  H   UNL     1     -40.691  58.945 -51.978  1.00  0.00     0.125 HD
HETATM   25  H   UNL     1     -40.624  59.913 -53.330  1.00  0.00     0.125 HD
ENDBRANCH  22  23
ENDBRANCH  11  13
ENDBRANCH   1  11
BRANCH   9  26
HETATM   26  C   UNL     1     -41.096  54.158 -54.067  1.00  0.00    -0.007 A 
HETATM   27  C   UNL     1     -41.158  54.216 -52.661  1.00  0.00     0.015 A 
HETATM   28  C   UNL     1     -40.615  53.203 -51.863  1.00  0.00     0.024 A 
HETATM   29  C   UNL     1     -39.991  52.113 -52.461  1.00  0.00     0.034 A 
HETATM   30 CL   UNL     1     -39.314  50.870 -51.485  1.00  0.00    -0.084 Cl
HETATM   31  C   UNL     1     -39.907  52.030 -53.848  1.00  0.00     0.024 A 
HETATM   32  C   UNL     1     -40.453  53.045 -54.642  1.00  0.00     0.015 A 
ENDBRANCH   9  26
TORSDOF 4
ENDMDL
MODEL 6
REMARK VINA RESULT:      -8.5      1.219      2.122
REMARK  4 active torsions:
REMARK  status: ('A' for Active; 'I' for Inactive)
REMARK    1  A    between atoms: C_8  and  C_9 
REMARK    2  A    between atoms: C_9  and  C_10 
REMARK    3  A    between atoms: C_18  and  C_19 
REMARK    4  A    between atoms: C_28  and  N_29 
ROOT
HETATM    1  C   UNL     1     -42.826  56.790 -53.835  1.00  0.00     0.030 A 
HETATM    2  C   UNL     1     -42.407  57.865 -53.015  1.00  0.00     0.007 A 
HETATM    3  C   UNL     1     -41.554  57.531 -51.946  1.00  0.00     0.068 A 
HETATM    4  C   UNL     1     -41.113  58.535 -51.094  1.00  0.00     0.032 A 
HETATM    5  C   UNL     1     -41.482  59.870 -51.268  1.00  0.00     0.002 A 
HETATM    6  C   UNL     1     -42.311  60.218 -52.323  1.00  0.00     0.001 A 
HETATM    7  C   UNL     1     -42.768  59.227 -53.191  1.00  0.00     0.015 A 
HETATM    8  N   UNL     1     -41.136  56.278 -51.705  1.00  0.00    -0.248 NA
HETATM    9  C   UNL     1     -41.534  55.266 -52.512  1.00  0.00     0.068 A 
HETATM   10  C   UNL     1     -42.407  55.482 -53.566  1.00  0.00     0.049 A 
ENDROOT
BRANCH   1  11
HETATM   11  C   UNL     1     -43.770  57.007 -54.964  1.00  0.00     0.202 C 
HETATM   12  O   UNL     1     -44.967  57.159 -54.715  1.00  0.00    -0.286 OA
BRANCH  11  13
HETATM   13  C   UNL     1     -43.265  56.985 -56.377  1.00  0.00     0.121 C 
HETATM   14  C   UNL     1     -43.007  55.710 -57.085  1.00  0.00     0.266 C 
HETATM   15  N   UNL     1     -42.692  55.796 -58.403  1.00  0.00    -0.274 N 
HETATM   16  O   UNL     1     -43.059  54.621 -56.525  1.00  0.00    -0.267 OA
HETATM   17  C   UNL     1     -42.347  56.940 -59.051  1.00  0.00     0.330 C 
HETATM   18  H   UNL     1     -42.499  54.935 -58.892  1.00  0.00     0.173 HD
HETATM   19  N   UNL     1     -42.509  58.116 -58.332  1.00  0.00    -0.293 N 
HETATM   20  O   UNL     1     -41.914  56.872 -60.199  1.00  0.00    -0.246 OA
HETATM   21  C   UNL     1     -42.201  59.364 -59.025  1.00  0.00     0.162 C 
HETATM   22  C   UNL     1     -42.976  58.149 -57.015  1.00  0.00     0.103 C 
BRANCH  22  23
HETATM   23  N   UNL     1     -43.143  59.388 -56.402  1.00  0.00    -0.287 NA
HETATM   24  H   UNL     1     -42.321  59.656 -55.840  1.00  0.00     0.125 HD
HETATM   25  H   UNL     1     -43.336  60.127 -57.071  1.00  0.00     0.125 HD
ENDBRANCH  22  23
ENDBRANCH  11  13
ENDBRANCH   1  11
BRANCH   9  26
HETATM   26  C   UNL     1     -40.968  53.940 -52.193  1.00  0.00    -0.007 A 
HETATM   27  C   UNL     1     -40.899  53.490 -50.860  1.00  0.00     0.015 A 
HETATM   28  C   UNL     1     -40.347  52.247 -50.537  1.00  0.00     0.024 A 
HETATM   29  C   UNL     1     -39.845  51.431 -51.545  1.00  0.00     0.034 A 
HETATM   30 CL   UNL     1     -39.157  49.905 -51.153  1.00  0.00    -0.084 Cl
HETATM   31  C   UNL     1     -39.891  51.850 -52.871  1.00  0.00     0.024 A 
HETATM   32  C   UNL     1     -40.447  53.095 -53.191  1.00  0.00     0.015 A 
ENDBRANCH   9  26
TORSDOF 4
ENDMDL
MODEL 7
REMARK VINA RESULT:      -8.3      3.649      6.907
REMARK  4 active torsions:
REMARK  status: ('A' for Active; 'I' for Inactive)
REMARK    1  A    between atoms: C_8  and  C_9 
REMARK    2  A    between atoms: C_9  and  C_10 
REMARK    3  A    between atoms: C_18  and  C_19 
REMARK    4  A    between atoms: C_28  and  N_29 
ROOT
HETATM    1  C   UNL     1     -41.577  56.096 -52.989  1.00  0.00     0.030 A 
HETATM    2  C   UNL     1     -41.086  54.768 -52.996  1.00  0.00     0.007 A 
HETATM    3  C   UNL     1     -41.134  54.097 -54.232  1.00  0.00     0.068 A 
HETATM    4  C   UNL     1     -40.678  52.787 -54.309  1.00  0.00     0.032 A 
HETATM    5  C   UNL     1     -40.165  52.115 -53.199  1.00  0.00     0.002 A 
HETATM    6  C   UNL     1     -40.099  52.765 -51.977  1.00  0.00     0.001 A 
HETATM    7  C   UNL     1     -40.551  54.080 -51.874  1.00  0.00     0.015 A 
HETATM    8  N   UNL     1     -41.600  54.664 -55.356  1.00  0.00    -0.248 NA
HETATM    9  C   UNL     1     -42.049  55.941 -55.333  1.00  0.00     0.068 A 
HETATM   10  C   UNL     1     -42.083  56.674 -54.158  1.00  0.00     0.049 A 
ENDROOT
BRANCH   1  11
HETATM   11  C   UNL     1     -41.628  56.889 -51.733  1.00  0.00     0.202 C 
HETATM   12  O   UNL     1     -40.664  56.849 -50.967  1.00  0.00    -0.286 OA
BRANCH  11  13
HETATM   13  C   UNL     1     -42.860  57.677 -51.392  1.00  0.00     0.121 C 
HETATM   14  C   UNL     1     -44.103  57.008 -50.942  1.00  0.00     0.266 C 
HETATM   15  N   UNL     1     -45.112  57.814 -50.523  1.00  0.00    -0.274 N 
HETATM   16  O   UNL     1     -44.239  55.790 -50.952  1.00  0.00    -0.267 OA
HETATM   17  C   UNL     1     -45.171  59.158 -50.719  1.00  0.00     0.330 C 
HETATM   18  H   UNL     1     -45.969  57.371 -50.229  1.00  0.00     0.173 HD
HETATM   19  N   UNL     1     -44.024  59.747 -51.230  1.00  0.00    -0.293 N 
HETATM   20  O   UNL     1     -46.210  59.757 -50.451  1.00  0.00    -0.246 OA
HETATM   21  C   UNL     1     -44.043  61.198 -51.396  1.00  0.00     0.162 C 
HETATM   22  C   UNL     1     -42.872  59.025 -51.553  1.00  0.00     0.103 C 
BRANCH  22  23
HETATM   23  N   UNL     1     -41.761  59.723 -52.019  1.00  0.00    -0.287 NA
HETATM   24  H   UNL     1     -41.952  60.204 -52.911  1.00  0.00     0.125 HD
HETATM   25  H   UNL     1     -41.423  60.405 -51.346  1.00  0.00     0.125 HD
ENDBRANCH  22  23
ENDBRANCH  11  13
ENDBRANCH   1  11
BRANCH   9  26
HETATM   26  C   UNL     1     -42.482  56.486 -56.635  1.00  0.00    -0.007 A 
HETATM   27  C   UNL     1     -42.416  57.869 -56.893  1.00  0.00     0.015 A 
HETATM   28  C   UNL     1     -42.842  58.406 -58.113  1.00  0.00     0.024 A 
HETATM   29  C   UNL     1     -43.351  57.566 -59.097  1.00  0.00     0.034 A 
HETATM   30 CL   UNL     1     -43.885  58.221 -60.594  1.00  0.00    -0.084 Cl
HETATM   31  C   UNL     1     -43.437  56.195 -58.870  1.00  0.00     0.024 A 
HETATM   32  C   UNL     1     -43.007  55.662 -57.648  1.00  0.00     0.015 A 
ENDBRANCH   9  26
TORSDOF 4
ENDMDL
MODEL 8
REMARK VINA RESULT:      -8.1      3.048      5.465
REMARK  4 active torsions:
REMARK  status: ('A' for Active; 'I' for Inactive)
REMARK    1  A    between atoms: C_8  and  C_9 
REMARK    2  A    between atoms: C_9  and  C_10 
REMARK    3  A    between atoms: C_18  and  C_19 
REMARK    4  A    between atoms: C_28  and  N_29 
ROOT
HETATM    1  C   UNL     1     -43.686  56.564 -52.483  1.00  0.00     0.030 A 
HETATM    2  C   UNL     1     -43.948  57.068 -53.780  1.00  0.00     0.007 A 
HETATM    3  C   UNL     1     -43.338  56.381 -54.845  1.00  0.00     0.068 A 
HETATM    4  C   UNL     1     -43.544  56.827 -56.144  1.00  0.00     0.032 A 
HETATM    5  C   UNL     1     -44.344  57.934 -56.429  1.00  0.00     0.002 A 
HETATM    6  C   UNL     1     -44.963  58.615 -55.393  1.00  0.00     0.001 A 
HETATM    7  C   UNL     1     -44.771  58.186 -54.080  1.00  0.00     0.015 A 
HETATM    8  N   UNL     1     -42.561  55.300 -54.672  1.00  0.00    -0.248 NA
HETATM    9  C   UNL     1     -42.336  54.823 -53.425  1.00  0.00     0.068 A 
HETATM   10  C   UNL     1     -42.856  55.452 -52.305  1.00  0.00     0.049 A 
ENDROOT
BRANCH   1  11
HETATM   11  C   UNL     1     -44.230  57.236 -51.273  1.00  0.00     0.202 C 
HETATM   12  O   UNL     1     -44.938  56.587 -50.502  1.00  0.00    -0.286 OA
BRANCH  11  13
HETATM   13  C   UNL     1     -43.957  58.693 -51.039  1.00  0.00     0.121 C 
HETATM   14  C   UNL     1     -42.582  59.242 -51.102  1.00  0.00     0.266 C 
HETATM   15  N   UNL     1     -42.459  60.591 -51.017  1.00  0.00    -0.274 N 
HETATM   16  O   UNL     1     -41.591  58.529 -51.212  1.00  0.00    -0.267 OA
HETATM   17  C   UNL     1     -43.444  61.443 -50.630  1.00  0.00     0.330 C 
HETATM   18  H   UNL     1     -41.526  60.974 -51.043  1.00  0.00     0.173 HD
HETATM   19  N   UNL     1     -44.706  60.885 -50.486  1.00  0.00    -0.293 N 
HETATM   20  O   UNL     1     -43.169  62.623 -50.423  1.00  0.00    -0.246 OA
HETATM   21  C   UNL     1     -45.794  61.791 -50.127  1.00  0.00     0.162 C 
HETATM   22  C   UNL     1     -44.972  59.530 -50.700  1.00  0.00     0.103 C 
BRANCH  22  23
HETATM   23  N   UNL     1     -46.285  59.084 -50.571  1.00  0.00    -0.287 NA
HETATM   24  H   UNL     1     -46.873  59.377 -51.365  1.00  0.00     0.125 HD
HETATM   25  H   UNL     1     -46.342  58.074 -50.478  1.00  0.00     0.125 HD
ENDBRANCH  22  23
ENDBRANCH  11  13
ENDBRANCH   1  11
BRANCH   9  26
HETATM   26  C   UNL     1     -41.517  53.596 -53.352  1.00  0.00    -0.007 A 
HETATM   27  C   UNL     1     -40.780  53.292 -52.191  1.00  0.00     0.015 A 
HETATM   28  C   UNL     1     -39.982  52.146 -52.112  1.00  0.00     0.024 A 
HETATM   29  C   UNL     1     -39.901  51.285 -53.200  1.00  0.00     0.034 A 
HETATM   30 CL   UNL     1     -38.914  49.880 -53.112  1.00  0.00    -0.084 Cl
HETATM   31  C   UNL     1     -40.611  51.561 -54.365  1.00  0.00     0.024 A 
HETATM   32  C   UNL     1     -41.410  52.708 -54.439  1.00  0.00     0.015 A 
ENDBRANCH   9  26
TORSDOF 4
ENDMDL
MODEL 9
REMARK VINA RESULT:      -8.1     15.869     18.435
REMARK  4 active torsions:
REMARK  status: ('A' for Active; 'I' for Inactive)
REMARK    1  A    between atoms: C_8  and  C_9 
REMARK    2  A    between atoms: C_9  and  C_10 
REMARK    3  A    between atoms: C_18  and  C_19 
REMARK    4  A    between atoms: C_28  and  N_29 
ROOT
HETATM    1  C   UNL     1     -34.994  41.315 -54.252  1.00  0.00     0.030 A 
HETATM    2  C   UNL     1     -35.686  41.526 -55.470  1.00  0.00     0.007 A 
HETATM    3  C   UNL     1     -35.042  41.068 -56.634  1.00  0.00     0.068 A 
HETATM    4  C   UNL     1     -35.658  41.252 -57.865  1.00  0.00     0.032 A 
HETATM    5  C   UNL     1     -36.903  41.870 -57.984  1.00  0.00     0.002 A 
HETATM    6  C   UNL     1     -37.558  42.316 -56.847  1.00  0.00     0.001 A 
HETATM    7  C   UNL     1     -36.958  42.144 -55.600  1.00  0.00     0.015 A 
HETATM    8  N   UNL     1     -33.849  40.452 -56.618  1.00  0.00    -0.248 NA
HETATM    9  C   UNL     1     -33.212  40.244 -55.442  1.00  0.00     0.068 A 
HETATM   10  C   UNL     1     -33.741  40.694 -54.243  1.00  0.00     0.049 A 
ENDROOT
BRANCH   1  11
HETATM   11  C   UNL     1     -35.547  41.802 -52.961  1.00  0.00     0.202 C 
HETATM   12  O   UNL     1     -35.386  42.984 -52.654  1.00  0.00    -0.286 OA
BRANCH  11  13
HETATM   13  C   UNL     1     -36.239  40.845 -52.034  1.00  0.00     0.121 C 
HETATM   14  C   UNL     1     -37.684  40.544 -52.172  1.00  0.00     0.266 C 
HETATM   15  N   UNL     1     -38.180  39.561 -51.378  1.00  0.00    -0.274 N 
HETATM   16  O   UNL     1     -38.413  41.149 -52.949  1.00  0.00    -0.267 OA
HETATM   17  C   UNL     1     -37.538  39.018 -50.311  1.00  0.00     0.330 C 
HETATM   18  H   UNL     1     -39.166  39.359 -51.453  1.00  0.00     0.173 HD
HETATM   19  N   UNL     1     -36.212  39.390 -50.149  1.00  0.00    -0.293 N 
HETATM   20  O   UNL     1     -38.153  38.261 -49.563  1.00  0.00    -0.246 OA
HETATM   21  C   UNL     1     -35.482  38.776 -49.042  1.00  0.00     0.162 C 
HETATM   22  C   UNL     1     -35.557  40.281 -51.004  1.00  0.00     0.103 C 
BRANCH  22  23
HETATM   23  N   UNL     1     -34.210  40.551 -50.775  1.00  0.00    -0.287 NA
HETATM   24  H   UNL     1     -33.593  39.908 -51.294  1.00  0.00     0.125 HD
HETATM   25  H   UNL     1     -33.961  41.506 -51.015  1.00  0.00     0.125 HD
ENDBRANCH  22  23
ENDBRANCH  11  13
ENDBRANCH   1  11
BRANCH   9  26
HETATM   26  C   UNL     1     -31.937  39.505 -55.533  1.00  0.00    -0.007 A 
HETATM   27  C   UNL     1     -30.989  39.827 -56.524  1.00  0.00     0.015 A 
HETATM   28  C   UNL     1     -29.785  39.124 -56.639  1.00  0.00     0.024 A 
HETATM   29  C   UNL     1     -29.511  38.077 -55.766  1.00  0.00     0.034 A 
HETATM   30 CL   UNL     1     -28.037  37.203 -55.909  1.00  0.00    -0.084 Cl
HETATM   31  C   UNL     1     -30.430  37.729 -54.781  1.00  0.00     0.024 A 
HETATM   32  C   UNL     1     -31.633  38.436 -54.668  1.00  0.00     0.015 A 
ENDBRANCH   9  26
TORSDOF 4
ENDMDL
MODEL 10
REMARK VINA RESULT:      -7.7      2.371      4.203
REMARK  4 active torsions:
REMARK  status: ('A' for Active; 'I' for Inactive)
REMARK    1  A    between atoms: C_8  and  C_9 
REMARK    2  A    between atoms: C_9  and  C_10 
REMARK    3  A    between atoms: C_18  and  C_19 
REMARK    4  A    between atoms: C_28  and  N_29 
ROOT
HETATM    1  C   UNL     1     -42.917  56.815 -53.968  1.00  0.00     0.030 A 
HETATM    2  C   UNL     1     -43.149  56.687 -55.359  1.00  0.00     0.007 A 
HETATM    3  C   UNL     1     -42.619  55.536 -55.971  1.00  0.00     0.068 A 
HETATM    4  C   UNL     1     -42.800  55.352 -57.335  1.00  0.00     0.032 A 
HETATM    5  C   UNL     1     -43.499  56.269 -58.120  1.00  0.00     0.002 A 
HETATM    6  C   UNL     1     -44.039  57.401 -57.532  1.00  0.00     0.001 A 
HETATM    7  C   UNL     1     -43.870  57.609 -56.163  1.00  0.00     0.015 A 
HETATM    8  N   UNL     1     -41.941  54.593 -55.297  1.00  0.00    -0.248 NA
HETATM    9  C   UNL     1     -41.745  54.725 -53.964  1.00  0.00     0.068 A 
HETATM   10  C   UNL     1     -42.190  55.842 -53.274  1.00  0.00     0.049 A 
ENDROOT
BRANCH   1  11
HETATM   11  C   UNL     1     -43.381  58.012 -53.219  1.00  0.00     0.202 C 
HETATM   12  O   UNL     1     -43.830  57.863 -52.081  1.00  0.00    -0.286 OA
BRANCH  11  13
HETATM   13  C   UNL     1     -43.348  59.364 -53.871  1.00  0.00     0.121 C 
HETATM   14  C   UNL     1     -42.069  59.999 -54.268  1.00  0.00     0.266 C 
HETATM   15  N   UNL     1     -42.155  61.153 -54.977  1.00  0.00    -0.274 N 
HETATM   16  O   UNL     1     -40.977  59.528 -53.970  1.00  0.00    -0.267 OA
HETATM   17  C   UNL     1     -43.284  61.895 -55.129  1.00  0.00     0.330 C 
HETATM   18  H   UNL     1     -41.291  61.602 -55.240  1.00  0.00     0.173 HD
HETATM   19  N   UNL     1     -44.456  61.317 -54.663  1.00  0.00    -0.293 N 
HETATM   20  O   UNL     1     -43.205  63.008 -55.645  1.00  0.00    -0.246 OA
HETATM   21  C   UNL     1     -45.692  62.070 -54.866  1.00  0.00     0.162 C 
HETATM   22  C   UNL     1     -44.500  60.061 -54.052  1.00  0.00     0.103 C 
BRANCH  22  23
HETATM   23  N   UNL     1     -45.737  59.556 -53.661  1.00  0.00    -0.287 NA
HETATM   24  H   UNL     1     -46.299  59.241 -54.466  1.00  0.00     0.125 HD
HETATM   25  H   UNL     1     -45.650  58.787 -53.003  1.00  0.00     0.125 HD
ENDBRANCH  22  23
ENDBRANCH  11  13
ENDBRANCH   1  11
BRANCH   9  26
HETATM   26  C   UNL     1     -41.041  53.603 -53.312  1.00  0.00    -0.007 A 
HETATM   27  C   UNL     1     -40.546  52.525 -54.073  1.00  0.00     0.015 A 
HETATM   28  C   UNL     1     -39.896  51.443 -53.470  1.00  0.00     0.024 A 
HETATM   29  C   UNL     1     -39.735  51.416 -52.089  1.00  0.00     0.034 A 
HETATM   30 CL   UNL     1     -38.945  50.085 -51.343  1.00  0.00    -0.084 Cl
HETATM   31  C   UNL     1     -40.219  52.462 -51.308  1.00  0.00     0.024 A 
HETATM   32  C   UNL     1     -40.868  53.544 -51.916  1.00  0.00     0.015 A 
ENDBRANCH   9  26
TORSDOF 4
ENDMDL
