MODEL 1
REMARK VINA RESULT:      -6.6      0.000      0.000
REMARK  5 active torsions:
REMARK  status: ('A' for Active; 'I' for Inactive)
REMARK    1  A    between atoms: C_2  and  O_3 
REMARK    2  A    between atoms: C_4  and  C_5 
REMARK    3  A    between atoms: C_5  and  O_6 
REMARK    4  A    between atoms: C_9  and  C_10 
REMARK    5  A    between atoms: C_22  and  O_23 
ROOT
HETATM    1  C   UNL     1     -42.363  56.941 -56.914  1.00  0.00     0.047 C 
HETATM    2  C   UNL     1     -43.177  57.015 -55.613  1.00  0.00     0.073 C 
HETATM    3  C   UNL     1     -42.991  55.761 -54.685  1.00  0.00     0.133 C 
HETATM    4  C   UNL     1     -43.603  55.875 -53.244  1.00  0.00     0.074 C 
HETATM    5  C   UNL     1     -43.993  57.272 -52.887  1.00  0.00     0.030 A 
HETATM    6  C   UNL     1     -43.647  58.382 -53.624  1.00  0.00     0.042 A 
HETATM    7  N   UNL     1     -44.198  59.466 -53.002  1.00  0.00    -0.279 N 
HETATM    8  H   UNL     1     -44.147  60.445 -53.266  1.00  0.00     0.189 HD
HETATM    9  N   UNL     1     -44.944  59.123 -51.930  1.00  0.00    -0.149 NA
HETATM   10  C   UNL     1     -44.803  57.804 -51.882  1.00  0.00     0.190 A 
HETATM   11  C   UNL     1     -42.893  58.369 -54.900  1.00  0.00     0.097 C 
ENDROOT
BRANCH   4  12
HETATM   12  C   UNL     1     -42.733  55.394 -52.086  1.00  0.00    -0.048 A 
HETATM   13  C   UNL     1     -42.644  54.037 -51.719  1.00  0.00     0.009 A 
HETATM   14  C   UNL     1     -41.861  53.629 -50.637  1.00  0.00     0.019 A 
HETATM   15  C   UNL     1     -41.154  54.578 -49.905  1.00  0.00     0.011 A 
HETATM   16 BR   UNL     1     -40.096  54.030 -48.439  1.00  0.00    -0.051 Br
HETATM   17  C   UNL     1     -41.224  55.926 -50.247  1.00  0.00     0.019 A 
HETATM   18  C   UNL     1     -42.011  56.331 -51.329  1.00  0.00     0.009 A 
ENDBRANCH   4  12
BRANCH   3  19
HETATM   19  C   UNL     1     -41.552  55.292 -54.658  1.00  0.00     0.266 C 
HETATM   20  O   UNL     1     -40.596  55.972 -54.311  1.00  0.00    -0.265 OA
BRANCH  19  21
HETATM   21  O   UNL     1     -41.481  53.994 -55.076  1.00  0.00    -0.326 OA
HETATM   22  C   UNL     1     -40.312  53.297 -54.649  1.00  0.00     0.213 C 
ENDBRANCH  19  21
ENDBRANCH   3  19
BRANCH   2  23
HETATM   23  O   UNL     1     -44.553  57.014 -56.071  1.00  0.00    -0.389 OA
HETATM   24  H   UNL     1     -45.112  56.621 -55.376  1.00  0.00     0.210 HD
ENDBRANCH   2  23
BRANCH  10  25
HETATM   25  O   UNL     1     -45.482  57.190 -50.921  1.00  0.00    -0.343 OA
HETATM   26  H   UNL     1     -45.753  56.343 -51.314  1.00  0.00     0.219 HD
ENDBRANCH  10  25
TORSDOF 5
ENDMDL
MODEL 2
REMARK VINA RESULT:      -6.5      2.583      4.332
REMARK  5 active torsions:
REMARK  status: ('A' for Active; 'I' for Inactive)
REMARK    1  A    between atoms: C_2  and  O_3 
REMARK    2  A    between atoms: C_4  and  C_5 
REMARK    3  A    between atoms: C_5  and  O_6 
REMARK    4  A    between atoms: C_9  and  C_10 
REMARK    5  A    between atoms: C_22  and  O_23 
ROOT
HETATM    1  C   UNL     1     -44.260  59.041 -51.991  1.00  0.00     0.047 C 
HETATM    2  C   UNL     1     -43.753  58.604 -53.374  1.00  0.00     0.073 C 
HETATM    3  C   UNL     1     -42.471  57.699 -53.314  1.00  0.00     0.133 C 
HETATM    4  C   UNL     1     -42.041  57.026 -54.666  1.00  0.00     0.074 C 
HETATM    5  C   UNL     1     -43.096  57.110 -55.719  1.00  0.00     0.030 A 
HETATM    6  C   UNL     1     -44.391  57.514 -55.483  1.00  0.00     0.042 A 
HETATM    7  N   UNL     1     -45.046  57.484 -56.681  1.00  0.00    -0.279 N 
HETATM    8  H   UNL     1     -46.014  57.717 -56.883  1.00  0.00     0.189 HD
HETATM    9  N   UNL     1     -44.235  57.144 -57.706  1.00  0.00    -0.149 NA
HETATM   10  C   UNL     1     -43.073  56.925 -57.103  1.00  0.00     0.190 A 
HETATM   11  C   UNL     1     -44.927  57.976 -54.181  1.00  0.00     0.097 C 
ENDROOT
BRANCH   4  12
HETATM   12  C   UNL     1     -41.650  55.551 -54.608  1.00  0.00    -0.048 A 
HETATM   13  C   UNL     1     -42.601  54.523 -54.454  1.00  0.00     0.009 A 
HETATM   14  C   UNL     1     -42.212  53.184 -54.375  1.00  0.00     0.019 A 
HETATM   15  C   UNL     1     -40.863  52.856 -54.450  1.00  0.00     0.011 A 
HETATM   16 BR   UNL     1     -40.333  51.045 -54.341  1.00  0.00    -0.051 Br
HETATM   17  C   UNL     1     -39.903  53.853 -54.602  1.00  0.00     0.019 A 
HETATM   18  C   UNL     1     -40.295  55.193 -54.678  1.00  0.00     0.009 A 
ENDBRANCH   4  12
BRANCH   3  19
HETATM   19  C   UNL     1     -42.542  56.701 -52.177  1.00  0.00     0.266 C 
HETATM   20  O   UNL     1     -43.524  56.031 -51.888  1.00  0.00    -0.265 OA
BRANCH  19  21
HETATM   21  O   UNL     1     -41.342  56.657 -51.526  1.00  0.00    -0.326 OA
HETATM   22  C   UNL     1     -41.053  55.408 -50.902  1.00  0.00     0.213 C 
ENDBRANCH  19  21
ENDBRANCH   3  19
BRANCH   2  23
HETATM   23  O   UNL     1     -43.372  59.852 -54.008  1.00  0.00    -0.389 OA
HETATM   24  H   UNL     1     -44.182  60.345 -54.234  1.00  0.00     0.210 HD
ENDBRANCH   2  23
BRANCH  10  25
HETATM   25  O   UNL     1     -42.064  56.606 -57.903  1.00  0.00    -0.343 OA
HETATM   26  H   UNL     1     -41.874  55.675 -57.700  1.00  0.00     0.219 HD
ENDBRANCH  10  25
TORSDOF 5
ENDMDL
MODEL 3
REMARK VINA RESULT:      -6.4     16.261     18.362
REMARK  5 active torsions:
REMARK  status: ('A' for Active; 'I' for Inactive)
REMARK    1  A    between atoms: C_2  and  O_3 
REMARK    2  A    between atoms: C_4  and  C_5 
REMARK    3  A    between atoms: C_5  and  O_6 
REMARK    4  A    between atoms: C_9  and  C_10 
REMARK    5  A    between atoms: C_22  and  O_23 
ROOT
HETATM    1  C   UNL     1     -31.935  38.541 -52.608  1.00  0.00     0.047 C 
HETATM    2  C   UNL     1     -33.188  39.427 -52.530  1.00  0.00     0.073 C 
HETATM    3  C   UNL     1     -33.346  40.398 -53.755  1.00  0.00     0.133 C 
HETATM    4  C   UNL     1     -34.717  41.157 -53.857  1.00  0.00     0.074 C 
HETATM    5  C   UNL     1     -35.760  40.601 -52.944  1.00  0.00     0.030 A 
HETATM    6  C   UNL     1     -35.631  39.413 -52.259  1.00  0.00     0.042 A 
HETATM    7  N   UNL     1     -36.767  39.252 -51.517  1.00  0.00    -0.279 N 
HETATM    8  H   UNL     1     -37.016  38.491 -50.893  1.00  0.00     0.189 HD
HETATM    9  N   UNL     1     -37.609  40.302 -51.627  1.00  0.00    -0.149 NA
HETATM   10  C   UNL     1     -36.983  41.095 -52.487  1.00  0.00     0.190 A 
HETATM   11  C   UNL     1     -34.437  38.536 -52.270  1.00  0.00     0.097 C 
ENDROOT
BRANCH   4  12
HETATM   12  C   UNL     1     -35.375  41.207 -55.233  1.00  0.00    -0.048 A 
HETATM   13  C   UNL     1     -36.306  40.240 -55.662  1.00  0.00     0.009 A 
HETATM   14  C   UNL     1     -36.871  40.295 -56.938  1.00  0.00     0.019 A 
HETATM   15  C   UNL     1     -36.511  41.323 -57.804  1.00  0.00     0.011 A 
HETATM   16 BR   UNL     1     -37.272  41.399 -59.532  1.00  0.00    -0.051 Br
HETATM   17  C   UNL     1     -35.594  42.292 -57.405  1.00  0.00     0.019 A 
HETATM   18  C   UNL     1     -35.028  42.232 -56.128  1.00  0.00     0.009 A 
ENDBRANCH   4  12
BRANCH   3  19
HETATM   19  C   UNL     1     -32.969  39.723 -55.057  1.00  0.00     0.266 C 
HETATM   20  O   UNL     1     -33.453  38.681 -55.476  1.00  0.00    -0.265 OA
BRANCH  19  21
HETATM   21  O   UNL     1     -32.011  40.456 -55.696  1.00  0.00    -0.326 OA
HETATM   22  C   UNL     1     -31.001  39.679 -56.338  1.00  0.00     0.213 C 
ENDBRANCH  19  21
ENDBRANCH   3  19
BRANCH   2  23
HETATM   23  O   UNL     1     -32.954  40.247 -51.356  1.00  0.00    -0.389 OA
HETATM   24  H   UNL     1     -32.944  39.669 -50.571  1.00  0.00     0.210 HD
ENDBRANCH   2  23
BRANCH  10  25
HETATM   25  O   UNL     1     -37.588  42.247 -52.750  1.00  0.00    -0.343 OA
HETATM   26  H   UNL     1     -36.952  42.927 -52.468  1.00  0.00     0.219 HD
ENDBRANCH  10  25
TORSDOF 5
ENDMDL
MODEL 4
REMARK VINA RESULT:      -6.2     16.394     18.477
REMARK  5 active torsions:
REMARK  status: ('A' for Active; 'I' for Inactive)
REMARK    1  A    between atoms: C_2  and  O_3 
REMARK    2  A    between atoms: C_4  and  C_5 
REMARK    3  A    between atoms: C_5  and  O_6 
REMARK    4  A    between atoms: C_9  and  C_10 
REMARK    5  A    between atoms: C_22  and  O_23 
ROOT
HETATM    1  C   UNL     1     -35.214  41.149 -51.097  1.00  0.00     0.047 C 
HETATM    2  C   UNL     1     -35.273  41.576 -52.572  1.00  0.00     0.073 C 
HETATM    3  C   UNL     1     -34.008  41.147 -53.399  1.00  0.00     0.133 C 
HETATM    4  C   UNL     1     -34.106  41.341 -54.954  1.00  0.00     0.074 C 
HETATM    5  C   UNL     1     -35.498  41.614 -55.420  1.00  0.00     0.030 A 
HETATM    6  C   UNL     1     -36.617  41.480 -54.628  1.00  0.00     0.042 A 
HETATM    7  N   UNL     1     -37.693  41.837 -55.390  1.00  0.00    -0.279 N 
HETATM    8  H   UNL     1     -38.675  41.858 -55.133  1.00  0.00     0.189 HD
HETATM    9  N   UNL     1     -37.337  42.262 -56.621  1.00  0.00    -0.149 NA
HETATM   10  C   UNL     1     -36.018  42.117 -56.614  1.00  0.00     0.190 A 
HETATM   11  C   UNL     1     -36.619  41.104 -53.195  1.00  0.00     0.097 C 
ENDROOT
BRANCH   4  12
HETATM   12  C   UNL     1     -33.611  40.188 -55.824  1.00  0.00    -0.048 A 
HETATM   13  C   UNL     1     -32.252  40.018 -56.154  1.00  0.00     0.009 A 
HETATM   14  C   UNL     1     -31.833  38.970 -56.976  1.00  0.00     0.019 A 
HETATM   15  C   UNL     1     -32.771  38.075 -57.480  1.00  0.00     0.011 A 
HETATM   16 BR   UNL     1     -32.207  36.658 -58.594  1.00  0.00    -0.051 Br
HETATM   17  C   UNL     1     -34.120  38.221 -57.169  1.00  0.00     0.019 A 
HETATM   18  C   UNL     1     -34.538  39.273 -56.348  1.00  0.00     0.009 A 
ENDBRANCH   4  12
BRANCH   3  19
HETATM   19  C   UNL     1     -33.539  39.757 -53.026  1.00  0.00     0.266 C 
HETATM   20  O   UNL     1     -34.221  38.743 -53.090  1.00  0.00    -0.265 OA
BRANCH  19  21
HETATM   21  O   UNL     1     -32.239  39.804 -52.612  1.00  0.00    -0.326 OA
HETATM   22  C   UNL     1     -31.982  39.117 -51.388  1.00  0.00     0.213 C 
ENDBRANCH  19  21
ENDBRANCH   3  19
BRANCH   2  23
HETATM   23  O   UNL     1     -35.277  43.025 -52.508  1.00  0.00    -0.389 OA
HETATM   24  H   UNL     1     -36.107  43.315 -52.087  1.00  0.00     0.210 HD
ENDBRANCH   2  23
BRANCH  10  25
HETATM   25  O   UNL     1     -35.393  42.510 -57.717  1.00  0.00    -0.343 OA
HETATM   26  H   UNL     1     -34.783  41.782 -57.925  1.00  0.00     0.219 HD
ENDBRANCH  10  25
TORSDOF 5
ENDMDL
MODEL 5
REMARK VINA RESULT:      -6.2      2.805      4.682
REMARK  5 active torsions:
REMARK  status: ('A' for Active; 'I' for Inactive)
REMARK    1  A    between atoms: C_2  and  O_3 
REMARK    2  A    between atoms: C_4  and  C_5 
REMARK    3  A    between atoms: C_5  and  O_6 
REMARK    4  A    between atoms: C_9  and  C_10 
REMARK    5  A    between atoms: C_22  and  O_23 
ROOT
HETATM    1  C   UNL     1     -40.325  53.471 -52.518  1.00  0.00     0.047 C 
HETATM    2  C   UNL     1     -41.418  54.218 -53.299  1.00  0.00     0.073 C 
HETATM    3  C   UNL     1     -42.456  54.953 -52.377  1.00  0.00     0.133 C 
HETATM    4  C   UNL     1     -43.453  55.924 -53.103  1.00  0.00     0.074 C 
HETATM    5  C   UNL     1     -43.052  56.224 -54.510  1.00  0.00     0.030 A 
HETATM    6  C   UNL     1     -41.831  55.891 -55.052  1.00  0.00     0.042 A 
HETATM    7  N   UNL     1     -41.843  56.303 -56.354  1.00  0.00    -0.279 N 
HETATM    8  H   UNL     1     -41.112  56.223 -57.054  1.00  0.00     0.189 HD
HETATM    9  N   UNL     1     -43.032  56.832 -56.718  1.00  0.00    -0.149 NA
HETATM   10  C   UNL     1     -43.737  56.774 -55.595  1.00  0.00     0.190 A 
HETATM   11  C   UNL     1     -40.754  55.145 -54.359  1.00  0.00     0.097 C 
ENDROOT
BRANCH   4  12
HETATM   12  C   UNL     1     -43.683  57.286 -52.453  1.00  0.00    -0.048 A 
HETATM   13  C   UNL     1     -42.894  58.413 -52.759  1.00  0.00     0.009 A 
HETATM   14  C   UNL     1     -43.110  59.640 -52.128  1.00  0.00     0.019 A 
HETATM   15  C   UNL     1     -44.121  59.756 -51.180  1.00  0.00     0.011 A 
HETATM   16 BR   UNL     1     -44.414  61.414 -50.322  1.00  0.00    -0.051 Br
HETATM   17  C   UNL     1     -44.915  58.658 -50.860  1.00  0.00     0.019 A 
HETATM   18  C   UNL     1     -44.696  57.430 -51.491  1.00  0.00     0.009 A 
ENDBRANCH   4  12
BRANCH   3  19
HETATM   19  C   UNL     1     -41.784  55.609 -51.188  1.00  0.00     0.266 C 
HETATM   20  O   UNL     1     -40.924  56.476 -51.256  1.00  0.00    -0.265 OA
BRANCH  19  21
HETATM   21  O   UNL     1     -42.286  55.089 -50.030  1.00  0.00    -0.326 OA
HETATM   22  C   UNL     1     -41.299  54.730 -49.065  1.00  0.00     0.213 C 
ENDBRANCH  19  21
ENDBRANCH   3  19
BRANCH   2  23
HETATM   23  O   UNL     1     -42.127  53.159 -53.990  1.00  0.00    -0.389 OA
HETATM   24  H   UNL     1     -43.080  53.253 -53.807  1.00  0.00     0.210 HD
ENDBRANCH   2  23
BRANCH  10  25
HETATM   25  O   UNL     1     -44.990  57.204 -55.683  1.00  0.00    -0.343 OA
HETATM   26  H   UNL     1     -44.941  57.985 -56.260  1.00  0.00     0.219 HD
ENDBRANCH  10  25
TORSDOF 5
ENDMDL
MODEL 6
REMARK VINA RESULT:      -6.2      3.165      5.191
REMARK  5 active torsions:
REMARK  status: ('A' for Active; 'I' for Inactive)
REMARK    1  A    between atoms: C_2  and  O_3 
REMARK    2  A    between atoms: C_4  and  C_5 
REMARK    3  A    between atoms: C_5  and  O_6 
REMARK    4  A    between atoms: C_9  and  C_10 
REMARK    5  A    between atoms: C_22  and  O_23 
ROOT
HETATM    1  C   UNL     1     -41.512  53.322 -50.395  1.00  0.00     0.047 C 
HETATM    2  C   UNL     1     -41.094  54.686 -50.965  1.00  0.00     0.073 C 
HETATM    3  C   UNL     1     -41.189  54.766 -52.530  1.00  0.00     0.133 C 
HETATM    4  C   UNL     1     -41.006  56.194 -53.158  1.00  0.00     0.074 C 
HETATM    5  C   UNL     1     -41.078  57.288 -52.144  1.00  0.00     0.030 A 
HETATM    6  C   UNL     1     -41.493  57.109 -50.844  1.00  0.00     0.042 A 
HETATM    7  N   UNL     1     -41.403  58.322 -50.222  1.00  0.00    -0.279 N 
HETATM    8  H   UNL     1     -41.627  58.563 -49.262  1.00  0.00     0.189 HD
HETATM    9  N   UNL     1     -40.888  59.278 -51.026  1.00  0.00    -0.149 NA
HETATM   10  C   UNL     1     -40.704  58.633 -52.171  1.00  0.00     0.190 A 
HETATM   11  C   UNL     1     -41.875  55.815 -50.231  1.00  0.00     0.097 C 
ENDROOT
BRANCH   4  12
HETATM   12  C   UNL     1     -41.991  56.596 -54.252  1.00  0.00    -0.048 A 
HETATM   13  C   UNL     1     -41.779  56.290 -55.611  1.00  0.00     0.009 A 
HETATM   14  C   UNL     1     -42.684  56.696 -56.594  1.00  0.00     0.019 A 
HETATM   15  C   UNL     1     -43.817  57.416 -56.229  1.00  0.00     0.011 A 
HETATM   16 BR   UNL     1     -45.042  57.969 -57.557  1.00  0.00    -0.051 Br
HETATM   17  C   UNL     1     -44.050  57.732 -54.893  1.00  0.00     0.019 A 
HETATM   18  C   UNL     1     -43.141  57.326 -53.912  1.00  0.00     0.009 A 
ENDBRANCH   4  12
BRANCH   3  19
HETATM   19  C   UNL     1     -42.426  54.067 -53.054  1.00  0.00     0.266 C 
HETATM   20  O   UNL     1     -43.559  54.226 -52.624  1.00  0.00    -0.265 OA
BRANCH  19  21
HETATM   21  O   UNL     1     -42.086  53.235 -54.082  1.00  0.00    -0.326 OA
HETATM   22  C   UNL     1     -40.783  52.663 -53.975  1.00  0.00     0.213 C 
ENDBRANCH  19  21
ENDBRANCH   3  19
BRANCH   2  23
HETATM   23  O   UNL     1     -39.692  54.790 -50.610  1.00  0.00    -0.389 OA
HETATM   24  H   UNL     1     -39.597  55.463 -49.912  1.00  0.00     0.210 HD
ENDBRANCH   2  23
BRANCH  10  25
HETATM   25  O   UNL     1     -40.157  59.346 -53.148  1.00  0.00    -0.343 OA
HETATM   26  H   UNL     1     -40.464  58.918 -53.965  1.00  0.00     0.219 HD
ENDBRANCH  10  25
TORSDOF 5
ENDMDL
MODEL 7
REMARK VINA RESULT:      -6.1      3.324      4.786
REMARK  5 active torsions:
REMARK  status: ('A' for Active; 'I' for Inactive)
REMARK    1  A    between atoms: C_2  and  O_3 
REMARK    2  A    between atoms: C_4  and  C_5 
REMARK    3  A    between atoms: C_5  and  O_6 
REMARK    4  A    between atoms: C_9  and  C_10 
REMARK    5  A    between atoms: C_22  and  O_23 
ROOT
HETATM    1  C   UNL     1     -41.800  55.504 -55.702  1.00  0.00     0.047 C 
HETATM    2  C   UNL     1     -41.593  55.554 -54.180  1.00  0.00     0.073 C 
HETATM    3  C   UNL     1     -41.319  57.001 -53.632  1.00  0.00     0.133 C 
HETATM    4  C   UNL     1     -41.333  57.158 -52.070  1.00  0.00     0.074 C 
HETATM    5  C   UNL     1     -41.908  55.971 -51.371  1.00  0.00     0.030 A 
HETATM    6  C   UNL     1     -42.573  54.947 -52.009  1.00  0.00     0.042 A 
HETATM    7  N   UNL     1     -42.927  54.040 -51.051  1.00  0.00    -0.279 N 
HETATM    8  H   UNL     1     -43.430  53.165 -51.159  1.00  0.00     0.189 HD
HETATM    9  N   UNL     1     -42.475  54.380 -49.825  1.00  0.00    -0.149 NA
HETATM   10  C   UNL     1     -41.869  55.540 -50.044  1.00  0.00     0.190 A 
HETATM   11  C   UNL     1     -42.774  54.829 -53.472  1.00  0.00     0.097 C 
ENDROOT
BRANCH   4  12
HETATM   12  C   UNL     1     -42.088  58.359 -51.506  1.00  0.00    -0.048 A 
HETATM   13  C   UNL     1     -43.494  58.397 -51.424  1.00  0.00     0.009 A 
HETATM   14  C   UNL     1     -44.160  59.522 -50.929  1.00  0.00     0.019 A 
HETATM   15  C   UNL     1     -43.424  60.625 -50.509  1.00  0.00     0.011 A 
HETATM   16 BR   UNL     1     -44.321  62.149 -49.842  1.00  0.00    -0.051 Br
HETATM   17  C   UNL     1     -42.033  60.613 -50.580  1.00  0.00     0.019 A 
HETATM   18  C   UNL     1     -41.370  59.487 -51.078  1.00  0.00     0.009 A 
ENDBRANCH   4  12
BRANCH   3  19
HETATM   19  C   UNL     1     -42.188  58.034 -54.318  1.00  0.00     0.266 C 
HETATM   20  O   UNL     1     -43.383  57.908 -54.548  1.00  0.00    -0.265 OA
BRANCH  19  21
HETATM   21  O   UNL     1     -41.439  59.130 -54.637  1.00  0.00    -0.326 OA
HETATM   22  C   UNL     1     -42.168  60.355 -54.677  1.00  0.00     0.213 C 
ENDBRANCH  19  21
ENDBRANCH   3  19
BRANCH   2  23
HETATM   23  O   UNL     1     -40.385  54.778 -53.975  1.00  0.00    -0.389 OA
HETATM   24  H   UNL     1     -39.679  55.377 -53.669  1.00  0.00     0.210 HD
ENDBRANCH   2  23
BRANCH  10  25
HETATM   25  O   UNL     1     -41.286  56.090 -48.986  1.00  0.00    -0.343 OA
HETATM   26  H   UNL     1     -40.703  56.774 -49.356  1.00  0.00     0.219 HD
ENDBRANCH  10  25
TORSDOF 5
ENDMDL
MODEL 8
REMARK VINA RESULT:      -6.0     15.916     17.567
REMARK  5 active torsions:
REMARK  status: ('A' for Active; 'I' for Inactive)
REMARK    1  A    between atoms: C_2  and  O_3 
REMARK    2  A    between atoms: C_4  and  C_5 
REMARK    3  A    between atoms: C_5  and  O_6 
REMARK    4  A    between atoms: C_9  and  C_10 
REMARK    5  A    between atoms: C_22  and  O_23 
ROOT
HETATM    1  C   UNL     1     -33.382  40.215 -51.615  1.00  0.00     0.047 C 
HETATM    2  C   UNL     1     -34.825  40.652 -51.911  1.00  0.00     0.073 C 
HETATM    3  C   UNL     1     -35.012  41.266 -53.345  1.00  0.00     0.133 C 
HETATM    4  C   UNL     1     -36.495  41.513 -53.798  1.00  0.00     0.074 C 
HETATM    5  C   UNL     1     -37.494  40.840 -52.915  1.00  0.00     0.030 A 
HETATM    6  C   UNL     1     -37.169  39.911 -51.952  1.00  0.00     0.042 A 
HETATM    7  N   UNL     1     -38.333  39.542 -51.341  1.00  0.00    -0.279 N 
HETATM    8  H   UNL     1     -38.473  38.876 -50.587  1.00  0.00     0.189 HD
HETATM    9  N   UNL     1     -39.401  40.226 -51.807  1.00  0.00    -0.149 NA
HETATM   10  C   UNL     1     -38.871  40.996 -52.749  1.00  0.00     0.190 A 
HETATM   11  C   UNL     1     -35.797  39.476 -51.601  1.00  0.00     0.097 C 
ENDROOT
BRANCH   4  12
HETATM   12  C   UNL     1     -36.862  41.084 -55.217  1.00  0.00    -0.048 A 
HETATM   13  C   UNL     1     -37.053  42.010 -56.262  1.00  0.00     0.009 A 
HETATM   14  C   UNL     1     -37.416  41.590 -57.543  1.00  0.00     0.019 A 
HETATM   15  C   UNL     1     -37.593  40.234 -57.797  1.00  0.00     0.011 A 
HETATM   16 BR   UNL     1     -38.087  39.663 -59.529  1.00  0.00    -0.051 Br
HETATM   17  C   UNL     1     -37.410  39.298 -56.782  1.00  0.00     0.019 A 
HETATM   18  C   UNL     1     -37.049  39.721 -55.499  1.00  0.00     0.009 A 
ENDBRANCH   4  12
BRANCH   3  19
HETATM   19  C   UNL     1     -34.216  40.509 -54.387  1.00  0.00     0.266 C 
HETATM   20  O   UNL     1     -34.055  39.297 -54.407  1.00  0.00    -0.265 OA
BRANCH  19  21
HETATM   21  O   UNL     1     -33.707  41.384 -55.304  1.00  0.00    -0.326 OA
HETATM   22  C   UNL     1     -33.473  40.821 -56.593  1.00  0.00     0.213 C 
ENDBRANCH  19  21
ENDBRANCH   3  19
BRANCH   2  23
HETATM   23  O   UNL     1     -35.064  41.713 -50.952  1.00  0.00    -0.389 OA
HETATM   24  H   UNL     1     -34.576  41.508 -50.133  1.00  0.00     0.210 HD
ENDBRANCH   2  23
BRANCH  10  25
HETATM   25  O   UNL     1     -39.715  41.821 -53.356  1.00  0.00    -0.343 OA
HETATM   26  H   UNL     1     -39.324  41.968 -54.234  1.00  0.00     0.219 HD
ENDBRANCH  10  25
TORSDOF 5
ENDMDL
MODEL 9
REMARK VINA RESULT:      -6.0      3.768      6.106
REMARK  5 active torsions:
REMARK  status: ('A' for Active; 'I' for Inactive)
REMARK    1  A    between atoms: C_2  and  O_3 
REMARK    2  A    between atoms: C_4  and  C_5 
REMARK    3  A    between atoms: C_5  and  O_6 
REMARK    4  A    between atoms: C_9  and  C_10 
REMARK    5  A    between atoms: C_22  and  O_23 
ROOT
HETATM    1  C   UNL     1     -41.102  59.316 -50.997  1.00  0.00     0.047 C 
HETATM    2  C   UNL     1     -41.962  58.242 -51.680  1.00  0.00     0.073 C 
HETATM    3  C   UNL     1     -42.848  58.799 -52.851  1.00  0.00     0.133 C 
HETATM    4  C   UNL     1     -43.568  57.724 -53.741  1.00  0.00     0.074 C 
HETATM    5  C   UNL     1     -43.047  56.342 -53.518  1.00  0.00     0.030 A 
HETATM    6  C   UNL     1     -41.909  56.053 -52.798  1.00  0.00     0.042 A 
HETATM    7  N   UNL     1     -41.770  54.694 -52.796  1.00  0.00    -0.279 N 
HETATM    8  H   UNL     1     -41.045  54.130 -52.363  1.00  0.00     0.189 HD
HETATM    9  N   UNL     1     -42.791  54.068 -53.420  1.00  0.00    -0.149 NA
HETATM   10  C   UNL     1     -43.541  55.078 -53.844  1.00  0.00     0.190 A 
HETATM   11  C   UNL     1     -41.060  57.042 -52.093  1.00  0.00     0.097 C 
ENDROOT
BRANCH   4  12
HETATM   12  C   UNL     1     -43.514  57.933 -55.252  1.00  0.00    -0.048 A 
HETATM   13  C   UNL     1     -44.504  58.652 -55.952  1.00  0.00     0.009 A 
HETATM   14  C   UNL     1     -44.444  58.803 -57.339  1.00  0.00     0.019 A 
HETATM   15  C   UNL     1     -43.389  58.234 -58.046  1.00  0.00     0.011 A 
HETATM   16 BR   UNL     1     -43.307  58.434 -59.923  1.00  0.00    -0.051 Br
HETATM   17  C   UNL     1     -42.399  57.519 -57.379  1.00  0.00     0.019 A 
HETATM   18  C   UNL     1     -42.462  57.367 -55.991  1.00  0.00     0.009 A 
ENDBRANCH   4  12
BRANCH   3  19
HETATM   19  C   UNL     1     -42.100  59.820 -53.683  1.00  0.00     0.266 C 
HETATM   20  O   UNL     1     -40.961  59.684 -54.107  1.00  0.00    -0.265 OA
BRANCH  19  21
HETATM   21  O   UNL     1     -42.890  60.913 -53.893  1.00  0.00    -0.326 OA
HETATM   22  C   UNL     1     -43.389  61.521 -52.702  1.00  0.00     0.213 C 
ENDBRANCH  19  21
ENDBRANCH   3  19
BRANCH   2  23
HETATM   23  O   UNL     1     -42.860  57.804 -50.629  1.00  0.00    -0.389 OA
HETATM   24  H   UNL     1     -43.080  58.571 -50.070  1.00  0.00     0.210 HD
ENDBRANCH   2  23
BRANCH  10  25
HETATM   25  O   UNL     1     -44.660  54.735 -54.471  1.00  0.00    -0.343 OA
HETATM   26  H   UNL     1     -45.363  54.884 -53.816  1.00  0.00     0.219 HD
ENDBRANCH  10  25
TORSDOF 5
ENDMDL
MODEL 10
REMARK VINA RESULT:      -5.9     16.047     18.711
REMARK  5 active torsions:
REMARK  status: ('A' for Active; 'I' for Inactive)
REMARK    1  A    between atoms: C_2  and  O_3 
REMARK    2  A    between atoms: C_4  and  C_5 
REMARK    3  A    between atoms: C_5  and  O_6 
REMARK    4  A    between atoms: C_9  and  C_10 
REMARK    5  A    between atoms: C_22  and  O_23 
ROOT
HETATM    1  C   UNL     1     -36.600  38.048 -48.124  1.00  0.00     0.047 C 
HETATM    2  C   UNL     1     -36.677  39.162 -49.180  1.00  0.00     0.073 C 
HETATM    3  C   UNL     1     -35.272  39.607 -49.724  1.00  0.00     0.133 C 
HETATM    4  C   UNL     1     -35.288  40.566 -50.967  1.00  0.00     0.074 C 
HETATM    5  C   UNL     1     -36.629  40.652 -51.618  1.00  0.00     0.030 A 
HETATM    6  C   UNL     1     -37.683  39.816 -51.325  1.00  0.00     0.042 A 
HETATM    7  N   UNL     1     -38.737  40.213 -52.097  1.00  0.00    -0.279 N 
HETATM    8  H   UNL     1     -39.674  39.824 -52.145  1.00  0.00     0.189 HD
HETATM    9  N   UNL     1     -38.454  41.308 -52.836  1.00  0.00    -0.149 NA
HETATM   10  C   UNL     1     -37.185  41.550 -52.530  1.00  0.00     0.190 A 
HETATM   11  C   UNL     1     -37.679  38.748 -50.297  1.00  0.00     0.097 C 
ENDROOT
BRANCH   4  12
HETATM   12  C   UNL     1     -34.314  40.243 -52.098  1.00  0.00    -0.048 A 
HETATM   13  C   UNL     1     -34.682  39.465 -53.213  1.00  0.00     0.009 A 
HETATM   14  C   UNL     1     -33.762  39.162 -54.219  1.00  0.00     0.019 A 
HETATM   15  C   UNL     1     -32.458  39.636 -54.122  1.00  0.00     0.011 A 
HETATM   16 BR   UNL     1     -31.210  39.226 -55.480  1.00  0.00    -0.051 Br
HETATM   17  C   UNL     1     -32.069  40.408 -53.030  1.00  0.00     0.019 A 
HETATM   18  C   UNL     1     -32.991  40.707 -52.023  1.00  0.00     0.009 A 
ENDBRANCH   4  12
BRANCH   3  19
HETATM   19  C   UNL     1     -34.349  38.423 -49.928  1.00  0.00     0.266 C 
HETATM   20  O   UNL     1     -34.636  37.404 -50.541  1.00  0.00    -0.265 OA
BRANCH  19  21
HETATM   21  O   UNL     1     -33.147  38.666 -49.329  1.00  0.00    -0.326 OA
HETATM   22  C   UNL     1     -33.019  38.123 -48.016  1.00  0.00     0.213 C 
ENDBRANCH  19  21
ENDBRANCH   3  19
BRANCH   2  23
HETATM   23  O   UNL     1     -37.234  40.286 -48.452  1.00  0.00    -0.389 OA
HETATM   24  H   UNL     1     -38.206  40.218 -48.474  1.00  0.00     0.210 HD
ENDBRANCH   2  23
BRANCH  10  25
HETATM   25  O   UNL     1     -36.654  42.624 -53.101  1.00  0.00    -0.343 OA
HETATM   26  H   UNL     1     -35.729  42.377 -53.274  1.00  0.00     0.219 HD
ENDBRANCH  10  25
TORSDOF 5
ENDMDL
