MODEL 1
REMARK VINA RESULT:      -8.5      0.000      0.000
REMARK  3 active torsions:
REMARK  status: ('A' for Active; 'I' for Inactive)
REMARK    1  A    between atoms: C_4  and  C_5 
REMARK    2  A    between atoms: C_11  and  C_12 
REMARK    3  A    between atoms: C_21  and  N_22 
ROOT
HETATM    1  C   UNL     1     -41.267  54.815 -54.449  1.00  0.00     0.071 A 
HETATM    2  N   UNL     1     -41.710  54.869 -55.755  1.00  0.00    -0.274 N 
HETATM    3  H   UNL     1     -41.752  54.106 -56.422  1.00  0.00     0.189 HD
HETATM    4  N   UNL     1     -42.059  56.102 -56.172  1.00  0.00    -0.148 NA
HETATM    5  C   UNL     1     -41.844  56.833 -55.086  1.00  0.00     0.199 A 
HETATM    6  C   UNL     1     -41.406  56.108 -53.974  1.00  0.00     0.036 A 
HETATM    7  C   UNL     1     -41.137  56.793 -52.674  1.00  0.00     0.081 C 
HETATM    8  C   UNL     1     -41.038  58.311 -52.916  1.00  0.00     0.077 C 
HETATM    9  C   UNL     1     -40.456  59.092 -51.873  1.00  0.00     0.100 C 
HETATM   10  N   UNL     1     -39.962  59.712 -51.026  1.00  0.00    -0.192 NA
HETATM   11  C   UNL     1     -41.463  58.907 -54.062  1.00  0.00     0.140 C 
HETATM   12  O   UNL     1     -41.982  58.170 -55.134  1.00  0.00    -0.277 OA
ENDROOT
BRANCH   7  13
HETATM   13  C   UNL     1     -42.172  56.473 -51.537  1.00  0.00     0.022 C 
HETATM   14  C   UNL     1     -41.554  55.744 -50.365  1.00  0.00    -0.025 C 
HETATM   15  C   UNL     1     -41.958  54.541 -49.932  1.00  0.00    -0.030 C 
HETATM   16  C   UNL     1     -43.053  53.750 -50.580  1.00  0.00     0.027 C 
HETATM   17  C   UNL     1     -43.436  54.271 -51.964  1.00  0.00     0.004 C 
HETATM   18  C   UNL     1     -43.485  55.796 -52.004  1.00  0.00     0.010 C 
ENDBRANCH   7  13
BRANCH  11  19
HETATM   19  N   UNL     1     -41.429  60.261 -54.317  1.00  0.00    -0.282 NA
HETATM   20  H   UNL     1     -42.332  60.727 -54.361  1.00  0.00     0.126 HD
HETATM   21  H   UNL     1     -40.762  60.740 -53.714  1.00  0.00     0.126 HD
ENDBRANCH  11  19
BRANCH   1  22
HETATM   22  C   UNL     1     -40.750  53.589 -53.856  1.00  0.00    -0.007 A 
HETATM   23  C   UNL     1     -40.101  53.620 -52.614  1.00  0.00     0.014 A 
HETATM   24  C   UNL     1     -39.595  52.448 -52.048  1.00  0.00     0.001 A 
HETATM   25  C   UNL     1     -39.728  51.234 -52.719  1.00  0.00     0.000 A 
HETATM   26  C   UNL     1     -40.367  51.191 -53.956  1.00  0.00     0.001 A 
HETATM   27  C   UNL     1     -40.875  52.363 -54.524  1.00  0.00     0.014 A 
ENDBRANCH   1  22
TORSDOF 3
ENDMDL
MODEL 2
REMARK VINA RESULT:      -8.3      2.450      4.262
REMARK  3 active torsions:
REMARK  status: ('A' for Active; 'I' for Inactive)
REMARK    1  A    between atoms: C_4  and  C_5 
REMARK    2  A    between atoms: C_11  and  C_12 
REMARK    3  A    between atoms: C_21  and  N_22 
ROOT
HETATM    1  C   UNL     1     -40.269  53.454 -51.507  1.00  0.00     0.071 A 
HETATM    2  N   UNL     1     -39.675  53.696 -50.286  1.00  0.00    -0.274 N 
HETATM    3  H   UNL     1     -39.050  53.083 -49.774  1.00  0.00     0.189 HD
HETATM    4  N   UNL     1     -40.037  54.861 -49.713  1.00  0.00    -0.148 NA
HETATM    5  C   UNL     1     -40.867  55.368 -50.616  1.00  0.00     0.199 A 
HETATM    6  C   UNL     1     -41.022  54.587 -51.765  1.00  0.00     0.036 A 
HETATM    7  C   UNL     1     -41.914  55.035 -52.877  1.00  0.00     0.081 C 
HETATM    8  C   UNL     1     -42.830  56.162 -52.363  1.00  0.00     0.077 C 
HETATM    9  C   UNL     1     -43.967  56.482 -53.165  1.00  0.00     0.100 C 
HETATM   10  N   UNL     1     -44.898  56.716 -53.815  1.00  0.00    -0.192 NA
HETATM   11  C   UNL     1     -42.602  56.830 -51.202  1.00  0.00     0.140 C 
HETATM   12  O   UNL     1     -41.534  56.506 -50.356  1.00  0.00    -0.277 OA
ENDROOT
BRANCH   7  13
HETATM   13  C   UNL     1     -41.162  55.476 -54.184  1.00  0.00     0.022 C 
HETATM   14  C   UNL     1     -41.243  56.966 -54.435  1.00  0.00    -0.025 C 
HETATM   15  C   UNL     1     -41.766  57.513 -55.543  1.00  0.00    -0.030 C 
HETATM   16  C   UNL     1     -42.371  56.714 -56.657  1.00  0.00     0.027 C 
HETATM   17  C   UNL     1     -42.646  55.260 -56.277  1.00  0.00     0.004 C 
HETATM   18  C   UNL     1     -41.506  54.662 -55.456  1.00  0.00     0.010 C 
ENDBRANCH   7  13
BRANCH  11  19
HETATM   19  N   UNL     1     -43.369  57.866 -50.713  1.00  0.00    -0.282 NA
HETATM   20  H   UNL     1     -44.233  58.054 -51.216  1.00  0.00     0.126 HD
HETATM   21  H   UNL     1     -43.502  57.793 -49.706  1.00  0.00     0.126 HD
ENDBRANCH  11  19
BRANCH   1  22
HETATM   22  C   UNL     1     -40.080  52.202 -52.227  1.00  0.00    -0.007 A 
HETATM   23  C   UNL     1     -39.711  51.037 -51.540  1.00  0.00     0.014 A 
HETATM   24  C   UNL     1     -39.519  49.837 -52.229  1.00  0.00     0.001 A 
HETATM   25  C   UNL     1     -39.690  49.791 -53.611  1.00  0.00     0.000 A 
HETATM   26  C   UNL     1     -40.053  50.943 -54.305  1.00  0.00     0.001 A 
HETATM   27  C   UNL     1     -40.246  52.144 -53.617  1.00  0.00     0.014 A 
ENDBRANCH   1  22
TORSDOF 3
ENDMDL
MODEL 3
REMARK VINA RESULT:      -8.2      2.672      4.230
REMARK  3 active torsions:
REMARK  status: ('A' for Active; 'I' for Inactive)
REMARK    1  A    between atoms: C_4  and  C_5 
REMARK    2  A    between atoms: C_11  and  C_12 
REMARK    3  A    between atoms: C_21  and  N_22 
ROOT
HETATM    1  C   UNL     1     -41.031  57.266 -53.107  1.00  0.00     0.071 A 
HETATM    2  N   UNL     1     -39.911  58.073 -53.107  1.00  0.00    -0.274 N 
HETATM    3  H   UNL     1     -38.967  57.813 -53.370  1.00  0.00     0.189 HD
HETATM    4  N   UNL     1     -40.125  59.319 -52.641  1.00  0.00    -0.148 NA
HETATM    5  C   UNL     1     -41.421  59.292 -52.361  1.00  0.00     0.199 A 
HETATM    6  C   UNL     1     -42.057  58.085 -52.666  1.00  0.00     0.036 A 
HETATM    7  C   UNL     1     -43.520  57.909 -52.420  1.00  0.00     0.081 C 
HETATM    8  C   UNL     1     -44.011  59.031 -51.485  1.00  0.00     0.077 C 
HETATM    9  C   UNL     1     -45.285  58.843 -50.869  1.00  0.00     0.100 C 
HETATM   10  N   UNL     1     -46.311  58.668 -50.359  1.00  0.00    -0.192 NA
HETATM   11  C   UNL     1     -43.285  60.151 -51.228  1.00  0.00     0.140 C 
HETATM   12  O   UNL     1     -42.005  60.345 -51.763  1.00  0.00    -0.277 OA
ENDROOT
BRANCH   7  13
HETATM   13  C   UNL     1     -44.400  57.838 -53.719  1.00  0.00     0.022 C 
HETATM   14  C   UNL     1     -44.294  56.506 -54.430  1.00  0.00    -0.025 C 
HETATM   15  C   UNL     1     -43.882  56.363 -55.698  1.00  0.00    -0.030 C 
HETATM   16  C   UNL     1     -43.440  57.506 -56.561  1.00  0.00     0.027 C 
HETATM   17  C   UNL     1     -43.176  58.789 -55.776  1.00  0.00     0.004 C 
HETATM   18  C   UNL     1     -44.235  59.025 -54.700  1.00  0.00     0.010 C 
ENDBRANCH   7  13
BRANCH  11  19
HETATM   19  N   UNL     1     -43.690  61.198 -50.428  1.00  0.00    -0.282 NA
HETATM   20  H   UNL     1     -42.947  61.781 -50.051  1.00  0.00     0.126 HD
HETATM   21  H   UNL     1     -44.437  61.736 -50.864  1.00  0.00     0.126 HD
ENDBRANCH  11  19
BRANCH   1  22
HETATM   22  C   UNL     1     -40.972  55.858 -53.477  1.00  0.00    -0.007 A 
HETATM   23  C   UNL     1     -41.411  54.871 -52.585  1.00  0.00     0.014 A 
HETATM   24  C   UNL     1     -41.347  53.520 -52.932  1.00  0.00     0.001 A 
HETATM   25  C   UNL     1     -40.839  53.142 -54.174  1.00  0.00     0.000 A 
HETATM   26  C   UNL     1     -40.396  54.115 -55.068  1.00  0.00     0.001 A 
HETATM   27  C   UNL     1     -40.461  55.467 -54.722  1.00  0.00     0.014 A 
ENDBRANCH   1  22
TORSDOF 3
ENDMDL
MODEL 4
REMARK VINA RESULT:      -8.1      2.073      2.552
REMARK  3 active torsions:
REMARK  status: ('A' for Active; 'I' for Inactive)
REMARK    1  A    between atoms: C_4  and  C_5 
REMARK    2  A    between atoms: C_11  and  C_12 
REMARK    3  A    between atoms: C_21  and  N_22 
ROOT
HETATM    1  C   UNL     1     -43.229  55.912 -54.071  1.00  0.00     0.071 A 
HETATM    2  N   UNL     1     -44.407  55.927 -54.789  1.00  0.00    -0.274 N 
HETATM    3  H   UNL     1     -44.676  55.302 -55.541  1.00  0.00     0.189 HD
HETATM    4  N   UNL     1     -45.240  56.936 -54.468  1.00  0.00    -0.148 NA
HETATM    5  C   UNL     1     -44.569  57.556 -53.507  1.00  0.00     0.199 A 
HETATM    6  C   UNL     1     -43.349  56.959 -53.172  1.00  0.00     0.036 A 
HETATM    7  C   UNL     1     -42.488  57.536 -52.097  1.00  0.00     0.081 C 
HETATM    8  C   UNL     1     -42.959  58.970 -51.789  1.00  0.00     0.077 C 
HETATM    9  C   UNL     1     -42.064  59.795 -51.044  1.00  0.00     0.100 C 
HETATM   10  N   UNL     1     -41.318  60.461 -50.458  1.00  0.00    -0.192 NA
HETATM   11  C   UNL     1     -44.158  59.459 -52.203  1.00  0.00     0.140 C 
HETATM   12  O   UNL     1     -45.038  58.704 -52.987  1.00  0.00    -0.277 OA
ENDROOT
BRANCH   7  13
HETATM   13  C   UNL     1     -42.414  56.677 -50.784  1.00  0.00     0.022 C 
HETATM   14  C   UNL     1     -41.125  55.894 -50.664  1.00  0.00    -0.025 C 
HETATM   15  C   UNL     1     -41.065  54.559 -50.554  1.00  0.00    -0.030 C 
HETATM   16  C   UNL     1     -42.271  53.669 -50.573  1.00  0.00     0.027 C 
HETATM   17  C   UNL     1     -43.534  54.375 -51.064  1.00  0.00     0.004 C 
HETATM   18  C   UNL     1     -43.651  55.789 -50.499  1.00  0.00     0.010 C 
ENDBRANCH   7  13
BRANCH  11  19
HETATM   19  N   UNL     1     -44.642  60.720 -51.927  1.00  0.00    -0.282 NA
HETATM   20  H   UNL     1     -44.427  61.438 -52.615  1.00  0.00     0.126 HD
HETATM   21  H   UNL     1     -45.628  60.696 -51.671  1.00  0.00     0.126 HD
ENDBRANCH  11  19
BRANCH   1  22
HETATM   22  C   UNL     1     -42.162  54.960 -54.350  1.00  0.00    -0.007 A 
HETATM   23  C   UNL     1     -42.378  53.585 -54.189  1.00  0.00     0.014 A 
HETATM   24  C   UNL     1     -41.354  52.670 -54.445  1.00  0.00     0.001 A 
HETATM   25  C   UNL     1     -40.103  53.122 -54.861  1.00  0.00     0.000 A 
HETATM   26  C   UNL     1     -39.875  54.487 -55.020  1.00  0.00     0.001 A 
HETATM   27  C   UNL     1     -40.899  55.403 -54.765  1.00  0.00     0.014 A 
ENDBRANCH   1  22
TORSDOF 3
ENDMDL
MODEL 5
REMARK VINA RESULT:      -8.0      2.689      4.570
REMARK  3 active torsions:
REMARK  status: ('A' for Active; 'I' for Inactive)
REMARK    1  A    between atoms: C_4  and  C_5 
REMARK    2  A    between atoms: C_11  and  C_12 
REMARK    3  A    between atoms: C_21  and  N_22 
ROOT
HETATM    1  C   UNL     1     -43.293  56.721 -51.315  1.00  0.00     0.071 A 
HETATM    2  N   UNL     1     -44.463  56.666 -50.586  1.00  0.00    -0.274 N 
HETATM    3  H   UNL     1     -44.679  56.041 -49.818  1.00  0.00     0.189 HD
HETATM    4  N   UNL     1     -45.423  57.510 -51.013  1.00  0.00    -0.148 NA
HETATM    5  C   UNL     1     -44.825  58.123 -52.026  1.00  0.00     0.199 A 
HETATM    6  C   UNL     1     -43.500  57.729 -52.242  1.00  0.00     0.036 A 
HETATM    7  C   UNL     1     -42.692  58.343 -53.338  1.00  0.00     0.081 C 
HETATM    8  C   UNL     1     -43.637  59.073 -54.311  1.00  0.00     0.077 C 
HETATM    9  C   UNL     1     -43.099  59.427 -55.585  1.00  0.00     0.100 C 
HETATM   10  N   UNL     1     -42.656  59.689 -56.625  1.00  0.00    -0.192 NA
HETATM   11  C   UNL     1     -44.928  59.370 -54.007  1.00  0.00     0.140 C 
HETATM   12  O   UNL     1     -45.512  58.987 -52.793  1.00  0.00    -0.277 OA
ENDROOT
BRANCH   7  13
HETATM   13  C   UNL     1     -41.543  59.296 -52.851  1.00  0.00     0.022 C 
HETATM   14  C   UNL     1     -40.338  58.546 -52.327  1.00  0.00    -0.025 C 
HETATM   15  C   UNL     1     -39.850  58.683 -51.086  1.00  0.00    -0.030 C 
HETATM   16  C   UNL     1     -40.462  59.573 -50.047  1.00  0.00     0.027 C 
HETATM   17  C   UNL     1     -41.869  60.044 -50.409  1.00  0.00     0.004 C 
HETATM   18  C   UNL     1     -41.979  60.425 -51.884  1.00  0.00     0.010 C 
ENDBRANCH   7  13
BRANCH  11  19
HETATM   19  N   UNL     1     -45.804  60.051 -54.825  1.00  0.00    -0.282 NA
HETATM   20  H   UNL     1     -46.021  59.603 -55.712  1.00  0.00     0.126 HD
HETATM   21  H   UNL     1     -46.634  60.354 -54.318  1.00  0.00     0.126 HD
ENDBRANCH  11  19
BRANCH   1  22
HETATM   22  C   UNL     1     -42.182  55.812 -51.069  1.00  0.00    -0.007 A 
HETATM   23  C   UNL     1     -41.735  54.948 -52.078  1.00  0.00     0.014 A 
HETATM   24  C   UNL     1     -40.677  54.067 -51.841  1.00  0.00     0.001 A 
HETATM   25  C   UNL     1     -40.058  54.040 -50.593  1.00  0.00     0.000 A 
HETATM   26  C   UNL     1     -40.496  54.891 -49.582  1.00  0.00     0.001 A 
HETATM   27  C   UNL     1     -41.553  55.774 -49.817  1.00  0.00     0.014 A 
ENDBRANCH   1  22
TORSDOF 3
ENDMDL
MODEL 6
REMARK VINA RESULT:      -7.9      2.851      5.836
REMARK  3 active torsions:
REMARK  status: ('A' for Active; 'I' for Inactive)
REMARK    1  A    between atoms: C_4  and  C_5 
REMARK    2  A    between atoms: C_11  and  C_12 
REMARK    3  A    between atoms: C_21  and  N_22 
ROOT
HETATM    1  C   UNL     1     -44.089  56.587 -53.142  1.00  0.00     0.071 A 
HETATM    2  N   UNL     1     -44.578  55.898 -54.233  1.00  0.00    -0.274 N 
HETATM    3  H   UNL     1     -45.412  56.109 -54.770  1.00  0.00     0.189 HD
HETATM    4  N   UNL     1     -43.876  54.792 -54.551  1.00  0.00    -0.148 NA
HETATM    5  C   UNL     1     -42.910  54.806 -53.642  1.00  0.00     0.199 A 
HETATM    6  C   UNL     1     -42.943  55.902 -52.774  1.00  0.00     0.036 A 
HETATM    7  C   UNL     1     -41.910  56.062 -51.708  1.00  0.00     0.081 C 
HETATM    8  C   UNL     1     -41.170  54.723 -51.519  1.00  0.00     0.077 C 
HETATM    9  C   UNL     1     -40.393  54.580 -50.330  1.00  0.00     0.100 C 
HETATM   10  N   UNL     1     -39.783  54.469 -49.350  1.00  0.00    -0.192 NA
HETATM   11  C   UNL     1     -41.243  53.705 -52.416  1.00  0.00     0.140 C 
HETATM   12  O   UNL     1     -42.042  53.781 -53.564  1.00  0.00    -0.277 OA
ENDROOT
BRANCH   7  13
HETATM   13  C   UNL     1     -40.894  57.234 -51.949  1.00  0.00     0.022 C 
HETATM   14  C   UNL     1     -41.273  58.503 -51.217  1.00  0.00    -0.025 C 
HETATM   15  C   UNL     1     -41.499  59.679 -51.821  1.00  0.00    -0.030 C 
HETATM   16  C   UNL     1     -41.438  59.875 -53.305  1.00  0.00     0.027 C 
HETATM   17  C   UNL     1     -41.433  58.563 -54.088  1.00  0.00     0.004 C 
HETATM   18  C   UNL     1     -40.539  57.513 -53.431  1.00  0.00     0.010 C 
ENDBRANCH   7  13
BRANCH  11  19
HETATM   19  N   UNL     1     -40.576  52.502 -52.314  1.00  0.00    -0.282 NA
HETATM   20  H   UNL     1     -39.568  52.542 -52.440  1.00  0.00     0.126 HD
HETATM   21  H   UNL     1     -40.854  51.988 -51.480  1.00  0.00     0.126 HD
ENDBRANCH  11  19
BRANCH   1  22
HETATM   22  C   UNL     1     -44.773  57.747 -52.587  1.00  0.00    -0.007 A 
HETATM   23  C   UNL     1     -45.068  58.852 -53.397  1.00  0.00     0.014 A 
HETATM   24  C   UNL     1     -45.715  59.970 -52.865  1.00  0.00     0.001 A 
HETATM   25  C   UNL     1     -46.070  59.995 -51.518  1.00  0.00     0.000 A 
HETATM   26  C   UNL     1     -45.779  58.904 -50.702  1.00  0.00     0.001 A 
HETATM   27  C   UNL     1     -45.133  57.785 -51.233  1.00  0.00     0.014 A 
ENDBRANCH   1  22
TORSDOF 3
ENDMDL
MODEL 7
REMARK VINA RESULT:      -7.9      2.516      4.534
REMARK  3 active torsions:
REMARK  status: ('A' for Active; 'I' for Inactive)
REMARK    1  A    between atoms: C_4  and  C_5 
REMARK    2  A    between atoms: C_11  and  C_12 
REMARK    3  A    between atoms: C_21  and  N_22 
ROOT
HETATM    1  C   UNL     1     -43.698  57.197 -55.454  1.00  0.00     0.071 A 
HETATM    2  N   UNL     1     -45.042  57.250 -55.148  1.00  0.00    -0.274 N 
HETATM    3  H   UNL     1     -45.822  57.102 -55.778  1.00  0.00     0.189 HD
HETATM    4  N   UNL     1     -45.308  57.600 -53.874  1.00  0.00    -0.148 NA
HETATM    5  C   UNL     1     -44.091  57.750 -53.367  1.00  0.00     0.199 A 
HETATM    6  C   UNL     1     -43.052  57.473 -54.260  1.00  0.00     0.036 A 
HETATM    7  C   UNL     1     -41.626  57.583 -53.829  1.00  0.00     0.081 C 
HETATM    8  C   UNL     1     -41.559  58.380 -52.512  1.00  0.00     0.077 C 
HETATM    9  C   UNL     1     -40.278  58.877 -52.126  1.00  0.00     0.100 C 
HETATM   10  N   UNL     1     -39.236  59.294 -51.835  1.00  0.00    -0.192 NA
HETATM   11  C   UNL     1     -42.650  58.625 -51.739  1.00  0.00     0.140 C 
HETATM   12  O   UNL     1     -43.934  58.209 -52.113  1.00  0.00    -0.277 OA
ENDROOT
BRANCH   7  13
HETATM   13  C   UNL     1     -40.873  56.211 -53.692  1.00  0.00     0.022 C 
HETATM   14  C   UNL     1     -40.569  55.571 -55.029  1.00  0.00    -0.025 C 
HETATM   15  C   UNL     1     -40.999  54.354 -55.393  1.00  0.00    -0.030 C 
HETATM   16  C   UNL     1     -41.869  53.489 -54.533  1.00  0.00     0.027 C 
HETATM   17  C   UNL     1     -42.497  54.240 -53.361  1.00  0.00     0.004 C 
HETATM   18  C   UNL     1     -41.507  55.200 -52.705  1.00  0.00     0.010 C 
ENDBRANCH   7  13
BRANCH  11  19
HETATM   19  N   UNL     1     -42.641  59.302 -50.538  1.00  0.00    -0.282 NA
HETATM   20  H   UNL     1     -41.850  59.112 -49.928  1.00  0.00     0.126 HD
HETATM   21  H   UNL     1     -42.816  60.297 -50.666  1.00  0.00     0.126 HD
ENDBRANCH  11  19
BRANCH   1  22
HETATM   22  C   UNL     1     -43.219  56.938 -56.805  1.00  0.00    -0.007 A 
HETATM   23  C   UNL     1     -42.488  57.913 -57.497  1.00  0.00     0.014 A 
HETATM   24  C   UNL     1     -42.037  57.672 -58.797  1.00  0.00     0.001 A 
HETATM   25  C   UNL     1     -42.317  56.457 -59.419  1.00  0.00     0.000 A 
HETATM   26  C   UNL     1     -43.046  55.482 -58.742  1.00  0.00     0.001 A 
HETATM   27  C   UNL     1     -43.497  55.721 -57.442  1.00  0.00     0.014 A 
ENDBRANCH   1  22
TORSDOF 3
ENDMDL
MODEL 8
REMARK VINA RESULT:      -7.9      3.180      4.844
REMARK  3 active torsions:
REMARK  status: ('A' for Active; 'I' for Inactive)
REMARK    1  A    between atoms: C_4  and  C_5 
REMARK    2  A    between atoms: C_11  and  C_12 
REMARK    3  A    between atoms: C_21  and  N_22 
ROOT
HETATM    1  C   UNL     1     -43.606  56.553 -52.289  1.00  0.00     0.071 A 
HETATM    2  N   UNL     1     -44.202  56.124 -51.121  1.00  0.00    -0.274 N 
HETATM    3  H   UNL     1     -44.077  55.229 -50.660  1.00  0.00     0.189 HD
HETATM    4  N   UNL     1     -45.089  56.993 -50.598  1.00  0.00    -0.148 NA
HETATM    5  C   UNL     1     -45.027  58.003 -51.456  1.00  0.00     0.199 A 
HETATM    6  C   UNL     1     -44.104  57.829 -52.492  1.00  0.00     0.036 A 
HETATM    7  C   UNL     1     -43.912  58.888 -53.527  1.00  0.00     0.081 C 
HETATM    8  C   UNL     1     -45.095  59.874 -53.464  1.00  0.00     0.077 C 
HETATM    9  C   UNL     1     -45.264  60.747 -54.581  1.00  0.00     0.100 C 
HETATM   10  N   UNL     1     -45.404  61.435 -55.504  1.00  0.00    -0.192 NA
HETATM   11  C   UNL     1     -45.958  59.927 -52.416  1.00  0.00     0.140 C 
HETATM   12  O   UNL     1     -45.864  59.047 -51.330  1.00  0.00    -0.277 OA
ENDROOT
BRANCH   7  13
HETATM   13  C   UNL     1     -42.542  59.651 -53.440  1.00  0.00     0.022 C 
HETATM   14  C   UNL     1     -41.376  58.825 -53.938  1.00  0.00    -0.025 C 
HETATM   15  C   UNL     1     -40.305  58.514 -53.193  1.00  0.00    -0.030 C 
HETATM   16  C   UNL     1     -40.146  58.917 -51.758  1.00  0.00     0.027 C 
HETATM   17  C   UNL     1     -41.443  59.413 -51.123  1.00  0.00     0.004 C 
HETATM   18  C   UNL     1     -42.234  60.311 -52.073  1.00  0.00     0.010 C 
ENDBRANCH   7  13
BRANCH  11  19
HETATM   19  N   UNL     1     -47.010  60.810 -52.293  1.00  0.00    -0.282 NA
HETATM   20  H   UNL     1     -47.888  60.516 -52.715  1.00  0.00     0.126 HD
HETATM   21  H   UNL     1     -47.118  61.134 -51.334  1.00  0.00     0.126 HD
ENDBRANCH  11  19
BRANCH   1  22
HETATM   22  C   UNL     1     -42.699  55.708 -53.054  1.00  0.00    -0.007 A 
HETATM   23  C   UNL     1     -42.979  55.397 -54.391  1.00  0.00     0.014 A 
HETATM   24  C   UNL     1     -42.117  54.577 -55.125  1.00  0.00     0.001 A 
HETATM   25  C   UNL     1     -40.971  54.058 -54.526  1.00  0.00     0.000 A 
HETATM   26  C   UNL     1     -40.685  54.357 -53.196  1.00  0.00     0.001 A 
HETATM   27  C   UNL     1     -41.545  55.177 -52.462  1.00  0.00     0.014 A 
ENDBRANCH   1  22
TORSDOF 3
ENDMDL
MODEL 9
REMARK VINA RESULT:      -7.9      3.098      4.616
REMARK  3 active torsions:
REMARK  status: ('A' for Active; 'I' for Inactive)
REMARK    1  A    between atoms: C_4  and  C_5 
REMARK    2  A    between atoms: C_11  and  C_12 
REMARK    3  A    between atoms: C_21  and  N_22 
ROOT
HETATM    1  C   UNL     1     -42.872  55.593 -56.825  1.00  0.00     0.071 A 
HETATM    2  N   UNL     1     -43.609  54.829 -57.706  1.00  0.00    -0.274 N 
HETATM    3  H   UNL     1     -43.829  53.842 -57.629  1.00  0.00     0.189 HD
HETATM    4  N   UNL     1     -44.012  55.489 -58.810  1.00  0.00    -0.148 NA
HETATM    5  C   UNL     1     -43.528  56.706 -58.599  1.00  0.00     0.199 A 
HETATM    6  C   UNL     1     -42.859  56.862 -57.380  1.00  0.00     0.036 A 
HETATM    7  C   UNL     1     -42.273  58.180 -56.996  1.00  0.00     0.081 C 
HETATM    8  C   UNL     1     -42.192  59.079 -58.244  1.00  0.00     0.077 C 
HETATM    9  C   UNL     1     -41.359  60.234 -58.152  1.00  0.00     0.100 C 
HETATM   10  N   UNL     1     -40.662  61.158 -58.071  1.00  0.00    -0.192 NA
HETATM   11  C   UNL     1     -42.859  58.805 -59.397  1.00  0.00     0.140 C 
HETATM   12  O   UNL     1     -43.636  57.650 -59.549  1.00  0.00    -0.277 OA
ENDROOT
BRANCH   7  13
HETATM   13  C   UNL     1     -43.019  58.914 -55.825  1.00  0.00     0.022 C 
HETATM   14  C   UNL     1     -42.457  58.573 -54.462  1.00  0.00    -0.025 C 
HETATM   15  C   UNL     1     -43.175  58.026 -53.470  1.00  0.00    -0.030 C 
HETATM   16  C   UNL     1     -44.620  57.650 -53.601  1.00  0.00     0.027 C 
HETATM   17  C   UNL     1     -45.110  57.628 -55.047  1.00  0.00     0.004 C 
HETATM   18  C   UNL     1     -44.564  58.807 -55.850  1.00  0.00     0.010 C 
ENDBRANCH   7  13
BRANCH  11  19
HETATM   19  N   UNL     1     -42.848  59.591 -60.530  1.00  0.00    -0.282 NA
HETATM   20  H   UNL     1     -42.740  60.590 -60.376  1.00  0.00     0.126 HD
HETATM   21  H   UNL     1     -42.212  59.224 -61.236  1.00  0.00     0.126 HD
ENDBRANCH  11  19
BRANCH   1  22
HETATM   22  C   UNL     1     -42.264  55.027 -55.628  1.00  0.00    -0.007 A 
HETATM   23  C   UNL     1     -43.065  54.481 -54.616  1.00  0.00     0.014 A 
HETATM   24  C   UNL     1     -42.485  53.946 -53.463  1.00  0.00     0.001 A 
HETATM   25  C   UNL     1     -41.100  53.956 -53.310  1.00  0.00     0.000 A 
HETATM   26  C   UNL     1     -40.294  54.500 -54.308  1.00  0.00     0.001 A 
HETATM   27  C   UNL     1     -40.873  55.033 -55.462  1.00  0.00     0.014 A 
ENDBRANCH   1  22
TORSDOF 3
ENDMDL
MODEL 10
REMARK VINA RESULT:      -7.8     15.016     17.281
REMARK  3 active torsions:
REMARK  status: ('A' for Active; 'I' for Inactive)
REMARK    1  A    between atoms: C_4  and  C_5 
REMARK    2  A    between atoms: C_11  and  C_12 
REMARK    3  A    between atoms: C_21  and  N_22 
ROOT
HETATM    1  C   UNL     1     -35.395  38.607 -55.657  1.00  0.00     0.071 A 
HETATM    2  N   UNL     1     -35.853  37.314 -55.501  1.00  0.00    -0.274 N 
HETATM    3  H   UNL     1     -35.447  36.583 -54.926  1.00  0.00     0.189 HD
HETATM    4  N   UNL     1     -36.924  37.009 -56.259  1.00  0.00    -0.148 NA
HETATM    5  C   UNL     1     -37.152  38.153 -56.891  1.00  0.00     0.199 A 
HETATM    6  C   UNL     1     -36.287  39.194 -56.538  1.00  0.00     0.036 A 
HETATM    7  C   UNL     1     -36.430  40.546 -57.156  1.00  0.00     0.081 C 
HETATM    8  C   UNL     1     -37.323  40.437 -58.406  1.00  0.00     0.077 C 
HETATM    9  C   UNL     1     -37.300  41.540 -59.312  1.00  0.00     0.100 C 
HETATM   10  N   UNL     1     -37.255  42.434 -60.049  1.00  0.00    -0.192 NA
HETATM   11  C   UNL     1     -38.097  39.351 -58.670  1.00  0.00     0.140 C 
HETATM   12  O   UNL     1     -38.102  38.223 -57.840  1.00  0.00    -0.277 OA
ENDROOT
BRANCH   7  13
HETATM   13  C   UNL     1     -36.962  41.659 -56.183  1.00  0.00     0.022 C 
HETATM   14  C   UNL     1     -35.853  42.388 -55.458  1.00  0.00    -0.025 C 
HETATM   15  C   UNL     1     -35.736  42.442 -54.124  1.00  0.00    -0.030 C 
HETATM   16  C   UNL     1     -36.675  41.752 -53.180  1.00  0.00     0.027 C 
HETATM   17  C   UNL     1     -37.565  40.716 -53.864  1.00  0.00     0.004 C 
HETATM   18  C   UNL     1     -38.084  41.213 -55.212  1.00  0.00     0.010 C 
ENDBRANCH   7  13
BRANCH  11  19
HETATM   19  N   UNL     1     -38.938  39.215 -59.754  1.00  0.00    -0.282 NA
HETATM   20  H   UNL     1     -39.507  40.027 -59.978  1.00  0.00     0.126 HD
HETATM   21  H   UNL     1     -38.450  38.834 -60.562  1.00  0.00     0.126 HD
ENDBRANCH  11  19
BRANCH   1  22
HETATM   22  C   UNL     1     -34.187  39.086 -54.999  1.00  0.00    -0.007 A 
HETATM   23  C   UNL     1     -34.097  39.095 -53.600  1.00  0.00     0.014 A 
HETATM   24  C   UNL     1     -32.944  39.564 -52.966  1.00  0.00     0.001 A 
HETATM   25  C   UNL     1     -31.873  40.033 -53.724  1.00  0.00     0.000 A 
HETATM   26  C   UNL     1     -31.953  40.033 -55.115  1.00  0.00     0.001 A 
HETATM   27  C   UNL     1     -33.105  39.563 -55.750  1.00  0.00     0.014 A 
ENDBRANCH   1  22
TORSDOF 3
ENDMDL
