MODEL 1
REMARK VINA RESULT:      -9.6      0.000      0.000
REMARK  7 active torsions:
REMARK  status: ('A' for Active; 'I' for Inactive)
REMARK    1  A    between atoms: C_4  and  C_5 
REMARK    2  A    between atoms: C_5  and  C_6 
REMARK    3  A    between atoms: C_6  and  N_7 
REMARK       I    between atoms: N_7  and  C_8 
REMARK    4  A    between atoms: C_8  and  C_9 
REMARK    5  A    between atoms: C_10  and  N_11 
REMARK    6  A    between atoms: N_12  and  N_13 
REMARK    7  A    between atoms: C_14  and  C_15 
ROOT
HETATM    1  C   UNL     1     -43.352  56.060 -52.552  1.00  0.00     0.104 C 
HETATM    2  C   UNL     1     -43.835  55.866 -53.837  1.00  0.00     0.123 C 
HETATM    3  N   UNL     1     -43.685  57.063 -54.539  1.00  0.00    -0.202 N 
HETATM    4  C   UNL     1     -43.488  58.065 -53.606  1.00  0.00     0.183 A 
HETATM    5  C   UNL     1     -43.201  57.456 -52.386  1.00  0.00     0.124 A 
HETATM    6  N   UNL     1     -42.889  58.186 -51.285  1.00  0.00    -0.242 NA
HETATM    7  C   UNL     1     -42.972  59.519 -51.459  1.00  0.00     0.086 A 
HETATM    8  C   UNL     1     -43.284  60.117 -52.710  1.00  0.00     0.088 A 
HETATM    9  N   UNL     1     -43.507  59.401 -53.821  1.00  0.00    -0.225 NA
HETATM   10  C   UNL     1     -42.763  60.347 -50.361  1.00  0.00     0.034 A 
HETATM   11  C   UNL     1     -42.871  61.736 -50.457  1.00  0.00     0.002 A 
HETATM   12  C   UNL     1     -43.183  62.315 -51.679  1.00  0.00     0.002 A 
HETATM   13  C   UNL     1     -43.381  61.500 -52.793  1.00  0.00     0.034 A 
ENDROOT
BRANCH   1  14
HETATM   14  C   UNL     1     -43.159  54.978 -51.614  1.00  0.00     0.257 C 
HETATM   15  N   UNL     1     -42.078  55.161 -50.765  1.00  0.00    -0.356 N 
HETATM   16  H   UNL     1     -41.550  56.014 -50.904  1.00  0.00     0.162 HD
HETATM   17  O   UNL     1     -43.765  53.916 -51.717  1.00  0.00    -0.267 OA
BRANCH  15  18
HETATM   18  C   UNL     1     -41.338  53.975 -50.376  1.00  0.00     0.127 C 
BRANCH  18  19
HETATM   19  C   UNL     1     -39.993  53.823 -51.087  1.00  0.00     0.058 C 
BRANCH  19  20
HETATM   20  C   UNL     1     -40.085  52.793 -52.191  1.00  0.00    -0.057 A 
HETATM   21  C   UNL     1     -39.587  51.496 -52.002  1.00  0.00     0.007 A 
HETATM   22  C   UNL     1     -39.617  50.568 -53.044  1.00  0.00     0.001 A 
HETATM   23  C   UNL     1     -40.141  50.925 -54.285  1.00  0.00     0.000 A 
HETATM   24  C   UNL     1     -40.645  52.209 -54.482  1.00  0.00     0.001 A 
HETATM   25  C   UNL     1     -40.621  53.138 -53.440  1.00  0.00     0.007 A 
ENDBRANCH  19  20
ENDBRANCH  18  19
ENDBRANCH  15  18
ENDBRANCH   1  14
BRANCH   2  26
HETATM   26  N   UNL     1     -44.348  54.732 -54.401  1.00  0.00    -0.286 NA
HETATM   27  H   UNL     1     -43.760  53.893 -54.340  1.00  0.00     0.125 HD
HETATM   28  H   UNL     1     -45.315  54.491 -54.174  1.00  0.00     0.125 HD
ENDBRANCH   2  26
BRANCH   3  29
HETATM   29  N   UNL     1     -43.746  57.267 -55.897  1.00  0.00    -0.176 NA
HETATM   30  C   UNL     1     -42.596  57.227 -56.486  1.00  0.00     0.153 C 
BRANCH  30  31
HETATM   31  C   UNL     1     -42.498  57.387 -57.918  1.00  0.00     0.011 A 
HETATM   32  C   UNL     1     -42.224  58.605 -58.616  1.00  0.00     0.004 A 
HETATM   33  C   UNL     1     -42.265  58.322 -59.980  1.00  0.00     0.043 A 
HETATM   34  C   UNL     1     -41.927  59.924 -58.210  1.00  0.00     0.014 A 
HETATM   35  C   UNL     1     -42.040  59.294 -60.961  1.00  0.00     0.030 A 
HETATM   36  N   UNL     1     -42.548  56.980 -60.106  1.00  0.00    -0.364 N 
HETATM   37  C   UNL     1     -41.745  60.592 -60.532  1.00  0.00     0.002 A 
HETATM   38  C   UNL     1     -41.685  60.905 -59.177  1.00  0.00     0.001 A 
HETATM   39  H   UNL     1     -42.646  56.494 -60.987  1.00  0.00     0.165 HD
HETATM   40  C   UNL     1     -42.669  56.403 -58.871  1.00  0.00     0.102 A 
ENDBRANCH  30  31
ENDBRANCH   3  29
TORSDOF 7
ENDMDL
MODEL 2
REMARK VINA RESULT:      -9.4      2.058      7.745
REMARK  7 active torsions:
REMARK  status: ('A' for Active; 'I' for Inactive)
REMARK    1  A    between atoms: C_4  and  C_5 
REMARK    2  A    between atoms: C_5  and  C_6 
REMARK    3  A    between atoms: C_6  and  N_7 
REMARK       I    between atoms: N_7  and  C_8 
REMARK    4  A    between atoms: C_8  and  C_9 
REMARK    5  A    between atoms: C_10  and  N_11 
REMARK    6  A    between atoms: N_12  and  N_13 
REMARK    7  A    between atoms: C_14  and  C_15 
ROOT
HETATM    1  C   UNL     1     -44.493  58.031 -53.969  1.00  0.00     0.104 C 
HETATM    2  C   UNL     1     -44.353  56.944 -53.122  1.00  0.00     0.123 C 
HETATM    3  N   UNL     1     -43.584  55.981 -53.779  1.00  0.00    -0.202 N 
HETATM    4  C   UNL     1     -43.588  56.302 -55.125  1.00  0.00     0.183 A 
HETATM    5  C   UNL     1     -44.074  57.601 -55.249  1.00  0.00     0.124 A 
HETATM    6  N   UNL     1     -44.131  58.225 -56.454  1.00  0.00    -0.242 NA
HETATM    7  C   UNL     1     -43.769  57.455 -57.498  1.00  0.00     0.086 A 
HETATM    8  C   UNL     1     -43.293  56.124 -57.347  1.00  0.00     0.088 A 
HETATM    9  N   UNL     1     -43.151  55.535 -56.151  1.00  0.00    -0.225 NA
HETATM   10  C   UNL     1     -43.886  57.977 -58.781  1.00  0.00     0.034 A 
HETATM   11  C   UNL     1     -43.566  57.223 -59.913  1.00  0.00     0.002 A 
HETATM   12  C   UNL     1     -43.108  55.922 -59.762  1.00  0.00     0.002 A 
HETATM   13  C   UNL     1     -42.971  55.389 -58.480  1.00  0.00     0.034 A 
ENDROOT
BRANCH   1  14
HETATM   14  C   UNL     1     -45.052  59.293 -53.541  1.00  0.00     0.257 C 
HETATM   15  N   UNL     1     -44.631  60.376 -54.298  1.00  0.00    -0.356 N 
HETATM   16  H   UNL     1     -43.983  60.164 -55.046  1.00  0.00     0.162 HD
HETATM   17  O   UNL     1     -45.661  59.406 -52.482  1.00  0.00    -0.267 OA
BRANCH  15  18
HETATM   18  C   UNL     1     -44.455  61.638 -53.602  1.00  0.00     0.127 C 
BRANCH  18  19
HETATM   19  C   UNL     1     -42.997  61.978 -53.295  1.00  0.00     0.058 C 
BRANCH  19  20
HETATM   20  C   UNL     1     -42.271  60.773 -52.739  1.00  0.00    -0.057 A 
HETATM   21  C   UNL     1     -41.512  59.946 -53.579  1.00  0.00     0.007 A 
HETATM   22  C   UNL     1     -40.896  58.799 -53.074  1.00  0.00     0.001 A 
HETATM   23  C   UNL     1     -41.033  58.466 -51.728  1.00  0.00     0.000 A 
HETATM   24  C   UNL     1     -41.780  59.284 -50.883  1.00  0.00     0.001 A 
HETATM   25  C   UNL     1     -42.393  60.434 -51.385  1.00  0.00     0.007 A 
ENDBRANCH  19  20
ENDBRANCH  18  19
ENDBRANCH  15  18
ENDBRANCH   1  14
BRANCH   2  26
HETATM   26  N   UNL     1     -44.822  56.778 -51.849  1.00  0.00    -0.286 NA
HETATM   27  H   UNL     1     -45.351  55.916 -51.673  1.00  0.00     0.125 HD
HETATM   28  H   UNL     1     -44.167  56.942 -51.083  1.00  0.00     0.125 HD
ENDBRANCH   2  26
BRANCH   3  29
HETATM   29  N   UNL     1     -42.948  54.887 -53.242  1.00  0.00    -0.176 NA
HETATM   30  C   UNL     1     -41.736  55.120 -52.860  1.00  0.00     0.153 C 
BRANCH  30  31
HETATM   31  C   UNL     1     -40.949  54.078 -52.241  1.00  0.00     0.011 A 
HETATM   32  C   UNL     1     -40.583  52.829 -52.835  1.00  0.00     0.004 A 
HETATM   33  C   UNL     1     -39.866  52.108 -51.881  1.00  0.00     0.043 A 
HETATM   34  C   UNL     1     -40.783  52.250 -54.107  1.00  0.00     0.014 A 
HETATM   35  C   UNL     1     -39.353  50.830 -52.129  1.00  0.00     0.030 A 
HETATM   36  N   UNL     1     -39.795  52.893 -50.751  1.00  0.00    -0.364 N 
HETATM   37  C   UNL     1     -39.562  50.282 -53.398  1.00  0.00     0.002 A 
HETATM   38  C   UNL     1     -40.263  50.981 -54.376  1.00  0.00     0.001 A 
HETATM   39  H   UNL     1     -39.338  52.621 -49.893  1.00  0.00     0.165 HD
HETATM   40  C   UNL     1     -40.425  54.089 -50.965  1.00  0.00     0.102 A 
ENDBRANCH  30  31
ENDBRANCH   3  29
TORSDOF 7
ENDMDL
MODEL 3
REMARK VINA RESULT:      -9.4      1.900      6.623
REMARK  7 active torsions:
REMARK  status: ('A' for Active; 'I' for Inactive)
REMARK    1  A    between atoms: C_4  and  C_5 
REMARK    2  A    between atoms: C_5  and  C_6 
REMARK    3  A    between atoms: C_6  and  N_7 
REMARK       I    between atoms: N_7  and  C_8 
REMARK    4  A    between atoms: C_8  and  C_9 
REMARK    5  A    between atoms: C_10  and  N_11 
REMARK    6  A    between atoms: N_12  and  N_13 
REMARK    7  A    between atoms: C_14  and  C_15 
ROOT
HETATM    1  C   UNL     1     -42.334  56.029 -51.850  1.00  0.00     0.104 C 
HETATM    2  C   UNL     1     -41.953  57.220 -51.252  1.00  0.00     0.123 C 
HETATM    3  N   UNL     1     -42.221  58.256 -52.148  1.00  0.00    -0.202 N 
HETATM    4  C   UNL     1     -42.389  57.687 -53.397  1.00  0.00     0.183 A 
HETATM    5  C   UNL     1     -42.540  56.313 -53.219  1.00  0.00     0.124 A 
HETATM    6  N   UNL     1     -42.794  55.486 -54.265  1.00  0.00    -0.242 NA
HETATM    7  C   UNL     1     -42.793  56.093 -55.468  1.00  0.00     0.086 A 
HETATM    8  C   UNL     1     -42.618  57.494 -55.625  1.00  0.00     0.088 A 
HETATM    9  N   UNL     1     -42.455  58.327 -54.587  1.00  0.00    -0.225 NA
HETATM   10  C   UNL     1     -42.949  55.311 -56.607  1.00  0.00     0.034 A 
HETATM   11  C   UNL     1     -42.919  55.866 -57.889  1.00  0.00     0.002 A 
HETATM   12  C   UNL     1     -42.741  57.233 -58.038  1.00  0.00     0.002 A 
HETATM   13  C   UNL     1     -42.599  58.034 -56.905  1.00  0.00     0.034 A 
ENDROOT
BRANCH   1  14
HETATM   14  C   UNL     1     -42.392  54.775 -51.134  1.00  0.00     0.257 C 
HETATM   15  N   UNL     1     -41.292  54.545 -50.320  1.00  0.00    -0.356 N 
HETATM   16  H   UNL     1     -40.582  55.266 -50.328  1.00  0.00     0.162 HD
HETATM   17  O   UNL     1     -43.228  53.916 -51.397  1.00  0.00    -0.267 OA
BRANCH  15  18
HETATM   18  C   UNL     1     -40.845  53.171 -50.188  1.00  0.00     0.127 C 
BRANCH  18  19
HETATM   19  C   UNL     1     -39.539  52.871 -50.924  1.00  0.00     0.058 C 
BRANCH  19  20
HETATM   20  C   UNL     1     -39.783  51.936 -52.088  1.00  0.00    -0.057 A 
HETATM   21  C   UNL     1     -39.506  50.566 -51.974  1.00  0.00     0.007 A 
HETATM   22  C   UNL     1     -39.673  49.717 -53.070  1.00  0.00     0.001 A 
HETATM   23  C   UNL     1     -40.115  50.227 -54.289  1.00  0.00     0.000 A 
HETATM   24  C   UNL     1     -40.399  51.586 -54.412  1.00  0.00     0.001 A 
HETATM   25  C   UNL     1     -40.238  52.436 -53.317  1.00  0.00     0.007 A 
ENDBRANCH  19  20
ENDBRANCH  18  19
ENDBRANCH  15  18
ENDBRANCH   1  14
BRANCH   2  26
HETATM   26  N   UNL     1     -41.433  57.429 -50.006  1.00  0.00    -0.286 NA
HETATM   27  H   UNL     1     -40.710  58.154 -49.935  1.00  0.00     0.125 HD
HETATM   28  H   UNL     1     -42.095  57.527 -49.232  1.00  0.00     0.125 HD
ENDBRANCH   2  26
BRANCH   3  29
HETATM   29  N   UNL     1     -42.287  59.605 -51.893  1.00  0.00    -0.176 NA
HETATM   30  C   UNL     1     -43.340  59.965 -51.235  1.00  0.00     0.153 C 
BRANCH  30  31
HETATM   31  C   UNL     1     -43.534  61.347 -50.859  1.00  0.00     0.011 A 
HETATM   32  C   UNL     1     -44.074  61.818 -49.621  1.00  0.00     0.004 A 
HETATM   33  C   UNL     1     -44.128  63.209 -49.693  1.00  0.00     0.043 A 
HETATM   34  C   UNL     1     -44.508  61.187 -48.435  1.00  0.00     0.014 A 
HETATM   35  C   UNL     1     -44.609  64.001 -48.645  1.00  0.00     0.030 A 
HETATM   36  N   UNL     1     -43.634  63.569 -50.928  1.00  0.00    -0.364 N 
HETATM   37  C   UNL     1     -45.030  63.352 -47.481  1.00  0.00     0.002 A 
HETATM   38  C   UNL     1     -44.978  61.965 -47.373  1.00  0.00     0.001 A 
HETATM   39  H   UNL     1     -43.560  64.520 -51.261  1.00  0.00     0.165 HD
HETATM   40  C   UNL     1     -43.254  62.457 -51.629  1.00  0.00     0.102 A 
ENDBRANCH  30  31
ENDBRANCH   3  29
TORSDOF 7
ENDMDL
MODEL 4
REMARK VINA RESULT:      -9.4      2.133      7.653
REMARK  7 active torsions:
REMARK  status: ('A' for Active; 'I' for Inactive)
REMARK    1  A    between atoms: C_4  and  C_5 
REMARK    2  A    between atoms: C_5  and  C_6 
REMARK    3  A    between atoms: C_6  and  N_7 
REMARK       I    between atoms: N_7  and  C_8 
REMARK    4  A    between atoms: C_8  and  C_9 
REMARK    5  A    between atoms: C_10  and  N_11 
REMARK    6  A    between atoms: N_12  and  N_13 
REMARK    7  A    between atoms: C_14  and  C_15 
ROOT
HETATM    1  C   UNL     1     -42.797  57.432 -55.563  1.00  0.00     0.104 C 
HETATM    2  C   UNL     1     -42.232  56.213 -55.222  1.00  0.00     0.123 C 
HETATM    3  N   UNL     1     -42.220  56.119 -53.829  1.00  0.00    -0.202 N 
HETATM    4  C   UNL     1     -42.404  57.395 -53.329  1.00  0.00     0.183 A 
HETATM    5  C   UNL     1     -42.839  58.202 -54.378  1.00  0.00     0.124 A 
HETATM    6  N   UNL     1     -43.174  59.503 -54.181  1.00  0.00    -0.242 NA
HETATM    7  C   UNL     1     -42.962  59.949 -52.928  1.00  0.00     0.086 A 
HETATM    8  C   UNL     1     -42.499  59.110 -51.878  1.00  0.00     0.088 A 
HETATM    9  N   UNL     1     -42.251  57.803 -52.048  1.00  0.00    -0.225 NA
HETATM   10  C   UNL     1     -43.185  61.294 -52.654  1.00  0.00     0.034 A 
HETATM   11  C   UNL     1     -42.949  61.835 -51.388  1.00  0.00     0.002 A 
HETATM   12  C   UNL     1     -42.490  61.014 -50.368  1.00  0.00     0.002 A 
HETATM   13  C   UNL     1     -42.276  59.660 -50.622  1.00  0.00     0.034 A 
ENDROOT
BRANCH   1  14
HETATM   14  C   UNL     1     -43.158  57.777 -56.919  1.00  0.00     0.257 C 
HETATM   15  N   UNL     1     -42.200  57.424 -57.858  1.00  0.00    -0.356 N 
HETATM   16  H   UNL     1     -41.368  56.981 -57.492  1.00  0.00     0.162 HD
HETATM   17  O   UNL     1     -44.115  58.502 -57.170  1.00  0.00    -0.267 OA
BRANCH  15  18
HETATM   18  C   UNL     1     -42.038  58.308 -58.998  1.00  0.00     0.127 C 
BRANCH  18  19
HETATM   19  C   UNL     1     -42.375  57.658 -60.339  1.00  0.00     0.058 C 
BRANCH  19  20
HETATM   20  C   UNL     1     -43.752  57.033 -60.300  1.00  0.00    -0.057 A 
HETATM   21  C   UNL     1     -43.904  55.639 -60.289  1.00  0.00     0.007 A 
HETATM   22  C   UNL     1     -45.177  55.066 -60.317  1.00  0.00     0.001 A 
HETATM   23  C   UNL     1     -46.309  55.877 -60.358  1.00  0.00     0.000 A 
HETATM   24  C   UNL     1     -46.170  57.264 -60.363  1.00  0.00     0.001 A 
HETATM   25  C   UNL     1     -44.899  57.839 -60.330  1.00  0.00     0.007 A 
ENDBRANCH  19  20
ENDBRANCH  18  19
ENDBRANCH  15  18
ENDBRANCH   1  14
BRANCH   2  26
HETATM   26  N   UNL     1     -41.776  55.217 -56.039  1.00  0.00    -0.286 NA
HETATM   27  H   UNL     1     -42.356  54.371 -56.085  1.00  0.00     0.125 HD
HETATM   28  H   UNL     1     -41.478  55.482 -56.980  1.00  0.00     0.125 HD
ENDBRANCH   2  26
BRANCH   3  29
HETATM   29  N   UNL     1     -42.034  54.999 -53.053  1.00  0.00    -0.176 NA
HETATM   30  C   UNL     1     -40.800  54.625 -52.959  1.00  0.00     0.153 C 
BRANCH  30  31
HETATM   31  C   UNL     1     -40.438  53.485 -52.148  1.00  0.00     0.011 A 
HETATM   32  C   UNL     1     -40.146  52.168 -52.624  1.00  0.00     0.004 A 
HETATM   33  C   UNL     1     -39.892  51.370 -51.509  1.00  0.00     0.043 A 
HETATM   34  C   UNL     1     -40.058  51.584 -53.906  1.00  0.00     0.014 A 
HETATM   35  C   UNL     1     -39.570  50.012 -51.611  1.00  0.00     0.030 A 
HETATM   36  N   UNL     1     -40.020  52.174 -50.399  1.00  0.00    -0.364 N 
HETATM   37  C   UNL     1     -39.485  49.459 -52.893  1.00  0.00     0.002 A 
HETATM   38  C   UNL     1     -39.722  50.232 -54.026  1.00  0.00     0.001 A 
HETATM   39  H   UNL     1     -39.898  51.860 -49.446  1.00  0.00     0.165 HD
HETATM   40  C   UNL     1     -40.328  53.454 -50.773  1.00  0.00     0.102 A 
ENDBRANCH  30  31
ENDBRANCH   3  29
TORSDOF 7
ENDMDL
MODEL 5
REMARK VINA RESULT:      -9.3      2.164      8.245
REMARK  7 active torsions:
REMARK  status: ('A' for Active; 'I' for Inactive)
REMARK    1  A    between atoms: C_4  and  C_5 
REMARK    2  A    between atoms: C_5  and  C_6 
REMARK    3  A    between atoms: C_6  and  N_7 
REMARK       I    between atoms: N_7  and  C_8 
REMARK    4  A    between atoms: C_8  and  C_9 
REMARK    5  A    between atoms: C_10  and  N_11 
REMARK    6  A    between atoms: N_12  and  N_13 
REMARK    7  A    between atoms: C_14  and  C_15 
ROOT
HETATM    1  C   UNL     1     -43.534  57.088 -56.050  1.00  0.00     0.104 C 
HETATM    2  C   UNL     1     -42.665  56.066 -55.701  1.00  0.00     0.123 C 
HETATM    3  N   UNL     1     -42.901  55.738 -54.365  1.00  0.00    -0.202 N 
HETATM    4  C   UNL     1     -43.609  56.785 -53.803  1.00  0.00     0.183 A 
HETATM    5  C   UNL     1     -44.075  57.586 -54.843  1.00  0.00     0.124 A 
HETATM    6  N   UNL     1     -44.869  58.662 -54.608  1.00  0.00    -0.242 NA
HETATM    7  C   UNL     1     -45.079  58.926 -53.304  1.00  0.00     0.086 A 
HETATM    8  C   UNL     1     -44.576  58.103 -52.260  1.00  0.00     0.088 A 
HETATM    9  N   UNL     1     -43.866  56.989 -52.490  1.00  0.00    -0.225 NA
HETATM   10  C   UNL     1     -45.801  60.064 -52.963  1.00  0.00     0.034 A 
HETATM   11  C   UNL     1     -46.024  60.422 -51.631  1.00  0.00     0.002 A 
HETATM   12  C   UNL     1     -45.526  59.619 -50.615  1.00  0.00     0.002 A 
HETATM   13  C   UNL     1     -44.813  58.466 -50.940  1.00  0.00     0.034 A 
ENDROOT
BRANCH   1  14
HETATM   14  C   UNL     1     -43.712  57.535 -57.413  1.00  0.00     0.257 C 
HETATM   15  N   UNL     1     -42.550  58.013 -58.000  1.00  0.00    -0.356 N 
HETATM   16  H   UNL     1     -41.725  58.003 -57.413  1.00  0.00     0.162 HD
HETATM   17  O   UNL     1     -44.825  57.674 -57.909  1.00  0.00    -0.267 OA
BRANCH  15  18
HETATM   18  C   UNL     1     -42.688  59.114 -58.935  1.00  0.00     0.127 C 
BRANCH  18  19
HETATM   19  C   UNL     1     -42.452  60.490 -58.312  1.00  0.00     0.058 C 
BRANCH  19  20
HETATM   20  C   UNL     1     -41.515  61.311 -59.168  1.00  0.00    -0.057 A 
HETATM   21  C   UNL     1     -40.495  62.074 -58.581  1.00  0.00     0.007 A 
HETATM   22  C   UNL     1     -39.671  62.881 -59.369  1.00  0.00     0.001 A 
HETATM   23  C   UNL     1     -39.859  62.935 -60.749  1.00  0.00     0.000 A 
HETATM   24  C   UNL     1     -40.865  62.176 -61.344  1.00  0.00     0.001 A 
HETATM   25  C   UNL     1     -41.686  61.365 -60.558  1.00  0.00     0.007 A 
ENDBRANCH  19  20
ENDBRANCH  18  19
ENDBRANCH  15  18
ENDBRANCH   1  14
BRANCH   2  26
HETATM   26  N   UNL     1     -41.741  55.421 -56.474  1.00  0.00    -0.286 NA
HETATM   27  H   UNL     1     -42.065  55.105 -57.395  1.00  0.00     0.125 HD
HETATM   28  H   UNL     1     -40.820  55.855 -56.564  1.00  0.00     0.125 HD
ENDBRANCH   2  26
BRANCH   3  29
HETATM   29  N   UNL     1     -42.501  54.615 -53.681  1.00  0.00    -0.176 NA
HETATM   30  C   UNL     1     -41.295  54.683 -53.219  1.00  0.00     0.153 C 
BRANCH  30  31
HETATM   31  C   UNL     1     -40.743  53.595 -52.446  1.00  0.00     0.011 A 
HETATM   32  C   UNL     1     -40.385  52.301 -52.942  1.00  0.00     0.004 A 
HETATM   33  C   UNL     1     -39.937  51.549 -51.857  1.00  0.00     0.043 A 
HETATM   34  C   UNL     1     -40.388  51.705 -54.222  1.00  0.00     0.014 A 
HETATM   35  C   UNL     1     -39.505  50.224 -51.985  1.00  0.00     0.030 A 
HETATM   36  N   UNL     1     -40.014  52.358 -50.745  1.00  0.00    -0.364 N 
HETATM   37  C   UNL     1     -39.514  49.659 -53.264  1.00  0.00     0.002 A 
HETATM   38  C   UNL     1     -39.945  50.388 -54.369  1.00  0.00     0.001 A 
HETATM   39  H   UNL     1     -39.758  52.073 -49.810  1.00  0.00     0.165 HD
HETATM   40  C   UNL     1     -40.477  53.598 -51.092  1.00  0.00     0.102 A 
ENDBRANCH  30  31
ENDBRANCH   3  29
TORSDOF 7
ENDMDL
MODEL 6
REMARK VINA RESULT:      -9.2      2.565      8.694
REMARK  7 active torsions:
REMARK  status: ('A' for Active; 'I' for Inactive)
REMARK    1  A    between atoms: C_4  and  C_5 
REMARK    2  A    between atoms: C_5  and  C_6 
REMARK    3  A    between atoms: C_6  and  N_7 
REMARK       I    between atoms: N_7  and  C_8 
REMARK    4  A    between atoms: C_8  and  C_9 
REMARK    5  A    between atoms: C_10  and  N_11 
REMARK    6  A    between atoms: N_12  and  N_13 
REMARK    7  A    between atoms: C_14  and  C_15 
ROOT
HETATM    1  C   UNL     1     -44.323  58.254 -53.289  1.00  0.00     0.104 C 
HETATM    2  C   UNL     1     -44.244  57.117 -52.501  1.00  0.00     0.123 C 
HETATM    3  N   UNL     1     -43.525  56.151 -53.210  1.00  0.00    -0.202 N 
HETATM    4  C   UNL     1     -43.508  56.543 -54.536  1.00  0.00     0.183 A 
HETATM    5  C   UNL     1     -43.925  57.871 -54.590  1.00  0.00     0.124 A 
HETATM    6  N   UNL     1     -43.945  58.561 -55.760  1.00  0.00    -0.242 NA
HETATM    7  C   UNL     1     -43.622  57.830 -56.844  1.00  0.00     0.086 A 
HETATM    8  C   UNL     1     -43.218  56.470 -56.764  1.00  0.00     0.088 A 
HETATM    9  N   UNL     1     -43.111  55.810 -55.602  1.00  0.00    -0.225 NA
HETATM   10  C   UNL     1     -43.707  58.425 -58.097  1.00  0.00     0.034 A 
HETATM   11  C   UNL     1     -43.425  57.717 -59.268  1.00  0.00     0.002 A 
HETATM   12  C   UNL     1     -43.038  56.388 -59.187  1.00  0.00     0.002 A 
HETATM   13  C   UNL     1     -42.932  55.780 -57.936  1.00  0.00     0.034 A 
ENDROOT
BRANCH   1  14
HETATM   14  C   UNL     1     -44.815  59.519 -52.793  1.00  0.00     0.257 C 
HETATM   15  N   UNL     1     -44.144  59.978 -51.669  1.00  0.00    -0.356 N 
HETATM   16  H   UNL     1     -43.404  59.379 -51.325  1.00  0.00     0.162 HD
HETATM   17  O   UNL     1     -45.859  60.014 -53.204  1.00  0.00    -0.267 OA
BRANCH  15  18
HETATM   18  C   UNL     1     -44.925  60.704 -50.686  1.00  0.00     0.127 C 
BRANCH  18  19
HETATM   19  C   UNL     1     -44.137  61.097 -49.436  1.00  0.00     0.058 C 
BRANCH  19  20
HETATM   20  C   UNL     1     -45.073  61.457 -48.304  1.00  0.00    -0.057 A 
HETATM   21  C   UNL     1     -46.266  62.149 -48.556  1.00  0.00     0.007 A 
HETATM   22  C   UNL     1     -47.097  62.534 -47.502  1.00  0.00     0.001 A 
HETATM   23  C   UNL     1     -46.745  62.234 -46.187  1.00  0.00     0.000 A 
HETATM   24  C   UNL     1     -45.564  61.541 -45.926  1.00  0.00     0.001 A 
HETATM   25  C   UNL     1     -44.735  61.151 -46.978  1.00  0.00     0.007 A 
ENDBRANCH  19  20
ENDBRANCH  18  19
ENDBRANCH  15  18
ENDBRANCH   1  14
BRANCH   2  26
HETATM   26  N   UNL     1     -44.724  56.908 -51.239  1.00  0.00    -0.286 NA
HETATM   27  H   UNL     1     -44.558  57.663 -50.564  1.00  0.00     0.125 HD
HETATM   28  H   UNL     1     -45.686  56.575 -51.153  1.00  0.00     0.125 HD
ENDBRANCH   2  26
BRANCH   3  29
HETATM   29  N   UNL     1     -42.950  54.998 -52.732  1.00  0.00    -0.176 NA
HETATM   30  C   UNL     1     -41.688  55.107 -52.475  1.00  0.00     0.153 C 
BRANCH  30  31
HETATM   31  C   UNL     1     -40.950  53.990 -51.932  1.00  0.00     0.011 A 
HETATM   32  C   UNL     1     -40.584  52.798 -52.633  1.00  0.00     0.004 A 
HETATM   33  C   UNL     1     -39.924  51.969 -51.727  1.00  0.00     0.043 A 
HETATM   34  C   UNL     1     -40.741  52.354 -53.964  1.00  0.00     0.014 A 
HETATM   35  C   UNL     1     -39.426  50.710 -52.080  1.00  0.00     0.030 A 
HETATM   36  N   UNL     1     -39.886  52.635 -50.522  1.00  0.00    -0.364 N 
HETATM   37  C   UNL     1     -39.591  50.295 -53.406  1.00  0.00     0.002 A 
HETATM   38  C   UNL     1     -40.235  51.105 -54.337  1.00  0.00     0.001 A 
HETATM   39  H   UNL     1     -39.472  52.269 -49.677  1.00  0.00     0.165 HD
HETATM   40  C   UNL     1     -40.482  53.862 -50.641  1.00  0.00     0.102 A 
ENDBRANCH  30  31
ENDBRANCH   3  29
TORSDOF 7
ENDMDL
MODEL 7
REMARK VINA RESULT:      -9.0      2.330      8.431
REMARK  7 active torsions:
REMARK  status: ('A' for Active; 'I' for Inactive)
REMARK    1  A    between atoms: C_4  and  C_5 
REMARK    2  A    between atoms: C_5  and  C_6 
REMARK    3  A    between atoms: C_6  and  N_7 
REMARK       I    between atoms: N_7  and  C_8 
REMARK    4  A    between atoms: C_8  and  C_9 
REMARK    5  A    between atoms: C_10  and  N_11 
REMARK    6  A    between atoms: N_12  and  N_13 
REMARK    7  A    between atoms: C_14  and  C_15 
ROOT
HETATM    1  C   UNL     1     -44.546  58.294 -54.236  1.00  0.00     0.104 C 
HETATM    2  C   UNL     1     -44.421  57.242 -53.342  1.00  0.00     0.123 C 
HETATM    3  N   UNL     1     -43.650  56.250 -53.950  1.00  0.00    -0.202 N 
HETATM    4  C   UNL     1     -43.637  56.513 -55.308  1.00  0.00     0.183 A 
HETATM    5  C   UNL     1     -44.116  57.808 -55.492  1.00  0.00     0.124 A 
HETATM    6  N   UNL     1     -44.157  58.380 -56.722  1.00  0.00    -0.242 NA
HETATM    7  C   UNL     1     -43.787  57.565 -57.729  1.00  0.00     0.086 A 
HETATM    8  C   UNL     1     -43.320  56.240 -57.517  1.00  0.00     0.088 A 
HETATM    9  N   UNL     1     -43.194  55.701 -56.296  1.00  0.00    -0.225 NA
HETATM   10  C   UNL     1     -43.888  58.033 -59.035  1.00  0.00     0.034 A 
HETATM   11  C   UNL     1     -43.560  57.230 -60.130  1.00  0.00     0.002 A 
HETATM   12  C   UNL     1     -43.110  55.935 -59.919  1.00  0.00     0.002 A 
HETATM   13  C   UNL     1     -42.989  55.456 -58.615  1.00  0.00     0.034 A 
ENDROOT
BRANCH   1  14
HETATM   14  C   UNL     1     -45.103  59.575 -53.867  1.00  0.00     0.257 C 
HETATM   15  N   UNL     1     -45.580  60.307 -54.944  1.00  0.00    -0.356 N 
HETATM   16  H   UNL     1     -45.477  59.871 -55.852  1.00  0.00     0.162 HD
HETATM   17  O   UNL     1     -44.962  60.044 -52.742  1.00  0.00    -0.267 OA
BRANCH  15  18
HETATM   18  C   UNL     1     -45.435  61.749 -54.878  1.00  0.00     0.127 C 
BRANCH  18  19
HETATM   19  C   UNL     1     -43.991  62.233 -55.017  1.00  0.00     0.058 C 
BRANCH  19  20
HETATM   20  C   UNL     1     -43.462  61.946 -56.405  1.00  0.00    -0.057 A 
HETATM   21  C   UNL     1     -44.195  62.320 -57.540  1.00  0.00     0.007 A 
HETATM   22  C   UNL     1     -43.733  61.997 -58.818  1.00  0.00     0.001 A 
HETATM   23  C   UNL     1     -42.539  61.297 -58.975  1.00  0.00     0.000 A 
HETATM   24  C   UNL     1     -41.799  60.926 -57.853  1.00  0.00     0.001 A 
HETATM   25  C   UNL     1     -42.256  61.252 -56.575  1.00  0.00     0.007 A 
ENDBRANCH  19  20
ENDBRANCH  18  19
ENDBRANCH  15  18
ENDBRANCH   1  14
BRANCH   2  26
HETATM   26  N   UNL     1     -44.904  57.133 -52.069  1.00  0.00    -0.286 NA
HETATM   27  H   UNL     1     -44.201  57.083 -51.323  1.00  0.00     0.125 HD
HETATM   28  H   UNL     1     -45.652  57.774 -51.795  1.00  0.00     0.125 HD
ENDBRANCH   2  26
BRANCH   3  29
HETATM   29  N   UNL     1     -43.026  55.176 -53.360  1.00  0.00    -0.176 NA
HETATM   30  C   UNL     1     -41.811  55.414 -52.989  1.00  0.00     0.153 C 
BRANCH  30  31
HETATM   31  C   UNL     1     -41.035  54.395 -52.321  1.00  0.00     0.011 A 
HETATM   32  C   UNL     1     -40.649  53.130 -52.868  1.00  0.00     0.004 A 
HETATM   33  C   UNL     1     -39.953  52.443 -51.875  1.00  0.00     0.043 A 
HETATM   34  C   UNL     1     -40.815  52.513 -54.127  1.00  0.00     0.014 A 
HETATM   35  C   UNL     1     -39.428  51.161 -52.072  1.00  0.00     0.030 A 
HETATM   36  N   UNL     1     -39.913  53.261 -50.768  1.00  0.00    -0.364 N 
HETATM   37  C   UNL     1     -39.603  50.573 -53.329  1.00  0.00     0.002 A 
HETATM   38  C   UNL     1     -40.284  51.239 -54.344  1.00  0.00     0.001 A 
HETATM   39  H   UNL     1     -39.475  53.018 -49.891  1.00  0.00     0.165 HD
HETATM   40  C   UNL     1     -40.542  54.447 -51.033  1.00  0.00     0.102 A 
ENDBRANCH  30  31
ENDBRANCH   3  29
TORSDOF 7
ENDMDL
MODEL 8
REMARK VINA RESULT:      -9.0      2.592      7.331
REMARK  7 active torsions:
REMARK  status: ('A' for Active; 'I' for Inactive)
REMARK    1  A    between atoms: C_4  and  C_5 
REMARK    2  A    between atoms: C_5  and  C_6 
REMARK    3  A    between atoms: C_6  and  N_7 
REMARK       I    between atoms: N_7  and  C_8 
REMARK    4  A    between atoms: C_8  and  C_9 
REMARK    5  A    between atoms: C_10  and  N_11 
REMARK    6  A    between atoms: N_12  and  N_13 
REMARK    7  A    between atoms: C_14  and  C_15 
ROOT
HETATM    1  C   UNL     1     -41.867  57.747 -52.189  1.00  0.00     0.104 C 
HETATM    2  C   UNL     1     -41.741  58.714 -51.205  1.00  0.00     0.123 C 
HETATM    3  N   UNL     1     -42.210  59.922 -51.726  1.00  0.00    -0.202 N 
HETATM    4  C   UNL     1     -42.251  59.787 -53.102  1.00  0.00     0.183 A 
HETATM    5  C   UNL     1     -42.120  58.433 -53.398  1.00  0.00     0.124 A 
HETATM    6  N   UNL     1     -42.194  57.976 -54.675  1.00  0.00    -0.242 NA
HETATM    7  C   UNL     1     -42.310  58.942 -55.606  1.00  0.00     0.086 A 
HETATM    8  C   UNL     1     -42.424  60.320 -55.279  1.00  0.00     0.088 A 
HETATM    9  N   UNL     1     -42.440  60.767 -54.015  1.00  0.00    -0.225 NA
HETATM   10  C   UNL     1     -42.297  58.576 -56.948  1.00  0.00     0.034 A 
HETATM   11  C   UNL     1     -42.374  59.527 -57.969  1.00  0.00     0.002 A 
HETATM   12  C   UNL     1     -42.478  60.872 -57.645  1.00  0.00     0.002 A 
HETATM   13  C   UNL     1     -42.508  61.253 -56.305  1.00  0.00     0.034 A 
ENDROOT
BRANCH   1  14
HETATM   14  C   UNL     1     -41.672  56.338 -51.933  1.00  0.00     0.257 C 
HETATM   15  N   UNL     1     -41.081  55.656 -52.986  1.00  0.00    -0.356 N 
HETATM   16  H   UNL     1     -40.866  56.212 -53.804  1.00  0.00     0.162 HD
HETATM   17  O   UNL     1     -42.181  55.778 -50.967  1.00  0.00    -0.267 OA
BRANCH  15  18
HETATM   18  C   UNL     1     -41.506  54.286 -53.205  1.00  0.00     0.127 C 
BRANCH  18  19
HETATM   19  C   UNL     1     -40.617  53.509 -54.176  1.00  0.00     0.058 C 
BRANCH  19  20
HETATM   20  C   UNL     1     -40.193  52.187 -53.574  1.00  0.00    -0.057 A 
HETATM   21  C   UNL     1     -40.153  51.026 -54.358  1.00  0.00     0.007 A 
HETATM   22  C   UNL     1     -39.823  49.796 -53.785  1.00  0.00     0.001 A 
HETATM   23  C   UNL     1     -39.532  49.714 -52.424  1.00  0.00     0.000 A 
HETATM   24  C   UNL     1     -39.563  50.864 -51.637  1.00  0.00     0.001 A 
HETATM   25  C   UNL     1     -39.888  52.095 -52.209  1.00  0.00     0.007 A 
ENDBRANCH  19  20
ENDBRANCH  18  19
ENDBRANCH  15  18
ENDBRANCH   1  14
BRANCH   2  26
HETATM   26  N   UNL     1     -41.282  58.585 -49.924  1.00  0.00    -0.286 NA
HETATM   27  H   UNL     1     -40.708  59.360 -49.571  1.00  0.00     0.125 HD
HETATM   28  H   UNL     1     -41.957  58.304 -49.211  1.00  0.00     0.125 HD
ENDBRANCH   2  26
BRANCH   3  29
HETATM   29  N   UNL     1     -42.551  61.067 -51.046  1.00  0.00    -0.176 NA
HETATM   30  C   UNL     1     -43.706  61.011 -50.469  1.00  0.00     0.153 C 
BRANCH  30  31
HETATM   31  C   UNL     1     -44.190  62.124 -49.685  1.00  0.00     0.011 A 
HETATM   32  C   UNL     1     -44.612  62.075 -48.319  1.00  0.00     0.004 A 
HETATM   33  C   UNL     1     -45.042  63.355 -47.971  1.00  0.00     0.043 A 
HETATM   34  C   UNL     1     -44.652  61.060 -47.339  1.00  0.00     0.014 A 
HETATM   35  C   UNL     1     -45.526  63.667 -46.696  1.00  0.00     0.030 A 
HETATM   36  N   UNL     1     -44.883  64.152 -49.083  1.00  0.00    -0.364 N 
HETATM   37  C   UNL     1     -45.552  62.645 -45.742  1.00  0.00     0.002 A 
HETATM   38  C   UNL     1     -45.118  61.360 -46.055  1.00  0.00     0.001 A 
HETATM   39  H   UNL     1     -45.121  65.132 -49.124  1.00  0.00     0.165 HD
HETATM   40  C   UNL     1     -44.351  63.426 -50.113  1.00  0.00     0.102 A 
ENDBRANCH  30  31
ENDBRANCH   3  29
TORSDOF 7
ENDMDL
MODEL 9
REMARK VINA RESULT:      -8.9      2.746      5.615
REMARK  7 active torsions:
REMARK  status: ('A' for Active; 'I' for Inactive)
REMARK    1  A    between atoms: C_4  and  C_5 
REMARK    2  A    between atoms: C_5  and  C_6 
REMARK    3  A    between atoms: C_6  and  N_7 
REMARK       I    between atoms: N_7  and  C_8 
REMARK    4  A    between atoms: C_8  and  C_9 
REMARK    5  A    between atoms: C_10  and  N_11 
REMARK    6  A    between atoms: N_12  and  N_13 
REMARK    7  A    between atoms: C_14  and  C_15 
ROOT
HETATM    1  C   UNL     1     -41.549  57.717 -54.482  1.00  0.00     0.104 C 
HETATM    2  C   UNL     1     -42.213  57.890 -55.686  1.00  0.00     0.123 C 
HETATM    3  N   UNL     1     -42.767  56.662 -56.052  1.00  0.00    -0.202 N 
HETATM    4  C   UNL     1     -42.132  55.686 -55.306  1.00  0.00     0.183 A 
HETATM    5  C   UNL     1     -41.437  56.322 -54.280  1.00  0.00     0.124 A 
HETATM    6  N   UNL     1     -40.767  55.617 -53.333  1.00  0.00    -0.242 NA
HETATM    7  C   UNL     1     -40.762  54.285 -53.529  1.00  0.00     0.086 A 
HETATM    8  C   UNL     1     -41.464  53.660 -54.595  1.00  0.00     0.088 A 
HETATM    9  N   UNL     1     -42.200  54.346 -55.482  1.00  0.00    -0.225 NA
HETATM   10  C   UNL     1     -40.021  53.488 -52.664  1.00  0.00     0.034 A 
HETATM   11  C   UNL     1     -39.938  52.103 -52.830  1.00  0.00     0.002 A 
HETATM   12  C   UNL     1     -40.619  51.497 -53.876  1.00  0.00     0.002 A 
HETATM   13  C   UNL     1     -41.379  52.281 -54.744  1.00  0.00     0.034 A 
ENDROOT
BRANCH   1  14
HETATM   14  C   UNL     1     -41.034  58.821 -53.704  1.00  0.00     0.257 C 
HETATM   15  N   UNL     1     -40.212  58.432 -52.658  1.00  0.00    -0.356 N 
HETATM   16  H   UNL     1     -40.075  57.434 -52.554  1.00  0.00     0.162 HD
HETATM   17  O   UNL     1     -41.465  59.962 -53.835  1.00  0.00    -0.267 OA
BRANCH  15  18
HETATM   18  C   UNL     1     -40.268  59.225 -51.444  1.00  0.00     0.127 C 
BRANCH  18  19
HETATM   19  C   UNL     1     -41.581  59.088 -50.674  1.00  0.00     0.058 C 
BRANCH  19  20
HETATM   20  C   UNL     1     -41.967  57.633 -50.530  1.00  0.00    -0.057 A 
HETATM   21  C   UNL     1     -41.117  56.729 -49.876  1.00  0.00     0.007 A 
HETATM   22  C   UNL     1     -41.448  55.375 -49.800  1.00  0.00     0.001 A 
HETATM   23  C   UNL     1     -42.628  54.909 -50.378  1.00  0.00     0.000 A 
HETATM   24  C   UNL     1     -43.483  55.799 -51.026  1.00  0.00     0.001 A 
HETATM   25  C   UNL     1     -43.156  57.155 -51.098  1.00  0.00     0.007 A 
ENDBRANCH  19  20
ENDBRANCH  18  19
ENDBRANCH  15  18
ENDBRANCH   1  14
BRANCH   2  26
HETATM   26  N   UNL     1     -42.371  59.028 -56.426  1.00  0.00    -0.286 NA
HETATM   27  H   UNL     1     -43.063  59.701 -56.074  1.00  0.00     0.125 HD
HETATM   28  H   UNL     1     -41.524  59.522 -56.713  1.00  0.00     0.125 HD
ENDBRANCH   2  26
BRANCH   3  29
HETATM   29  N   UNL     1     -43.738  56.413 -56.992  1.00  0.00    -0.176 NA
HETATM   30  C   UNL     1     -43.274  56.073 -58.149  1.00  0.00     0.153 C 
BRANCH  30  31
HETATM   31  C   UNL     1     -44.171  55.744 -59.233  1.00  0.00     0.011 A 
HETATM   32  C   UNL     1     -45.285  56.526 -59.676  1.00  0.00     0.004 A 
HETATM   33  C   UNL     1     -45.902  55.823 -60.709  1.00  0.00     0.043 A 
HETATM   34  C   UNL     1     -45.815  57.779 -59.301  1.00  0.00     0.014 A 
HETATM   35  C   UNL     1     -47.034  56.302 -61.377  1.00  0.00     0.030 A 
HETATM   36  N   UNL     1     -45.187  54.659 -60.890  1.00  0.00    -0.364 N 
HETATM   37  C   UNL     1     -47.538  57.548 -60.990  1.00  0.00     0.002 A 
HETATM   38  C   UNL     1     -46.937  58.279 -59.969  1.00  0.00     0.001 A 
HETATM   39  H   UNL     1     -45.411  53.949 -61.573  1.00  0.00     0.165 HD
HETATM   40  C   UNL     1     -44.131  54.612 -60.022  1.00  0.00     0.102 A 
ENDBRANCH  30  31
ENDBRANCH   3  29
TORSDOF 7
ENDMDL
MODEL 10
REMARK VINA RESULT:      -8.7      2.402      7.313
REMARK  7 active torsions:
REMARK  status: ('A' for Active; 'I' for Inactive)
REMARK    1  A    between atoms: C_4  and  C_5 
REMARK    2  A    between atoms: C_5  and  C_6 
REMARK    3  A    between atoms: C_6  and  N_7 
REMARK       I    between atoms: N_7  and  C_8 
REMARK    4  A    between atoms: C_8  and  C_9 
REMARK    5  A    between atoms: C_10  and  N_11 
REMARK    6  A    between atoms: N_12  and  N_13 
REMARK    7  A    between atoms: C_14  and  C_15 
ROOT
HETATM    1  C   UNL     1     -41.586  57.694 -52.392  1.00  0.00     0.104 C 
HETATM    2  C   UNL     1     -41.674  58.344 -53.613  1.00  0.00     0.123 C 
HETATM    3  N   UNL     1     -41.763  57.372 -54.612  1.00  0.00    -0.202 N 
HETATM    4  C   UNL     1     -41.344  56.176 -54.060  1.00  0.00     0.183 A 
HETATM    5  C   UNL     1     -41.307  56.338 -52.677  1.00  0.00     0.124 A 
HETATM    6  N   UNL     1     -40.997  55.307 -51.850  1.00  0.00    -0.242 NA
HETATM    7  C   UNL     1     -40.650  54.170 -52.483  1.00  0.00     0.086 A 
HETATM    8  C   UNL     1     -40.678  54.035 -53.897  1.00  0.00     0.088 A 
HETATM    9  N   UNL     1     -41.068  55.024 -54.714  1.00  0.00    -0.225 NA
HETATM   10  C   UNL     1     -40.224  53.088 -51.720  1.00  0.00     0.034 A 
HETATM   11  C   UNL     1     -39.811  51.891 -52.309  1.00  0.00     0.002 A 
HETATM   12  C   UNL     1     -39.833  51.765 -53.691  1.00  0.00     0.002 A 
HETATM   13  C   UNL     1     -40.272  52.836 -54.469  1.00  0.00     0.034 A 
ENDROOT
BRANCH   1  14
HETATM   14  C   UNL     1     -41.688  58.385 -51.127  1.00  0.00     0.257 C 
HETATM   15  N   UNL     1     -42.804  59.202 -51.026  1.00  0.00    -0.356 N 
HETATM   16  H   UNL     1     -43.405  59.228 -51.840  1.00  0.00     0.162 HD
HETATM   17  O   UNL     1     -40.762  58.405 -50.322  1.00  0.00    -0.267 OA
BRANCH  15  18
HETATM   18  C   UNL     1     -42.655  60.431 -50.269  1.00  0.00     0.127 C 
BRANCH  18  19
HETATM   19  C   UNL     1     -43.772  61.447 -50.510  1.00  0.00     0.058 C 
BRANCH  19  20
HETATM   20  C   UNL     1     -44.297  61.986 -49.198  1.00  0.00    -0.057 A 
HETATM   21  C   UNL     1     -44.243  63.359 -48.917  1.00  0.00     0.007 A 
HETATM   22  C   UNL     1     -44.672  63.845 -47.680  1.00  0.00     0.001 A 
HETATM   23  C   UNL     1     -45.155  62.967 -46.712  1.00  0.00     0.000 A 
HETATM   24  C   UNL     1     -45.219  61.601 -46.983  1.00  0.00     0.001 A 
HETATM   25  C   UNL     1     -44.796  61.114 -48.221  1.00  0.00     0.007 A 
ENDBRANCH  19  20
ENDBRANCH  18  19
ENDBRANCH  15  18
ENDBRANCH   1  14
BRANCH   2  26
HETATM   26  N   UNL     1     -41.709  59.685 -53.874  1.00  0.00    -0.286 NA
HETATM   27  H   UNL     1     -42.307  59.976 -54.657  1.00  0.00     0.125 HD
HETATM   28  H   UNL     1     -41.850  60.313 -53.081  1.00  0.00     0.125 HD
ENDBRANCH   2  26
BRANCH   3  29
HETATM   29  N   UNL     1     -42.156  57.530 -55.920  1.00  0.00    -0.176 NA
HETATM   30  C   UNL     1     -43.437  57.536 -56.086  1.00  0.00     0.153 C 
BRANCH  30  31
HETATM   31  C   UNL     1     -44.006  57.729 -57.400  1.00  0.00     0.011 A 
HETATM   32  C   UNL     1     -44.157  56.729 -58.412  1.00  0.00     0.004 A 
HETATM   33  C   UNL     1     -44.706  57.350 -59.532  1.00  0.00     0.043 A 
HETATM   34  C   UNL     1     -43.891  55.344 -58.470  1.00  0.00     0.014 A 
HETATM   35  C   UNL     1     -44.987  56.659 -60.716  1.00  0.00     0.030 A 
HETATM   36  N   UNL     1     -44.886  58.677 -59.212  1.00  0.00    -0.364 N 
HETATM   37  C   UNL     1     -44.718  55.287 -60.747  1.00  0.00     0.002 A 
HETATM   38  C   UNL     1     -44.180  54.635 -59.640  1.00  0.00     0.001 A 
HETATM   39  H   UNL     1     -45.264  59.372 -59.840  1.00  0.00     0.165 HD
HETATM   40  C   UNL     1     -44.489  58.911 -57.923  1.00  0.00     0.102 A 
ENDBRANCH  30  31
ENDBRANCH   3  29
TORSDOF 7
ENDMDL
