MODEL 1
REMARK VINA RESULT:      -8.7      0.000      0.000
REMARK  5 active torsions:
REMARK  status: ('A' for Active; 'I' for Inactive)
REMARK    1  A    between atoms: C_8  and  C_9 
REMARK    2  A    between atoms: C_9  and  N_10 
REMARK       I    between atoms: N_10  and  C_11 
REMARK       I    between atoms: C_11  and  N_12 
REMARK    3  A    between atoms: C_13  and  C_14 
REMARK    4  A    between atoms: C_14  and  C_15 
REMARK    5  A    between atoms: C_15  and  C_16 
ROOT
HETATM    1  N   UNL     1     -43.428  56.646 -56.146  1.00  0.00    -0.339 N 
HETATM    2  C   UNL     1     -43.995  56.706 -54.904  1.00  0.00     0.318 C 
HETATM    3  N   UNL     1     -43.239  56.169 -53.873  1.00  0.00    -0.330 N 
HETATM    4  C   UNL     1     -41.877  55.601 -53.991  1.00  0.00     0.089 C 
HETATM    5  C   UNL     1     -40.937  56.269 -52.969  1.00  0.00     0.025 C 
HETATM    6  C   UNL     1     -41.499  56.263 -51.550  1.00  0.00     0.004 C 
HETATM    7  C   UNL     1     -42.898  56.870 -51.527  1.00  0.00     0.020 C 
HETATM    8  C   UNL     1     -43.818  56.177 -52.526  1.00  0.00     0.128 C 
HETATM    9  O   UNL     1     -45.093  57.230 -54.730  1.00  0.00    -0.247 OA
HETATM   10  H   UNL     1     -42.844  55.853 -56.344  1.00  0.00     0.164 HD
ENDROOT
BRANCH   4  11
HETATM   11  C   UNL     1     -41.876  54.064 -53.845  1.00  0.00     0.030 C 
BRANCH  11  12
HETATM   12  C   UNL     1     -40.621  53.415 -54.436  1.00  0.00     0.040 C 
BRANCH  12  13
HETATM   13  C   UNL     1     -40.224  52.176 -53.673  1.00  0.00    -0.058 A 
HETATM   14  C   UNL     1     -40.152  50.938 -54.326  1.00  0.00     0.007 A 
HETATM   15  C   UNL     1     -39.801  49.786 -53.621  1.00  0.00     0.001 A 
HETATM   16  C   UNL     1     -39.524  49.861 -52.257  1.00  0.00     0.000 A 
HETATM   17  C   UNL     1     -39.600  51.086 -51.597  1.00  0.00     0.001 A 
HETATM   18  C   UNL     1     -39.951  52.239 -52.301  1.00  0.00     0.007 A 
ENDBRANCH  12  13
ENDBRANCH  11  12
ENDBRANCH   4  11
BRANCH   1  19
HETATM   19  C   UNL     1     -44.123  57.191 -57.289  1.00  0.00     0.167 C 
BRANCH  19  20
HETATM   20  C   UNL     1     -43.210  57.101 -58.459  1.00  0.00     0.009 A 
HETATM   21  C   UNL     1     -42.204  57.969 -58.846  1.00  0.00     0.034 A 
HETATM   22  C   UNL     1     -41.704  59.233 -58.255  1.00  0.00     0.070 C 
HETATM   23  N   UNL     1     -41.663  57.433 -59.981  1.00  0.00    -0.282 N 
HETATM   24  H   UNL     1     -40.896  57.791 -60.540  1.00  0.00     0.189 HD
HETATM   25  N   UNL     1     -42.250  56.295 -60.373  1.00  0.00    -0.179 NA
HETATM   26  C   UNL     1     -43.188  56.076 -59.446  1.00  0.00     0.060 A 
HETATM   27  C   UNL     1     -44.071  54.885 -59.537  1.00  0.00     0.073 C 
ENDBRANCH  19  20
ENDBRANCH   1  19
TORSDOF 5
ENDMDL
MODEL 2
REMARK VINA RESULT:      -8.2      1.636      2.088
REMARK  5 active torsions:
REMARK  status: ('A' for Active; 'I' for Inactive)
REMARK    1  A    between atoms: C_8  and  C_9 
REMARK    2  A    between atoms: C_9  and  N_10 
REMARK       I    between atoms: N_10  and  C_11 
REMARK       I    between atoms: C_11  and  N_12 
REMARK    3  A    between atoms: C_13  and  C_14 
REMARK    4  A    between atoms: C_14  and  C_15 
REMARK    5  A    between atoms: C_15  and  C_16 
ROOT
HETATM    1  N   UNL     1     -43.320  57.641 -56.754  1.00  0.00    -0.339 N 
HETATM    2  C   UNL     1     -43.939  57.649 -55.536  1.00  0.00     0.318 C 
HETATM    3  N   UNL     1     -43.287  56.957 -54.527  1.00  0.00    -0.330 N 
HETATM    4  C   UNL     1     -41.979  56.274 -54.639  1.00  0.00     0.089 C 
HETATM    5  C   UNL     1     -41.033  56.761 -53.525  1.00  0.00     0.025 C 
HETATM    6  C   UNL     1     -41.662  56.690 -52.136  1.00  0.00     0.004 C 
HETATM    7  C   UNL     1     -42.999  57.423 -52.115  1.00  0.00     0.020 C 
HETATM    8  C   UNL     1     -43.928  56.907 -53.209  1.00  0.00     0.128 C 
HETATM    9  O   UNL     1     -44.992  58.258 -55.361  1.00  0.00    -0.247 OA
HETATM   10  H   UNL     1     -42.803  56.815 -56.998  1.00  0.00     0.164 HD
ENDROOT
BRANCH   4  11
HETATM   11  C   UNL     1     -42.125  54.738 -54.630  1.00  0.00     0.030 C 
BRANCH  11  12
HETATM   12  C   UNL     1     -40.841  54.019 -55.054  1.00  0.00     0.040 C 
BRANCH  12  13
HETATM   13  C   UNL     1     -40.405  53.006 -54.025  1.00  0.00    -0.058 A 
HETATM   14  C   UNL     1     -40.055  51.707 -54.417  1.00  0.00     0.007 A 
HETATM   15  C   UNL     1     -39.666  50.762 -53.466  1.00  0.00     0.001 A 
HETATM   16  C   UNL     1     -39.628  51.106 -52.116  1.00  0.00     0.000 A 
HETATM   17  C   UNL     1     -39.981  52.393 -51.716  1.00  0.00     0.001 A 
HETATM   18  C   UNL     1     -40.371  53.340 -52.665  1.00  0.00     0.007 A 
ENDBRANCH  12  13
ENDBRANCH  11  12
ENDBRANCH   4  11
BRANCH   1  19
HETATM   19  C   UNL     1     -43.906  58.343 -57.872  1.00  0.00     0.167 C 
BRANCH  19  20
HETATM   20  C   UNL     1     -44.784  57.387 -58.597  1.00  0.00     0.009 A 
HETATM   21  C   UNL     1     -46.166  57.345 -58.653  1.00  0.00     0.034 A 
HETATM   22  C   UNL     1     -47.209  58.202 -58.042  1.00  0.00     0.070 C 
HETATM   23  N   UNL     1     -46.476  56.282 -59.454  1.00  0.00    -0.282 N 
HETATM   24  H   UNL     1     -47.394  55.951 -59.730  1.00  0.00     0.189 HD
HETATM   25  N   UNL     1     -45.406  55.618 -59.908  1.00  0.00    -0.179 NA
HETATM   26  C   UNL     1     -44.367  56.288 -59.401  1.00  0.00     0.060 A 
HETATM   27  C   UNL     1     -42.977  55.847 -59.683  1.00  0.00     0.073 C 
ENDBRANCH  19  20
ENDBRANCH   1  19
TORSDOF 5
ENDMDL
MODEL 3
REMARK VINA RESULT:      -8.1      2.890      5.499
REMARK  5 active torsions:
REMARK  status: ('A' for Active; 'I' for Inactive)
REMARK    1  A    between atoms: C_8  and  C_9 
REMARK    2  A    between atoms: C_9  and  N_10 
REMARK       I    between atoms: N_10  and  C_11 
REMARK       I    between atoms: C_11  and  N_12 
REMARK    3  A    between atoms: C_13  and  C_14 
REMARK    4  A    between atoms: C_14  and  C_15 
REMARK    5  A    between atoms: C_15  and  C_16 
ROOT
HETATM    1  N   UNL     1     -42.098  58.532 -53.460  1.00  0.00    -0.339 N 
HETATM    2  C   UNL     1     -42.057  58.051 -54.739  1.00  0.00     0.318 C 
HETATM    3  N   UNL     1     -42.051  56.670 -54.861  1.00  0.00    -0.330 N 
HETATM    4  C   UNL     1     -42.141  55.694 -53.752  1.00  0.00     0.089 C 
HETATM    5  C   UNL     1     -43.283  54.696 -54.019  1.00  0.00     0.025 C 
HETATM    6  C   UNL     1     -43.210  54.064 -55.407  1.00  0.00     0.004 C 
HETATM    7  C   UNL     1     -43.126  55.143 -56.482  1.00  0.00     0.020 C 
HETATM    8  C   UNL     1     -41.973  56.104 -56.211  1.00  0.00     0.128 C 
HETATM    9  O   UNL     1     -42.053  58.811 -55.705  1.00  0.00    -0.247 OA
HETATM   10  H   UNL     1     -41.630  57.992 -52.755  1.00  0.00     0.164 HD
ENDROOT
BRANCH   4  11
HETATM   11  C   UNL     1     -40.800  54.971 -53.506  1.00  0.00     0.030 C 
BRANCH  11  12
HETATM   12  C   UNL     1     -40.845  54.034 -52.296  1.00  0.00     0.040 C 
BRANCH  12  13
HETATM   13  C   UNL     1     -40.399  52.639 -52.656  1.00  0.00    -0.058 A 
HETATM   14  C   UNL     1     -40.560  52.162 -53.964  1.00  0.00     0.007 A 
HETATM   15  C   UNL     1     -40.163  50.867 -54.298  1.00  0.00     0.001 A 
HETATM   16  C   UNL     1     -39.608  50.035 -53.327  1.00  0.00     0.000 A 
HETATM   17  C   UNL     1     -39.452  50.497 -52.022  1.00  0.00     0.001 A 
HETATM   18  C   UNL     1     -39.848  51.793 -51.685  1.00  0.00     0.007 A 
ENDBRANCH  12  13
ENDBRANCH  11  12
ENDBRANCH   4  11
BRANCH   1  19
HETATM   19  C   UNL     1     -42.123  59.956 -53.221  1.00  0.00     0.167 C 
BRANCH  19  20
HETATM   20  C   UNL     1     -42.669  60.175 -51.855  1.00  0.00     0.009 A 
HETATM   21  C   UNL     1     -42.039  60.028 -50.632  1.00  0.00     0.034 A 
HETATM   22  C   UNL     1     -40.661  59.623 -50.269  1.00  0.00     0.070 C 
HETATM   23  N   UNL     1     -42.972  60.355 -49.689  1.00  0.00    -0.282 N 
HETATM   24  H   UNL     1     -42.867  60.373 -48.680  1.00  0.00     0.189 HD
HETATM   25  N   UNL     1     -44.165  60.686 -50.201  1.00  0.00    -0.179 NA
HETATM   26  C   UNL     1     -43.990  60.590 -51.523  1.00  0.00     0.060 A 
HETATM   27  C   UNL     1     -45.111  60.882 -52.452  1.00  0.00     0.073 C 
ENDBRANCH  19  20
ENDBRANCH   1  19
TORSDOF 5
ENDMDL
MODEL 4
REMARK VINA RESULT:      -7.9      1.248      2.380
REMARK  5 active torsions:
REMARK  status: ('A' for Active; 'I' for Inactive)
REMARK    1  A    between atoms: C_8  and  C_9 
REMARK    2  A    between atoms: C_9  and  N_10 
REMARK       I    between atoms: N_10  and  C_11 
REMARK       I    between atoms: C_11  and  N_12 
REMARK    3  A    between atoms: C_13  and  C_14 
REMARK    4  A    between atoms: C_14  and  C_15 
REMARK    5  A    between atoms: C_15  and  C_16 
ROOT
HETATM    1  N   UNL     1     -43.029  57.160 -54.715  1.00  0.00    -0.339 N 
HETATM    2  C   UNL     1     -43.670  56.735 -53.586  1.00  0.00     0.318 C 
HETATM    3  N   UNL     1     -43.004  55.771 -52.845  1.00  0.00    -0.330 N 
HETATM    4  C   UNL     1     -41.663  55.217 -53.135  1.00  0.00     0.089 C 
HETATM    5  C   UNL     1     -40.761  55.338 -51.892  1.00  0.00     0.025 C 
HETATM    6  C   UNL     1     -41.411  54.780 -50.628  1.00  0.00     0.004 C 
HETATM    7  C   UNL     1     -42.782  55.411 -50.409  1.00  0.00     0.020 C 
HETATM    8  C   UNL     1     -43.666  55.257 -51.642  1.00  0.00     0.128 C 
HETATM    9  O   UNL     1     -44.754  57.209 -53.252  1.00  0.00    -0.247 OA
HETATM   10  H   UNL     1     -42.469  56.485 -55.204  1.00  0.00     0.164 HD
ENDROOT
BRANCH   4  11
HETATM   11  C   UNL     1     -41.736  53.762 -53.645  1.00  0.00     0.030 C 
BRANCH  11  12
HETATM   12  C   UNL     1     -40.379  53.233 -54.122  1.00  0.00     0.040 C 
BRANCH  12  13
HETATM   13  C   UNL     1     -40.059  51.892 -53.509  1.00  0.00    -0.058 A 
HETATM   14  C   UNL     1     -39.798  51.787 -52.137  1.00  0.00     0.007 A 
HETATM   15  C   UNL     1     -39.486  50.552 -51.568  1.00  0.00     0.001 A 
HETATM   16  C   UNL     1     -39.428  49.411 -52.368  1.00  0.00     0.000 A 
HETATM   17  C   UNL     1     -39.680  49.506 -53.735  1.00  0.00     0.001 A 
HETATM   18  C   UNL     1     -39.992  50.741 -54.306  1.00  0.00     0.007 A 
ENDBRANCH  12  13
ENDBRANCH  11  12
ENDBRANCH   4  11
BRANCH   1  19
HETATM   19  C   UNL     1     -43.628  58.173 -55.552  1.00  0.00     0.167 C 
BRANCH  19  20
HETATM   20  C   UNL     1     -42.872  58.207 -56.832  1.00  0.00     0.009 A 
HETATM   21  C   UNL     1     -42.652  57.186 -57.740  1.00  0.00     0.034 A 
HETATM   22  C   UNL     1     -43.076  55.767 -57.757  1.00  0.00     0.070 C 
HETATM   23  N   UNL     1     -41.906  57.734 -58.746  1.00  0.00    -0.282 N 
HETATM   24  H   UNL     1     -41.564  57.286 -59.589  1.00  0.00     0.189 HD
HETATM   25  N   UNL     1     -41.609  59.026 -58.555  1.00  0.00    -0.179 NA
HETATM   26  C   UNL     1     -42.201  59.329 -57.396  1.00  0.00     0.060 A 
HETATM   27  C   UNL     1     -42.095  60.700 -56.834  1.00  0.00     0.073 C 
ENDBRANCH  19  20
ENDBRANCH   1  19
TORSDOF 5
ENDMDL
MODEL 5
REMARK VINA RESULT:      -7.8      1.944      5.549
REMARK  5 active torsions:
REMARK  status: ('A' for Active; 'I' for Inactive)
REMARK    1  A    between atoms: C_8  and  C_9 
REMARK    2  A    between atoms: C_9  and  N_10 
REMARK       I    between atoms: N_10  and  C_11 
REMARK       I    between atoms: C_11  and  N_12 
REMARK    3  A    between atoms: C_13  and  C_14 
REMARK    4  A    between atoms: C_14  and  C_15 
REMARK    5  A    between atoms: C_15  and  C_16 
ROOT
HETATM    1  N   UNL     1     -43.587  56.609 -53.556  1.00  0.00    -0.339 N 
HETATM    2  C   UNL     1     -43.219  57.417 -54.595  1.00  0.00     0.318 C 
HETATM    3  N   UNL     1     -42.789  56.763 -55.740  1.00  0.00    -0.330 N 
HETATM    4  C   UNL     1     -42.750  55.298 -55.947  1.00  0.00     0.089 C 
HETATM    5  C   UNL     1     -43.496  54.929 -57.244  1.00  0.00     0.025 C 
HETATM    6  C   UNL     1     -43.037  55.747 -58.448  1.00  0.00     0.004 C 
HETATM    7  C   UNL     1     -43.116  57.240 -58.143  1.00  0.00     0.020 C 
HETATM    8  C   UNL     1     -42.350  57.585 -56.871  1.00  0.00     0.128 C 
HETATM    9  O   UNL     1     -43.296  58.640 -54.509  1.00  0.00    -0.247 OA
HETATM   10  H   UNL     1     -43.090  55.742 -53.453  1.00  0.00     0.164 HD
ENDROOT
BRANCH   4  11
HETATM   11  C   UNL     1     -41.307  54.751 -55.947  1.00  0.00     0.030 C 
BRANCH  11  12
HETATM   12  C   UNL     1     -40.589  54.976 -54.612  1.00  0.00     0.040 C 
BRANCH  12  13
HETATM   13  C   UNL     1     -40.345  53.677 -53.886  1.00  0.00    -0.058 A 
HETATM   14  C   UNL     1     -40.260  53.655 -52.487  1.00  0.00     0.007 A 
HETATM   15  C   UNL     1     -40.019  52.458 -51.812  1.00  0.00     0.001 A 
HETATM   16  C   UNL     1     -39.856  51.274 -52.529  1.00  0.00     0.000 A 
HETATM   17  C   UNL     1     -39.932  51.286 -53.920  1.00  0.00     0.001 A 
HETATM   18  C   UNL     1     -40.173  52.483 -54.598  1.00  0.00     0.007 A 
ENDBRANCH  12  13
ENDBRANCH  11  12
ENDBRANCH   4  11
BRANCH   1  19
HETATM   19  C   UNL     1     -44.064  57.187 -52.321  1.00  0.00     0.167 C 
BRANCH  19  20
HETATM   20  C   UNL     1     -42.964  57.098 -51.325  1.00  0.00     0.009 A 
HETATM   21  C   UNL     1     -42.062  58.073 -50.937  1.00  0.00     0.034 A 
HETATM   22  C   UNL     1     -41.885  59.483 -51.356  1.00  0.00     0.070 C 
HETATM   23  N   UNL     1     -41.263  57.490 -49.994  1.00  0.00    -0.282 N 
HETATM   24  H   UNL     1     -40.494  57.905 -49.478  1.00  0.00     0.189 HD
HETATM   25  N   UNL     1     -41.562  56.207 -49.751  1.00  0.00    -0.179 NA
HETATM   26  C   UNL     1     -42.606  55.960 -50.550  1.00  0.00     0.060 A 
HETATM   27  C   UNL     1     -43.234  54.614 -50.569  1.00  0.00     0.073 C 
ENDBRANCH  19  20
ENDBRANCH   1  19
TORSDOF 5
ENDMDL
MODEL 6
REMARK VINA RESULT:      -7.8      1.936      2.518
REMARK  5 active torsions:
REMARK  status: ('A' for Active; 'I' for Inactive)
REMARK    1  A    between atoms: C_8  and  C_9 
REMARK    2  A    between atoms: C_9  and  N_10 
REMARK       I    between atoms: N_10  and  C_11 
REMARK       I    between atoms: C_11  and  N_12 
REMARK    3  A    between atoms: C_13  and  C_14 
REMARK    4  A    between atoms: C_14  and  C_15 
REMARK    5  A    between atoms: C_15  and  C_16 
ROOT
HETATM    1  N   UNL     1     -43.427  57.199 -54.873  1.00  0.00    -0.339 N 
HETATM    2  C   UNL     1     -43.901  56.902 -53.626  1.00  0.00     0.318 C 
HETATM    3  N   UNL     1     -43.135  56.011 -52.890  1.00  0.00    -0.330 N 
HETATM    4  C   UNL     1     -41.848  55.411 -53.307  1.00  0.00     0.089 C 
HETATM    5  C   UNL     1     -40.780  55.649 -52.223  1.00  0.00     0.025 C 
HETATM    6  C   UNL     1     -41.243  55.234 -50.829  1.00  0.00     0.004 C 
HETATM    7  C   UNL     1     -42.570  55.903 -50.485  1.00  0.00     0.020 C 
HETATM    8  C   UNL     1     -43.620  55.633 -51.558  1.00  0.00     0.128 C 
HETATM    9  O   UNL     1     -44.927  57.422 -53.195  1.00  0.00    -0.247 OA
HETATM   10  H   UNL     1     -42.941  56.469 -55.362  1.00  0.00     0.164 HD
ENDROOT
BRANCH   4  11
HETATM   11  C   UNL     1     -41.990  53.913 -53.647  1.00  0.00     0.030 C 
BRANCH  11  12
HETATM   12  C   UNL     1     -40.744  53.339 -54.328  1.00  0.00     0.040 C 
BRANCH  12  13
HETATM   13  C   UNL     1     -40.283  52.066 -53.663  1.00  0.00    -0.058 A 
HETATM   14  C   UNL     1     -40.234  50.868 -54.389  1.00  0.00     0.007 A 
HETATM   15  C   UNL     1     -39.824  49.685 -53.774  1.00  0.00     0.001 A 
HETATM   16  C   UNL     1     -39.463  49.688 -52.428  1.00  0.00     0.000 A 
HETATM   17  C   UNL     1     -39.515  50.872 -51.696  1.00  0.00     0.001 A 
HETATM   18  C   UNL     1     -39.926  52.057 -52.309  1.00  0.00     0.007 A 
ENDBRANCH  12  13
ENDBRANCH  11  12
ENDBRANCH   4  11
BRANCH   1  19
HETATM   19  C   UNL     1     -44.140  58.127 -55.719  1.00  0.00     0.167 C 
BRANCH  19  20
HETATM   20  C   UNL     1     -43.208  59.234 -56.062  1.00  0.00     0.009 A 
HETATM   21  C   UNL     1     -42.976  60.418 -55.383  1.00  0.00     0.034 A 
HETATM   22  C   UNL     1     -43.546  60.971 -54.133  1.00  0.00     0.070 C 
HETATM   23  N   UNL     1     -42.028  61.085 -56.108  1.00  0.00    -0.282 N 
HETATM   24  H   UNL     1     -41.605  61.985 -55.909  1.00  0.00     0.189 HD
HETATM   25  N   UNL     1     -41.638  60.437 -57.213  1.00  0.00    -0.179 NA
HETATM   26  C   UNL     1     -42.343  59.301 -57.191  1.00  0.00     0.060 A 
HETATM   27  C   UNL     1     -42.188  58.299 -58.276  1.00  0.00     0.073 C 
ENDBRANCH  19  20
ENDBRANCH   1  19
TORSDOF 5
ENDMDL
MODEL 7
REMARK VINA RESULT:      -7.6      3.279      4.388
REMARK  5 active torsions:
REMARK  status: ('A' for Active; 'I' for Inactive)
REMARK    1  A    between atoms: C_8  and  C_9 
REMARK    2  A    between atoms: C_9  and  N_10 
REMARK       I    between atoms: N_10  and  C_11 
REMARK       I    between atoms: C_11  and  N_12 
REMARK    3  A    between atoms: C_13  and  C_14 
REMARK    4  A    between atoms: C_14  and  C_15 
REMARK    5  A    between atoms: C_15  and  C_16 
ROOT
HETATM    1  N   UNL     1     -43.739  57.187 -52.675  1.00  0.00    -0.339 N 
HETATM    2  C   UNL     1     -43.815  56.510 -51.490  1.00  0.00     0.318 C 
HETATM    3  N   UNL     1     -42.823  55.566 -51.274  1.00  0.00    -0.330 N 
HETATM    4  C   UNL     1     -41.683  55.275 -52.171  1.00  0.00     0.089 C 
HETATM    5  C   UNL     1     -40.360  55.356 -51.385  1.00  0.00     0.025 C 
HETATM    6  C   UNL     1     -40.377  54.529 -50.102  1.00  0.00     0.004 C 
HETATM    7  C   UNL     1     -41.581  54.900 -49.242  1.00  0.00     0.020 C 
HETATM    8  C   UNL     1     -42.880  54.788 -50.032  1.00  0.00     0.128 C 
HETATM    9  O   UNL     1     -44.698  56.757 -50.672  1.00  0.00    -0.247 OA
HETATM   10  H   UNL     1     -43.377  56.684 -53.465  1.00  0.00     0.164 HD
ENDROOT
BRANCH   4  11
HETATM   11  C   UNL     1     -41.838  53.914 -52.883  1.00  0.00     0.030 C 
BRANCH  11  12
HETATM   12  C   UNL     1     -40.583  53.506 -53.660  1.00  0.00     0.040 C 
BRANCH  12  13
HETATM   13  C   UNL     1     -40.185  52.081 -53.366  1.00  0.00    -0.058 A 
HETATM   14  C   UNL     1     -40.175  51.125 -54.390  1.00  0.00     0.007 A 
HETATM   15  C   UNL     1     -39.823  49.802 -54.119  1.00  0.00     0.001 A 
HETATM   16  C   UNL     1     -39.483  49.423 -52.822  1.00  0.00     0.000 A 
HETATM   17  C   UNL     1     -39.497  50.365 -51.795  1.00  0.00     0.001 A 
HETATM   18  C   UNL     1     -39.850  51.689 -52.064  1.00  0.00     0.007 A 
ENDBRANCH  12  13
ENDBRANCH  11  12
ENDBRANCH   4  11
BRANCH   1  19
HETATM   19  C   UNL     1     -44.713  58.204 -52.994  1.00  0.00     0.167 C 
BRANCH  19  20
HETATM   20  C   UNL     1     -43.977  59.468 -53.262  1.00  0.00     0.009 A 
HETATM   21  C   UNL     1     -43.613  60.021 -54.477  1.00  0.00     0.034 A 
HETATM   22  C   UNL     1     -43.821  59.571 -55.873  1.00  0.00     0.070 C 
HETATM   23  N   UNL     1     -42.962  61.185 -54.178  1.00  0.00    -0.282 N 
HETATM   24  H   UNL     1     -42.561  61.862 -54.818  1.00  0.00     0.189 HD
HETATM   25  N   UNL     1     -42.859  61.423 -52.865  1.00  0.00    -0.179 NA
HETATM   26  C   UNL     1     -43.483  60.388 -52.295  1.00  0.00     0.060 A 
HETATM   27  C   UNL     1     -43.579  60.289 -50.816  1.00  0.00     0.073 C 
ENDBRANCH  19  20
ENDBRANCH   1  19
TORSDOF 5
ENDMDL
MODEL 8
REMARK VINA RESULT:      -7.6      1.147      2.247
REMARK  5 active torsions:
REMARK  status: ('A' for Active; 'I' for Inactive)
REMARK    1  A    between atoms: C_8  and  C_9 
REMARK    2  A    between atoms: C_9  and  N_10 
REMARK       I    between atoms: N_10  and  C_11 
REMARK       I    between atoms: C_11  and  N_12 
REMARK    3  A    between atoms: C_13  and  C_14 
REMARK    4  A    between atoms: C_14  and  C_15 
REMARK    5  A    between atoms: C_15  and  C_16 
ROOT
HETATM    1  N   UNL     1     -43.547  57.491 -56.555  1.00  0.00    -0.339 N 
HETATM    2  C   UNL     1     -43.866  57.986 -55.323  1.00  0.00     0.318 C 
HETATM    3  N   UNL     1     -43.217  57.392 -54.251  1.00  0.00    -0.330 N 
HETATM    4  C   UNL     1     -42.189  56.331 -54.330  1.00  0.00     0.089 C 
HETATM    5  C   UNL     1     -40.932  56.755 -53.546  1.00  0.00     0.025 C 
HETATM    6  C   UNL     1     -41.245  57.221 -52.127  1.00  0.00     0.004 C 
HETATM    7  C   UNL     1     -42.308  58.315 -52.145  1.00  0.00     0.020 C 
HETATM    8  C   UNL     1     -43.551  57.865 -52.904  1.00  0.00     0.128 C 
HETATM    9  O   UNL     1     -44.660  58.916 -55.197  1.00  0.00    -0.247 OA
HETATM   10  H   UNL     1     -43.328  56.512 -56.611  1.00  0.00     0.164 HD
ENDROOT
BRANCH   4  11
HETATM   11  C   UNL     1     -42.727  54.967 -53.849  1.00  0.00     0.030 C 
BRANCH  11  12
HETATM   12  C   UNL     1     -42.115  53.787 -54.611  1.00  0.00     0.040 C 
BRANCH  12  13
HETATM   13  C   UNL     1     -41.151  53.009 -53.751  1.00  0.00    -0.058 A 
HETATM   14  C   UNL     1     -41.043  53.289 -52.382  1.00  0.00     0.007 A 
HETATM   15  C   UNL     1     -40.141  52.583 -51.585  1.00  0.00     0.001 A 
HETATM   16  C   UNL     1     -39.338  51.594 -52.150  1.00  0.00     0.000 A 
HETATM   17  C   UNL     1     -39.433  51.312 -53.511  1.00  0.00     0.001 A 
HETATM   18  C   UNL     1     -40.334  52.018 -54.311  1.00  0.00     0.007 A 
ENDBRANCH  12  13
ENDBRANCH  11  12
ENDBRANCH   4  11
BRANCH   1  19
HETATM   19  C   UNL     1     -44.154  58.047 -57.742  1.00  0.00     0.167 C 
BRANCH  19  20
HETATM   20  C   UNL     1     -43.194  57.876 -58.864  1.00  0.00     0.009 A 
HETATM   21  C   UNL     1     -42.964  56.760 -59.649  1.00  0.00     0.034 A 
HETATM   22  C   UNL     1     -43.567  55.407 -59.650  1.00  0.00     0.070 C 
HETATM   23  N   UNL     1     -41.991  57.122 -60.538  1.00  0.00    -0.282 N 
HETATM   24  H   UNL     1     -41.574  56.564 -61.275  1.00  0.00     0.189 HD
HETATM   25  N   UNL     1     -41.557  58.380 -60.381  1.00  0.00    -0.179 NA
HETATM   26  C   UNL     1     -42.291  58.854 -59.370  1.00  0.00     0.060 A 
HETATM   27  C   UNL     1     -42.097  60.245 -58.888  1.00  0.00     0.073 C 
ENDBRANCH  19  20
ENDBRANCH   1  19
TORSDOF 5
ENDMDL
MODEL 9
REMARK VINA RESULT:      -7.4      3.125      7.239
REMARK  5 active torsions:
REMARK  status: ('A' for Active; 'I' for Inactive)
REMARK    1  A    between atoms: C_8  and  C_9 
REMARK    2  A    between atoms: C_9  and  N_10 
REMARK       I    between atoms: N_10  and  C_11 
REMARK       I    between atoms: C_11  and  N_12 
REMARK    3  A    between atoms: C_13  and  C_14 
REMARK    4  A    between atoms: C_14  and  C_15 
REMARK    5  A    between atoms: C_15  and  C_16 
ROOT
HETATM    1  N   UNL     1     -40.768  53.751 -52.024  1.00  0.00    -0.339 N 
HETATM    2  C   UNL     1     -40.972  54.947 -51.396  1.00  0.00     0.318 C 
HETATM    3  N   UNL     1     -41.767  55.855 -52.078  1.00  0.00    -0.330 N 
HETATM    4  C   UNL     1     -42.445  55.623 -53.374  1.00  0.00     0.089 C 
HETATM    5  C   UNL     1     -43.946  55.950 -53.249  1.00  0.00     0.025 C 
HETATM    6  C   UNL     1     -44.208  57.324 -52.640  1.00  0.00     0.004 C 
HETATM    7  C   UNL     1     -43.476  57.469 -51.310  1.00  0.00     0.020 C 
HETATM    8  C   UNL     1     -41.989  57.167 -51.462  1.00  0.00     0.128 C 
HETATM    9  O   UNL     1     -40.495  55.173 -50.286  1.00  0.00    -0.247 OA
HETATM   10  H   UNL     1     -40.725  53.764 -53.028  1.00  0.00     0.164 HD
ENDROOT
BRANCH   4  11
HETATM   11  C   UNL     1     -41.784  56.414 -54.522  1.00  0.00     0.030 C 
BRANCH  11  12
HETATM   12  C   UNL     1     -41.859  55.681 -55.865  1.00  0.00     0.040 C 
BRANCH  12  13
HETATM   13  C   UNL     1     -42.836  56.341 -56.806  1.00  0.00    -0.058 A 
HETATM   14  C   UNL     1     -43.129  55.755 -58.045  1.00  0.00     0.007 A 
HETATM   15  C   UNL     1     -44.020  56.370 -58.924  1.00  0.00     0.001 A 
HETATM   16  C   UNL     1     -44.623  57.577 -58.576  1.00  0.00     0.000 A 
HETATM   17  C   UNL     1     -44.333  58.171 -57.349  1.00  0.00     0.001 A 
HETATM   18  C   UNL     1     -43.441  57.559 -56.468  1.00  0.00     0.007 A 
ENDBRANCH  12  13
ENDBRANCH  11  12
ENDBRANCH   4  11
BRANCH   1  19
HETATM   19  C   UNL     1     -39.967  52.727 -51.395  1.00  0.00     0.167 C 
BRANCH  19  20
HETATM   20  C   UNL     1     -39.842  51.597 -52.353  1.00  0.00     0.009 A 
HETATM   21  C   UNL     1     -39.894  51.619 -53.735  1.00  0.00     0.034 A 
HETATM   22  C   UNL     1     -40.080  52.726 -54.703  1.00  0.00     0.070 C 
HETATM   23  N   UNL     1     -39.721  50.324 -54.137  1.00  0.00    -0.282 N 
HETATM   24  H   UNL     1     -39.692  49.959 -55.083  1.00  0.00     0.189 HD
HETATM   25  N   UNL     1     -39.579  49.459 -53.124  1.00  0.00    -0.179 NA
HETATM   26  C   UNL     1     -39.640  50.225 -52.031  1.00  0.00     0.060 A 
HETATM   27  C   UNL     1     -39.523  49.618 -50.680  1.00  0.00     0.073 C 
ENDBRANCH  19  20
ENDBRANCH   1  19
TORSDOF 5
ENDMDL
MODEL 10
REMARK VINA RESULT:      -7.4     15.405     18.050
REMARK  5 active torsions:
REMARK  status: ('A' for Active; 'I' for Inactive)
REMARK    1  A    between atoms: C_8  and  C_9 
REMARK    2  A    between atoms: C_9  and  N_10 
REMARK       I    between atoms: N_10  and  C_11 
REMARK       I    between atoms: C_11  and  N_12 
REMARK    3  A    between atoms: C_13  and  C_14 
REMARK    4  A    between atoms: C_14  and  C_15 
REMARK    5  A    between atoms: C_15  and  C_16 
ROOT
HETATM    1  N   UNL     1     -35.384  38.877 -57.134  1.00  0.00    -0.339 N 
HETATM    2  C   UNL     1     -36.539  38.193 -57.392  1.00  0.00     0.318 C 
HETATM    3  N   UNL     1     -37.249  38.614 -58.505  1.00  0.00    -0.330 N 
HETATM    4  C   UNL     1     -36.844  39.679 -59.450  1.00  0.00     0.089 C 
HETATM    5  C   UNL     1     -36.875  39.143 -60.894  1.00  0.00     0.025 C 
HETATM    6  C   UNL     1     -38.193  38.458 -61.247  1.00  0.00     0.004 C 
HETATM    7  C   UNL     1     -38.525  37.376 -60.224  1.00  0.00     0.020 C 
HETATM    8  C   UNL     1     -38.513  37.934 -58.805  1.00  0.00     0.128 C 
HETATM    9  O   UNL     1     -36.892  37.252 -56.685  1.00  0.00    -0.247 OA
HETATM   10  H   UNL     1     -35.370  39.853 -57.369  1.00  0.00     0.164 HD
ENDROOT
BRANCH   4  11
HETATM   11  C   UNL     1     -37.708  40.949 -59.296  1.00  0.00     0.030 C 
BRANCH  11  12
HETATM   12  C   UNL     1     -36.896  42.165 -58.839  1.00  0.00     0.040 C 
BRANCH  12  13
HETATM   13  C   UNL     1     -36.600  42.113 -57.361  1.00  0.00    -0.058 A 
HETATM   14  C   UNL     1     -35.329  42.459 -56.884  1.00  0.00     0.007 A 
HETATM   15  C   UNL     1     -35.045  42.397 -55.519  1.00  0.00     0.001 A 
HETATM   16  C   UNL     1     -36.028  41.984 -54.621  1.00  0.00     0.000 A 
HETATM   17  C   UNL     1     -37.293  41.631 -55.087  1.00  0.00     0.001 A 
HETATM   18  C   UNL     1     -37.579  41.691 -56.452  1.00  0.00     0.007 A 
ENDBRANCH  12  13
ENDBRANCH  11  12
ENDBRANCH   4  11
BRANCH   1  19
HETATM   19  C   UNL     1     -34.559  38.511 -56.006  1.00  0.00     0.167 C 
BRANCH  19  20
HETATM   20  C   UNL     1     -33.159  38.895 -56.326  1.00  0.00     0.009 A 
HETATM   21  C   UNL     1     -32.390  38.547 -57.422  1.00  0.00     0.034 A 
HETATM   22  C   UNL     1     -32.679  37.710 -58.610  1.00  0.00     0.070 C 
HETATM   23  N   UNL     1     -31.183  39.161 -57.243  1.00  0.00    -0.282 N 
HETATM   24  H   UNL     1     -30.371  39.141 -57.851  1.00  0.00     0.189 HD
HETATM   25  N   UNL     1     -31.099  39.867 -56.107  1.00  0.00    -0.179 NA
HETATM   26  C   UNL     1     -32.303  39.721 -55.544  1.00  0.00     0.060 A 
HETATM   27  C   UNL     1     -32.606  40.368 -54.242  1.00  0.00     0.073 C 
ENDBRANCH  19  20
ENDBRANCH   1  19
TORSDOF 5
ENDMDL
