MODEL 1
REMARK VINA RESULT:      -8.7      0.000      0.000
REMARK  10 active torsions:
REMARK  status: ('A' for Active; 'I' for Inactive)
REMARK    1  A    between atoms: C_4  and  C_5 
REMARK    2  A    between atoms: C_5  and  C_6 
REMARK    3  A    between atoms: C_6  and  N_7 
REMARK    4  A    between atoms: C_6  and  C_15 
REMARK       I    between atoms: N_7  and  C_8 
REMARK    5  A    between atoms: C_8  and  C_9 
REMARK       I    between atoms: C_15  and  N_16 
REMARK    6  A    between atoms: N_16  and  C_17 
REMARK    7  A    between atoms: C_17  and  C_18 
REMARK    8  A    between atoms: C_18  and  C_19 
REMARK    9  A    between atoms: C_21  and  O_22 
REMARK   10  A    between atoms: C_23  and  O_24 
ROOT
HETATM    1  C   UNL     1     -41.874  54.784 -53.179  1.00  0.00     0.181 C 
ENDROOT
BRANCH   1   2
HETATM    2  C   UNL     1     -40.520  54.211 -53.649  1.00  0.00     0.073 C 
BRANCH   2   3
HETATM    3  C   UNL     1     -40.293  52.734 -53.406  1.00  0.00    -0.056 A 
HETATM    4  C   UNL     1     -40.360  51.794 -54.446  1.00  0.00     0.007 A 
HETATM    5  C   UNL     1     -40.054  50.451 -54.216  1.00  0.00     0.001 A 
HETATM    6  C   UNL     1     -39.656  50.031 -52.949  1.00  0.00     0.000 A 
HETATM    7  C   UNL     1     -39.568  50.954 -51.910  1.00  0.00     0.001 A 
HETATM    8  C   UNL     1     -39.884  52.296 -52.137  1.00  0.00     0.007 A 
ENDBRANCH   2   3
ENDBRANCH   1   2
BRANCH   1   9
HETATM    9  N   UNL     1     -41.775  56.004 -52.370  1.00  0.00    -0.342 N 
HETATM   10  C   UNL     1     -41.390  57.244 -52.818  1.00  0.00     0.276 C 
HETATM   11  O   UNL     1     -41.205  57.473 -54.012  1.00  0.00    -0.265 OA
HETATM   12  H   UNL     1     -41.861  55.908 -51.363  1.00  0.00     0.163 HD
BRANCH  10  13
HETATM   13  C   UNL     1     -41.294  58.246 -51.779  1.00  0.00     0.142 A 
HETATM   14  O   UNL     1     -42.088  59.365 -51.848  1.00  0.00    -0.317 OA
HETATM   15  C   UNL     1     -41.786  60.137 -50.772  1.00  0.00     0.143 A 
HETATM   16  C   UNL     1     -40.809  59.543 -50.010  1.00  0.00     0.027 A 
HETATM   17  C   UNL     1     -40.492  58.322 -50.655  1.00  0.00     0.045 A 
ENDBRANCH  10  13
ENDBRANCH   1   9
BRANCH   1  18
HETATM   18  C   UNL     1     -42.818  54.856 -54.400  1.00  0.00     0.240 C 
HETATM   19  N   UNL     1     -42.237  55.094 -55.626  1.00  0.00    -0.359 N 
HETATM   20  H   UNL     1     -41.223  55.046 -55.659  1.00  0.00     0.162 HD
HETATM   21  O   UNL     1     -44.011  54.567 -54.290  1.00  0.00    -0.271 OA
BRANCH  19  22
HETATM   22  C   UNL     1     -42.971  54.844 -56.855  1.00  0.00     0.127 C 
BRANCH  22  23
HETATM   23  C   UNL     1     -43.169  56.094 -57.720  1.00  0.00     0.058 C 
BRANCH  23  24
HETATM   24  C   UNL     1     -44.163  56.043 -58.864  1.00  0.00    -0.054 A 
HETATM   25  C   UNL     1     -44.063  55.167 -59.953  1.00  0.00     0.046 A 
HETATM   26  C   UNL     1     -44.993  55.233 -60.988  1.00  0.00     0.099 A 
HETATM   27  C   UNL     1     -46.054  56.129 -60.931  1.00  0.00     0.098 A 
HETATM   28  C   UNL     1     -46.192  56.987 -59.855  1.00  0.00     0.040 A 
HETATM   29  C   UNL     1     -45.244  56.949 -58.829  1.00  0.00     0.010 A 
BRANCH  26  30
HETATM   30  O   UNL     1     -44.886  54.436 -62.096  1.00  0.00    -0.358 OA
HETATM   31  H   UNL     1     -45.510  54.780 -62.762  1.00  0.00     0.218 HD
ENDBRANCH  26  30
BRANCH  27  32
HETATM   32  O   UNL     1     -46.965  56.173 -61.946  1.00  0.00    -0.358 OA
HETATM   33  H   UNL     1     -46.432  56.378 -62.739  1.00  0.00     0.218 HD
ENDBRANCH  27  32
ENDBRANCH  23  24
ENDBRANCH  22  23
ENDBRANCH  19  22
ENDBRANCH   1  18
TORSDOF 10
ENDMDL
MODEL 2
REMARK VINA RESULT:      -8.3      2.694      8.161
REMARK  10 active torsions:
REMARK  status: ('A' for Active; 'I' for Inactive)
REMARK    1  A    between atoms: C_4  and  C_5 
REMARK    2  A    between atoms: C_5  and  C_6 
REMARK    3  A    between atoms: C_6  and  N_7 
REMARK    4  A    between atoms: C_6  and  C_15 
REMARK       I    between atoms: N_7  and  C_8 
REMARK    5  A    between atoms: C_8  and  C_9 
REMARK       I    between atoms: C_15  and  N_16 
REMARK    6  A    between atoms: N_16  and  C_17 
REMARK    7  A    between atoms: C_17  and  C_18 
REMARK    8  A    between atoms: C_18  and  C_19 
REMARK    9  A    between atoms: C_21  and  O_22 
REMARK   10  A    between atoms: C_23  and  O_24 
ROOT
HETATM    1  C   UNL     1     -43.346  56.361 -52.797  1.00  0.00     0.181 C 
ENDROOT
BRANCH   1   2
HETATM    2  C   UNL     1     -42.629  57.566 -52.154  1.00  0.00     0.073 C 
BRANCH   2   3
HETATM    3  C   UNL     1     -43.501  58.541 -51.391  1.00  0.00    -0.056 A 
HETATM    4  C   UNL     1     -43.016  59.784 -50.956  1.00  0.00     0.007 A 
HETATM    5  C   UNL     1     -43.864  60.705 -50.337  1.00  0.00     0.001 A 
HETATM    6  C   UNL     1     -45.214  60.407 -50.164  1.00  0.00     0.000 A 
HETATM    7  C   UNL     1     -45.715  59.185 -50.607  1.00  0.00     0.001 A 
HETATM    8  C   UNL     1     -44.865  58.259 -51.216  1.00  0.00     0.007 A 
ENDBRANCH   2   3
ENDBRANCH   1   2
BRANCH   1   9
HETATM    9  N   UNL     1     -43.351  56.362 -54.264  1.00  0.00    -0.342 N 
HETATM   10  C   UNL     1     -42.261  56.175 -55.079  1.00  0.00     0.276 C 
HETATM   11  O   UNL     1     -41.162  55.856 -54.628  1.00  0.00    -0.265 OA
HETATM   12  H   UNL     1     -44.201  56.664 -54.730  1.00  0.00     0.163 HD
BRANCH  10  13
HETATM   13  C   UNL     1     -42.545  56.319 -56.490  1.00  0.00     0.142 A 
HETATM   14  O   UNL     1     -42.367  57.542 -57.090  1.00  0.00    -0.317 OA
HETATM   15  C   UNL     1     -42.719  57.402 -58.394  1.00  0.00     0.143 A 
HETATM   16  C   UNL     1     -43.126  56.115 -58.650  1.00  0.00     0.027 A 
HETATM   17  C   UNL     1     -43.013  55.414 -57.424  1.00  0.00     0.045 A 
ENDBRANCH  10  13
ENDBRANCH   1   9
BRANCH   1  18
HETATM   18  C   UNL     1     -42.822  55.072 -52.123  1.00  0.00     0.240 C 
HETATM   19  N   UNL     1     -41.582  55.137 -51.530  1.00  0.00    -0.359 N 
HETATM   20  H   UNL     1     -41.175  56.063 -51.440  1.00  0.00     0.162 HD
HETATM   21  O   UNL     1     -43.552  54.086 -52.003  1.00  0.00    -0.271 OA
BRANCH  19  22
HETATM   22  C   UNL     1     -41.154  54.111 -50.593  1.00  0.00     0.127 C 
BRANCH  22  23
HETATM   23  C   UNL     1     -39.846  53.419 -50.991  1.00  0.00     0.058 C 
BRANCH  23  24
HETATM   24  C   UNL     1     -39.894  52.285 -51.996  1.00  0.00    -0.054 A 
HETATM   25  C   UNL     1     -39.589  50.951 -51.691  1.00  0.00     0.046 A 
HETATM   26  C   UNL     1     -39.604  49.986 -52.695  1.00  0.00     0.099 A 
HETATM   27  C   UNL     1     -39.967  50.321 -53.994  1.00  0.00     0.098 A 
HETATM   28  C   UNL     1     -40.297  51.625 -54.318  1.00  0.00     0.040 A 
HETATM   29  C   UNL     1     -40.252  52.604 -53.322  1.00  0.00     0.010 A 
BRANCH  26  30
HETATM   30  O   UNL     1     -39.248  48.689 -52.443  1.00  0.00    -0.358 OA
HETATM   31  H   UNL     1     -39.646  48.137 -53.143  1.00  0.00     0.218 HD
ENDBRANCH  26  30
BRANCH  27  32
HETATM   32  O   UNL     1     -39.989  49.362 -54.965  1.00  0.00    -0.358 OA
HETATM   33  H   UNL     1     -40.898  49.002 -54.927  1.00  0.00     0.218 HD
ENDBRANCH  27  32
ENDBRANCH  23  24
ENDBRANCH  22  23
ENDBRANCH  19  22
ENDBRANCH   1  18
TORSDOF 10
ENDMDL
MODEL 3
REMARK VINA RESULT:      -8.2      2.487      3.771
REMARK  10 active torsions:
REMARK  status: ('A' for Active; 'I' for Inactive)
REMARK    1  A    between atoms: C_4  and  C_5 
REMARK    2  A    between atoms: C_5  and  C_6 
REMARK    3  A    between atoms: C_6  and  N_7 
REMARK    4  A    between atoms: C_6  and  C_15 
REMARK       I    between atoms: N_7  and  C_8 
REMARK    5  A    between atoms: C_8  and  C_9 
REMARK       I    between atoms: C_15  and  N_16 
REMARK    6  A    between atoms: N_16  and  C_17 
REMARK    7  A    between atoms: C_17  and  C_18 
REMARK    8  A    between atoms: C_18  and  C_19 
REMARK    9  A    between atoms: C_21  and  O_22 
REMARK   10  A    between atoms: C_23  and  O_24 
ROOT
HETATM    1  C   UNL     1     -41.668  54.196 -54.140  1.00  0.00     0.181 C 
ENDROOT
BRANCH   1   2
HETATM    2  C   UNL     1     -40.446  53.390 -54.628  1.00  0.00     0.073 C 
BRANCH   2   3
HETATM    3  C   UNL     1     -40.070  52.172 -53.811  1.00  0.00    -0.056 A 
HETATM    4  C   UNL     1     -39.859  52.247 -52.426  1.00  0.00     0.007 A 
HETATM    5  C   UNL     1     -39.606  51.094 -51.679  1.00  0.00     0.001 A 
HETATM    6  C   UNL     1     -39.581  49.848 -52.301  1.00  0.00     0.000 A 
HETATM    7  C   UNL     1     -39.807  49.756 -53.673  1.00  0.00     0.001 A 
HETATM    8  C   UNL     1     -40.049  50.909 -54.422  1.00  0.00     0.007 A 
ENDBRANCH   2   3
ENDBRANCH   1   2
BRANCH   1   9
HETATM    9  N   UNL     1     -41.341  55.377 -53.335  1.00  0.00    -0.342 N 
HETATM   10  C   UNL     1     -42.233  56.156 -52.637  1.00  0.00     0.276 C 
HETATM   11  O   UNL     1     -43.417  55.843 -52.526  1.00  0.00    -0.265 OA
HETATM   12  H   UNL     1     -40.397  55.744 -53.401  1.00  0.00     0.163 HD
BRANCH  10  13
HETATM   13  C   UNL     1     -41.640  57.314 -52.005  1.00  0.00     0.142 A 
HETATM   14  O   UNL     1     -41.674  58.525 -52.652  1.00  0.00    -0.317 OA
HETATM   15  C   UNL     1     -41.039  59.423 -51.855  1.00  0.00     0.143 A 
HETATM   16  C   UNL     1     -40.590  58.816 -50.706  1.00  0.00     0.027 A 
HETATM   17  C   UNL     1     -40.978  57.457 -50.799  1.00  0.00     0.045 A 
ENDBRANCH  10  13
ENDBRANCH   1   9
BRANCH   1  18
HETATM   18  C   UNL     1     -42.602  54.437 -55.348  1.00  0.00     0.240 C 
HETATM   19  N   UNL     1     -42.204  55.383 -56.265  1.00  0.00    -0.359 N 
HETATM   20  H   UNL     1     -41.257  55.736 -56.166  1.00  0.00     0.162 HD
HETATM   21  O   UNL     1     -43.576  53.708 -55.543  1.00  0.00    -0.271 OA
BRANCH  19  22
HETATM   22  C   UNL     1     -42.818  55.443 -57.582  1.00  0.00     0.127 C 
BRANCH  22  23
HETATM   23  C   UNL     1     -43.591  56.739 -57.845  1.00  0.00     0.058 C 
BRANCH  23  24
HETATM   24  C   UNL     1     -42.881  58.066 -57.664  1.00  0.00    -0.054 A 
HETATM   25  C   UNL     1     -42.611  58.648 -56.418  1.00  0.00     0.046 A 
HETATM   26  C   UNL     1     -42.004  59.901 -56.352  1.00  0.00     0.099 A 
HETATM   27  C   UNL     1     -41.616  60.563 -57.511  1.00  0.00     0.098 A 
HETATM   28  C   UNL     1     -41.848  59.999 -58.753  1.00  0.00     0.040 A 
HETATM   29  C   UNL     1     -42.486  58.758 -58.828  1.00  0.00     0.010 A 
BRANCH  26  30
HETATM   30  O   UNL     1     -41.785  60.525 -55.154  1.00  0.00    -0.358 OA
HETATM   31  H   UNL     1     -42.512  61.161 -55.021  1.00  0.00     0.218 HD
ENDBRANCH  26  30
BRANCH  27  32
HETATM   32  O   UNL     1     -41.012  61.783 -57.430  1.00  0.00    -0.358 OA
HETATM   33  H   UNL     1     -40.616  61.797 -56.536  1.00  0.00     0.218 HD
ENDBRANCH  27  32
ENDBRANCH  23  24
ENDBRANCH  22  23
ENDBRANCH  19  22
ENDBRANCH   1  18
TORSDOF 10
ENDMDL
MODEL 4
REMARK VINA RESULT:      -8.1      3.238      7.510
REMARK  10 active torsions:
REMARK  status: ('A' for Active; 'I' for Inactive)
REMARK    1  A    between atoms: C_4  and  C_5 
REMARK    2  A    between atoms: C_5  and  C_6 
REMARK    3  A    between atoms: C_6  and  N_7 
REMARK    4  A    between atoms: C_6  and  C_15 
REMARK       I    between atoms: N_7  and  C_8 
REMARK    5  A    between atoms: C_8  and  C_9 
REMARK       I    between atoms: C_15  and  N_16 
REMARK    6  A    between atoms: N_16  and  C_17 
REMARK    7  A    between atoms: C_17  and  C_18 
REMARK    8  A    between atoms: C_18  and  C_19 
REMARK    9  A    between atoms: C_21  and  O_22 
REMARK   10  A    between atoms: C_23  and  O_24 
ROOT
HETATM    1  C   UNL     1     -42.138  57.416 -54.892  1.00  0.00     0.181 C 
ENDROOT
BRANCH   1   2
HETATM    2  C   UNL     1     -43.273  57.008 -55.854  1.00  0.00     0.073 C 
BRANCH   2   3
HETATM    3  C   UNL     1     -42.953  57.056 -57.333  1.00  0.00    -0.056 A 
HETATM    4  C   UNL     1     -42.280  58.144 -57.910  1.00  0.00     0.007 A 
HETATM    5  C   UNL     1     -41.913  58.124 -59.257  1.00  0.00     0.001 A 
HETATM    6  C   UNL     1     -42.194  57.009 -60.043  1.00  0.00     0.000 A 
HETATM    7  C   UNL     1     -42.846  55.914 -59.481  1.00  0.00     0.001 A 
HETATM    8  C   UNL     1     -43.223  55.937 -58.137  1.00  0.00     0.007 A 
ENDBRANCH   2   3
ENDBRANCH   1   2
BRANCH   1   9
HETATM    9  N   UNL     1     -42.535  58.358 -53.840  1.00  0.00    -0.342 N 
HETATM   10  C   UNL     1     -41.724  59.287 -53.235  1.00  0.00     0.276 C 
HETATM   11  O   UNL     1     -40.577  59.498 -53.627  1.00  0.00    -0.265 OA
HETATM   12  H   UNL     1     -43.449  58.230 -53.416  1.00  0.00     0.163 HD
BRANCH  10  13
HETATM   13  C   UNL     1     -42.361  60.022 -52.164  1.00  0.00     0.142 A 
HETATM   14  O   UNL     1     -43.567  60.637 -52.395  1.00  0.00    -0.317 OA
HETATM   15  C   UNL     1     -43.924  61.262 -51.243  1.00  0.00     0.143 A 
HETATM   16  C   UNL     1     -42.971  61.068 -50.272  1.00  0.00     0.027 A 
HETATM   17  C   UNL     1     -41.963  60.267 -50.863  1.00  0.00     0.045 A 
ENDBRANCH  10  13
ENDBRANCH   1   9
BRANCH   1  18
HETATM   18  C   UNL     1     -41.424  56.130 -54.414  1.00  0.00     0.240 C 
HETATM   19  N   UNL     1     -40.885  55.318 -55.386  1.00  0.00    -0.359 N 
HETATM   20  H   UNL     1     -40.857  55.700 -56.327  1.00  0.00     0.162 HD
HETATM   21  O   UNL     1     -41.227  55.931 -53.214  1.00  0.00    -0.271 OA
BRANCH  19  22
HETATM   22  C   UNL     1     -39.918  54.289 -55.040  1.00  0.00     0.127 C 
BRANCH  22  23
HETATM   23  C   UNL     1     -40.502  52.873 -55.023  1.00  0.00     0.058 C 
BRANCH  23  24
HETATM   24  C   UNL     1     -40.227  51.982 -53.828  1.00  0.00    -0.054 A 
HETATM   25  C   UNL     1     -40.310  52.407 -52.495  1.00  0.00     0.046 A 
HETATM   26  C   UNL     1     -39.981  51.531 -51.462  1.00  0.00     0.099 A 
HETATM   27  C   UNL     1     -39.616  50.218 -51.736  1.00  0.00     0.098 A 
HETATM   28  C   UNL     1     -39.551  49.765 -53.042  1.00  0.00     0.040 A 
HETATM   29  C   UNL     1     -39.847  50.647 -54.083  1.00  0.00     0.010 A 
BRANCH  26  30
HETATM   30  O   UNL     1     -39.989  51.934 -50.155  1.00  0.00    -0.358 OA
HETATM   31  H   UNL     1     -39.062  51.975 -49.857  1.00  0.00     0.218 HD
ENDBRANCH  26  30
BRANCH  27  32
HETATM   32  O   UNL     1     -39.310  49.368 -50.714  1.00  0.00    -0.358 OA
HETATM   33  H   UNL     1     -38.860  49.935 -50.056  1.00  0.00     0.218 HD
ENDBRANCH  27  32
ENDBRANCH  23  24
ENDBRANCH  22  23
ENDBRANCH  19  22
ENDBRANCH   1  18
TORSDOF 10
ENDMDL
MODEL 5
REMARK VINA RESULT:      -8.1      2.796      7.511
REMARK  10 active torsions:
REMARK  status: ('A' for Active; 'I' for Inactive)
REMARK    1  A    between atoms: C_4  and  C_5 
REMARK    2  A    between atoms: C_5  and  C_6 
REMARK    3  A    between atoms: C_6  and  N_7 
REMARK    4  A    between atoms: C_6  and  C_15 
REMARK       I    between atoms: N_7  and  C_8 
REMARK    5  A    between atoms: C_8  and  C_9 
REMARK       I    between atoms: C_15  and  N_16 
REMARK    6  A    between atoms: N_16  and  C_17 
REMARK    7  A    between atoms: C_17  and  C_18 
REMARK    8  A    between atoms: C_18  and  C_19 
REMARK    9  A    between atoms: C_21  and  O_22 
REMARK   10  A    between atoms: C_23  and  O_24 
ROOT
HETATM    1  C   UNL     1     -44.282  56.594 -54.450  1.00  0.00     0.181 C 
ENDROOT
BRANCH   1   2
HETATM    2  C   UNL     1     -43.454  57.573 -53.592  1.00  0.00     0.073 C 
BRANCH   2   3
HETATM    3  C   UNL     1     -42.849  57.012 -52.323  1.00  0.00    -0.056 A 
HETATM    4  C   UNL     1     -43.490  56.012 -51.577  1.00  0.00     0.007 A 
HETATM    5  C   UNL     1     -42.869  55.443 -50.462  1.00  0.00     0.001 A 
HETATM    6  C   UNL     1     -41.591  55.851 -50.089  1.00  0.00     0.000 A 
HETATM    7  C   UNL     1     -40.934  56.830 -50.830  1.00  0.00     0.001 A 
HETATM    8  C   UNL     1     -41.558  57.407 -51.939  1.00  0.00     0.007 A 
ENDBRANCH   2   3
ENDBRANCH   1   2
BRANCH   1   9
HETATM    9  N   UNL     1     -44.996  57.214 -55.571  1.00  0.00    -0.342 N 
HETATM   10  C   UNL     1     -44.424  57.881 -56.627  1.00  0.00     0.276 C 
HETATM   11  O   UNL     1     -43.205  57.910 -56.792  1.00  0.00    -0.265 OA
HETATM   12  H   UNL     1     -46.006  57.285 -55.503  1.00  0.00     0.163 HD
BRANCH  10  13
HETATM   13  C   UNL     1     -45.377  58.472 -57.542  1.00  0.00     0.142 A 
HETATM   14  O   UNL     1     -44.959  59.454 -58.406  1.00  0.00    -0.317 OA
HETATM   15  C   UNL     1     -46.044  59.840 -59.127  1.00  0.00     0.143 A 
HETATM   16  C   UNL     1     -47.157  59.130 -58.744  1.00  0.00     0.027 A 
HETATM   17  C   UNL     1     -46.729  58.245 -57.723  1.00  0.00     0.045 A 
ENDBRANCH  10  13
ENDBRANCH   1   9
BRANCH   1  18
HETATM   18  C   UNL     1     -43.386  55.385 -54.804  1.00  0.00     0.240 C 
HETATM   19  N   UNL     1     -42.069  55.650 -55.103  1.00  0.00    -0.359 N 
HETATM   20  H   UNL     1     -41.747  56.595 -54.915  1.00  0.00     0.162 HD
HETATM   21  O   UNL     1     -43.807  54.233 -54.676  1.00  0.00    -0.271 OA
BRANCH  19  22
HETATM   22  C   UNL     1     -41.081  54.584 -55.112  1.00  0.00     0.127 C 
BRANCH  22  23
HETATM   23  C   UNL     1     -40.574  54.200 -53.717  1.00  0.00     0.058 C 
BRANCH  23  24
HETATM   24  C   UNL     1     -40.223  52.752 -53.438  1.00  0.00    -0.054 A 
HETATM   25  C   UNL     1     -40.249  51.737 -54.405  1.00  0.00     0.046 A 
HETATM   26  C   UNL     1     -39.967  50.422 -54.042  1.00  0.00     0.099 A 
HETATM   27  C   UNL     1     -39.610  50.109 -52.735  1.00  0.00     0.098 A 
HETATM   28  C   UNL     1     -39.552  51.095 -51.767  1.00  0.00     0.040 A 
HETATM   29  C   UNL     1     -39.866  52.411 -52.117  1.00  0.00     0.010 A 
BRANCH  26  30
HETATM   30  O   UNL     1     -40.047  49.399 -54.947  1.00  0.00    -0.358 OA
HETATM   31  H   UNL     1     -40.539  48.672 -54.522  1.00  0.00     0.218 HD
ENDBRANCH  26  30
BRANCH  27  32
HETATM   32  O   UNL     1     -39.324  48.818 -52.397  1.00  0.00    -0.358 OA
HETATM   33  H   UNL     1     -39.323  48.821 -51.419  1.00  0.00     0.218 HD
ENDBRANCH  27  32
ENDBRANCH  23  24
ENDBRANCH  22  23
ENDBRANCH  19  22
ENDBRANCH   1  18
TORSDOF 10
ENDMDL
MODEL 6
REMARK VINA RESULT:      -8.1      1.599      5.360
REMARK  10 active torsions:
REMARK  status: ('A' for Active; 'I' for Inactive)
REMARK    1  A    between atoms: C_4  and  C_5 
REMARK    2  A    between atoms: C_5  and  C_6 
REMARK    3  A    between atoms: C_6  and  N_7 
REMARK    4  A    between atoms: C_6  and  C_15 
REMARK       I    between atoms: N_7  and  C_8 
REMARK    5  A    between atoms: C_8  and  C_9 
REMARK       I    between atoms: C_15  and  N_16 
REMARK    6  A    between atoms: N_16  and  C_17 
REMARK    7  A    between atoms: C_17  and  C_18 
REMARK    8  A    between atoms: C_18  and  C_19 
REMARK    9  A    between atoms: C_21  and  O_22 
REMARK   10  A    between atoms: C_23  and  O_24 
ROOT
HETATM    1  C   UNL     1     -41.679  54.953 -52.944  1.00  0.00     0.181 C 
ENDROOT
BRANCH   1   2
HETATM    2  C   UNL     1     -42.288  55.659 -51.714  1.00  0.00     0.073 C 
BRANCH   2   3
HETATM    3  C   UNL     1     -41.965  57.129 -51.551  1.00  0.00    -0.056 A 
HETATM    4  C   UNL     1     -42.798  58.132 -52.069  1.00  0.00     0.007 A 
HETATM    5  C   UNL     1     -42.529  59.480 -51.826  1.00  0.00     0.001 A 
HETATM    6  C   UNL     1     -41.436  59.846 -51.044  1.00  0.00     0.000 A 
HETATM    7  C   UNL     1     -40.609  58.861 -50.508  1.00  0.00     0.001 A 
HETATM    8  C   UNL     1     -40.871  57.513 -50.760  1.00  0.00     0.007 A 
ENDBRANCH   2   3
ENDBRANCH   1   2
BRANCH   1   9
HETATM    9  N   UNL     1     -41.110  53.629 -52.670  1.00  0.00    -0.342 N 
HETATM   10  C   UNL     1     -40.339  52.885 -53.530  1.00  0.00     0.276 C 
HETATM   11  O   UNL     1     -39.945  53.337 -54.604  1.00  0.00    -0.265 OA
HETATM   12  H   UNL     1     -41.417  53.150 -51.829  1.00  0.00     0.163 HD
BRANCH  10  13
HETATM   13  C   UNL     1     -39.990  51.573 -53.028  1.00  0.00     0.142 A 
HETATM   14  O   UNL     1     -39.767  51.405 -51.684  1.00  0.00    -0.317 OA
HETATM   15  C   UNL     1     -39.442  50.100 -51.492  1.00  0.00     0.143 A 
HETATM   16  C   UNL     1     -39.446  49.421 -52.686  1.00  0.00     0.027 A 
HETATM   17  C   UNL     1     -39.801  50.368 -53.678  1.00  0.00     0.045 A 
ENDBRANCH  10  13
ENDBRANCH   1   9
BRANCH   1  18
HETATM   18  C   UNL     1     -42.705  55.023 -54.098  1.00  0.00     0.240 C 
HETATM   19  N   UNL     1     -42.204  55.197 -55.369  1.00  0.00    -0.359 N 
HETATM   20  H   UNL     1     -41.198  55.107 -55.471  1.00  0.00     0.162 HD
HETATM   21  O   UNL     1     -43.897  54.785 -53.894  1.00  0.00    -0.271 OA
BRANCH  19  22
HETATM   22  C   UNL     1     -43.033  54.937 -56.534  1.00  0.00     0.127 C 
BRANCH  22  23
HETATM   23  C   UNL     1     -42.980  56.047 -57.590  1.00  0.00     0.058 C 
BRANCH  23  24
HETATM   24  C   UNL     1     -43.979  56.022 -58.730  1.00  0.00    -0.054 A 
HETATM   25  C   UNL     1     -43.940  55.105 -59.788  1.00  0.00     0.046 A 
HETATM   26  C   UNL     1     -44.867  55.196 -60.824  1.00  0.00     0.099 A 
HETATM   27  C   UNL     1     -45.867  56.161 -60.797  1.00  0.00     0.098 A 
HETATM   28  C   UNL     1     -45.945  57.063 -59.750  1.00  0.00     0.040 A 
HETATM   29  C   UNL     1     -44.997  56.998 -58.725  1.00  0.00     0.010 A 
BRANCH  26  30
HETATM   30  O   UNL     1     -44.816  54.357 -61.904  1.00  0.00    -0.358 OA
HETATM   31  H   UNL     1     -45.639  53.834 -61.905  1.00  0.00     0.218 HD
ENDBRANCH  26  30
BRANCH  27  32
HETATM   32  O   UNL     1     -46.777  56.231 -61.811  1.00  0.00    -0.358 OA
HETATM   33  H   UNL     1     -46.521  57.034 -62.309  1.00  0.00     0.218 HD
ENDBRANCH  27  32
ENDBRANCH  23  24
ENDBRANCH  22  23
ENDBRANCH  19  22
ENDBRANCH   1  18
TORSDOF 10
ENDMDL
MODEL 7
REMARK VINA RESULT:      -8.1      1.859      2.398
REMARK  10 active torsions:
REMARK  status: ('A' for Active; 'I' for Inactive)
REMARK    1  A    between atoms: C_4  and  C_5 
REMARK    2  A    between atoms: C_5  and  C_6 
REMARK    3  A    between atoms: C_6  and  N_7 
REMARK    4  A    between atoms: C_6  and  C_15 
REMARK       I    between atoms: N_7  and  C_8 
REMARK    5  A    between atoms: C_8  and  C_9 
REMARK       I    between atoms: C_15  and  N_16 
REMARK    6  A    between atoms: N_16  and  C_17 
REMARK    7  A    between atoms: C_17  and  C_18 
REMARK    8  A    between atoms: C_18  and  C_19 
REMARK    9  A    between atoms: C_21  and  O_22 
REMARK   10  A    between atoms: C_23  and  O_24 
ROOT
HETATM    1  C   UNL     1     -43.447  55.164 -53.019  1.00  0.00     0.181 C 
ENDROOT
BRANCH   1   2
HETATM    2  C   UNL     1     -43.239  53.913 -52.139  1.00  0.00     0.073 C 
BRANCH   2   3
HETATM    3  C   UNL     1     -42.064  53.948 -51.184  1.00  0.00    -0.056 A 
HETATM    4  C   UNL     1     -40.778  53.548 -51.577  1.00  0.00     0.007 A 
HETATM    5  C   UNL     1     -39.692  53.678 -50.709  1.00  0.00     0.001 A 
HETATM    6  C   UNL     1     -39.872  54.228 -49.442  1.00  0.00     0.000 A 
HETATM    7  C   UNL     1     -41.139  54.647 -49.043  1.00  0.00     0.001 A 
HETATM    8  C   UNL     1     -42.227  54.508 -49.907  1.00  0.00     0.007 A 
ENDBRANCH   2   3
ENDBRANCH   1   2
BRANCH   1   9
HETATM    9  N   UNL     1     -42.862  56.396 -52.480  1.00  0.00    -0.342 N 
HETATM   10  C   UNL     1     -43.485  57.292 -51.645  1.00  0.00     0.276 C 
HETATM   11  O   UNL     1     -44.593  57.064 -51.162  1.00  0.00    -0.265 OA
HETATM   12  H   UNL     1     -41.969  56.696 -52.857  1.00  0.00     0.163 HD
BRANCH  10  13
HETATM   13  C   UNL     1     -42.698  58.468 -51.344  1.00  0.00     0.142 A 
HETATM   14  O   UNL     1     -43.296  59.704 -51.378  1.00  0.00    -0.317 OA
HETATM   15  C   UNL     1     -42.339  60.620 -51.079  1.00  0.00     0.143 A 
HETATM   16  C   UNL     1     -41.131  60.002 -50.857  1.00  0.00     0.027 A 
HETATM   17  C   UNL     1     -41.361  58.615 -51.026  1.00  0.00     0.045 A 
ENDBRANCH  10  13
ENDBRANCH   1   9
BRANCH   1  18
HETATM   18  C   UNL     1     -43.051  54.805 -54.470  1.00  0.00     0.240 C 
HETATM   19  N   UNL     1     -43.445  55.678 -55.458  1.00  0.00    -0.359 N 
HETATM   20  H   UNL     1     -43.824  56.568 -55.148  1.00  0.00     0.162 HD
HETATM   21  O   UNL     1     -42.295  53.859 -54.698  1.00  0.00    -0.271 OA
BRANCH  19  22
HETATM   22  C   UNL     1     -42.845  55.619 -56.781  1.00  0.00     0.127 C 
BRANCH  22  23
HETATM   23  C   UNL     1     -43.261  56.773 -57.700  1.00  0.00     0.058 C 
BRANCH  23  24
HETATM   24  C   UNL     1     -44.249  56.501 -58.817  1.00  0.00    -0.054 A 
HETATM   25  C   UNL     1     -44.064  55.530 -59.810  1.00  0.00     0.046 A 
HETATM   26  C   UNL     1     -45.000  55.391 -60.832  1.00  0.00     0.099 A 
HETATM   27  C   UNL     1     -46.148  56.175 -60.853  1.00  0.00     0.098 A 
HETATM   28  C   UNL     1     -46.369  57.123 -59.870  1.00  0.00     0.040 A 
HETATM   29  C   UNL     1     -45.418  57.291 -58.861  1.00  0.00     0.010 A 
BRANCH  26  30
HETATM   30  O   UNL     1     -44.817  54.498 -61.853  1.00  0.00    -0.358 OA
HETATM   31  H   UNL     1     -45.497  53.806 -61.759  1.00  0.00     0.218 HD
ENDBRANCH  26  30
BRANCH  27  32
HETATM   32  O   UNL     1     -47.063  56.020 -61.853  1.00  0.00    -0.358 OA
HETATM   33  H   UNL     1     -47.561  55.216 -61.600  1.00  0.00     0.218 HD
ENDBRANCH  27  32
ENDBRANCH  23  24
ENDBRANCH  22  23
ENDBRANCH  19  22
ENDBRANCH   1  18
TORSDOF 10
ENDMDL
MODEL 8
REMARK VINA RESULT:      -8.0      1.833      2.878
REMARK  10 active torsions:
REMARK  status: ('A' for Active; 'I' for Inactive)
REMARK    1  A    between atoms: C_4  and  C_5 
REMARK    2  A    between atoms: C_5  and  C_6 
REMARK    3  A    between atoms: C_6  and  N_7 
REMARK    4  A    between atoms: C_6  and  C_15 
REMARK       I    between atoms: N_7  and  C_8 
REMARK    5  A    between atoms: C_8  and  C_9 
REMARK       I    between atoms: C_15  and  N_16 
REMARK    6  A    between atoms: N_16  and  C_17 
REMARK    7  A    between atoms: C_17  and  C_18 
REMARK    8  A    between atoms: C_18  and  C_19 
REMARK    9  A    between atoms: C_21  and  O_22 
REMARK   10  A    between atoms: C_23  and  O_24 
ROOT
HETATM    1  C   UNL     1     -44.064  56.533 -54.102  1.00  0.00     0.181 C 
ENDROOT
BRANCH   1   2
HETATM    2  C   UNL     1     -43.888  55.030 -54.405  1.00  0.00     0.073 C 
BRANCH   2   3
HETATM    3  C   UNL     1     -42.490  54.469 -54.251  1.00  0.00    -0.056 A 
HETATM    4  C   UNL     1     -42.106  53.740 -53.115  1.00  0.00     0.007 A 
HETATM    5  C   UNL     1     -40.841  53.153 -53.037  1.00  0.00     0.001 A 
HETATM    6  C   UNL     1     -39.950  53.268 -54.101  1.00  0.00     0.000 A 
HETATM    7  C   UNL     1     -40.322  53.974 -55.243  1.00  0.00     0.001 A 
HETATM    8  C   UNL     1     -41.583  54.570 -55.317  1.00  0.00     0.007 A 
ENDBRANCH   2   3
ENDBRANCH   1   2
BRANCH   1   9
HETATM    9  N   UNL     1     -43.080  57.088 -53.168  1.00  0.00    -0.342 N 
HETATM   10  C   UNL     1     -43.304  58.090 -52.254  1.00  0.00     0.276 C 
HETATM   11  O   UNL     1     -44.430  58.541 -52.051  1.00  0.00    -0.265 OA
HETATM   12  H   UNL     1     -42.110  56.814 -53.290  1.00  0.00     0.163 HD
BRANCH  10  13
HETATM   13  C   UNL     1     -42.124  58.501 -51.524  1.00  0.00     0.142 A 
HETATM   14  O   UNL     1     -42.172  59.638 -50.756  1.00  0.00    -0.317 OA
HETATM   15  C   UNL     1     -40.942  59.800 -50.204  1.00  0.00     0.143 A 
HETATM   16  C   UNL     1     -40.096  58.792 -50.603  1.00  0.00     0.027 A 
HETATM   17  C   UNL     1     -40.857  57.952 -51.453  1.00  0.00     0.045 A 
ENDBRANCH  10  13
ENDBRANCH   1   9
BRANCH   1  18
HETATM   18  C   UNL     1     -44.219  57.281 -55.446  1.00  0.00     0.240 C 
HETATM   19  N   UNL     1     -45.485  57.703 -55.783  1.00  0.00    -0.359 N 
HETATM   20  H   UNL     1     -46.191  57.633 -55.056  1.00  0.00     0.162 HD
HETATM   21  O   UNL     1     -43.227  57.606 -56.101  1.00  0.00    -0.271 OA
BRANCH  19  22
HETATM   22  C   UNL     1     -45.683  58.692 -56.830  1.00  0.00     0.127 C 
BRANCH  22  23
HETATM   23  C   UNL     1     -46.616  58.225 -57.952  1.00  0.00     0.058 C 
BRANCH  23  24
HETATM   24  C   UNL     1     -46.084  57.262 -58.995  1.00  0.00    -0.054 A 
HETATM   25  C   UNL     1     -44.726  56.954 -59.160  1.00  0.00     0.046 A 
HETATM   26  C   UNL     1     -44.325  56.101 -60.185  1.00  0.00     0.099 A 
HETATM   27  C   UNL     1     -45.263  55.507 -61.021  1.00  0.00     0.098 A 
HETATM   28  C   UNL     1     -46.612  55.773 -60.864  1.00  0.00     0.040 A 
HETATM   29  C   UNL     1     -47.019  56.654 -59.859  1.00  0.00     0.010 A 
BRANCH  26  30
HETATM   30  O   UNL     1     -43.003  55.832 -60.413  1.00  0.00    -0.358 OA
HETATM   31  H   UNL     1     -42.530  55.959 -59.570  1.00  0.00     0.218 HD
ENDBRANCH  26  30
BRANCH  27  32
HETATM   32  O   UNL     1     -44.856  54.663 -62.013  1.00  0.00    -0.358 OA
HETATM   33  H   UNL     1     -45.217  53.792 -61.750  1.00  0.00     0.218 HD
ENDBRANCH  27  32
ENDBRANCH  23  24
ENDBRANCH  22  23
ENDBRANCH  19  22
ENDBRANCH   1  18
TORSDOF 10
ENDMDL
MODEL 9
REMARK VINA RESULT:      -8.0      2.453      7.731
REMARK  10 active torsions:
REMARK  status: ('A' for Active; 'I' for Inactive)
REMARK    1  A    between atoms: C_4  and  C_5 
REMARK    2  A    between atoms: C_5  and  C_6 
REMARK    3  A    between atoms: C_6  and  N_7 
REMARK    4  A    between atoms: C_6  and  C_15 
REMARK       I    between atoms: N_7  and  C_8 
REMARK    5  A    between atoms: C_8  and  C_9 
REMARK       I    between atoms: C_15  and  N_16 
REMARK    6  A    between atoms: N_16  and  C_17 
REMARK    7  A    between atoms: C_17  and  C_18 
REMARK    8  A    between atoms: C_18  and  C_19 
REMARK    9  A    between atoms: C_21  and  O_22 
REMARK   10  A    between atoms: C_23  and  O_24 
ROOT
HETATM    1  C   UNL     1     -43.192  56.951 -56.496  1.00  0.00     0.181 C 
ENDROOT
BRANCH   1   2
HETATM    2  C   UNL     1     -43.445  56.083 -55.245  1.00  0.00     0.073 C 
BRANCH   2   3
HETATM    3  C   UNL     1     -42.346  55.113 -54.864  1.00  0.00    -0.056 A 
HETATM    4  C   UNL     1     -42.626  53.885 -54.246  1.00  0.00     0.007 A 
HETATM    5  C   UNL     1     -41.606  52.966 -53.989  1.00  0.00     0.001 A 
HETATM    6  C   UNL     1     -40.296  53.252 -54.364  1.00  0.00     0.000 A 
HETATM    7  C   UNL     1     -40.005  54.460 -54.995  1.00  0.00     0.001 A 
HETATM    8  C   UNL     1     -41.022  55.383 -55.242  1.00  0.00     0.007 A 
ENDBRANCH   2   3
ENDBRANCH   1   2
BRANCH   1   9
HETATM    9  N   UNL     1     -44.251  56.890 -57.508  1.00  0.00    -0.342 N 
HETATM   10  C   UNL     1     -44.093  56.542 -58.828  1.00  0.00     0.276 C 
HETATM   11  O   UNL     1     -43.024  56.117 -59.263  1.00  0.00    -0.265 OA
HETATM   12  H   UNL     1     -45.160  57.268 -57.260  1.00  0.00     0.163 HD
BRANCH  10  13
HETATM   13  C   UNL     1     -45.299  56.657 -59.620  1.00  0.00     0.142 A 
HETATM   14  O   UNL     1     -45.933  57.872 -59.706  1.00  0.00    -0.317 OA
HETATM   15  C   UNL     1     -47.032  57.696 -60.485  1.00  0.00     0.143 A 
HETATM   16  C   UNL     1     -47.125  56.389 -60.900  1.00  0.00     0.027 A 
HETATM   17  C   UNL     1     -46.008  55.718 -60.345  1.00  0.00     0.045 A 
ENDBRANCH  10  13
ENDBRANCH   1   9
BRANCH   1  18
HETATM   18  C   UNL     1     -42.783  58.366 -56.028  1.00  0.00     0.240 C 
HETATM   19  N   UNL     1     -43.224  58.765 -54.787  1.00  0.00    -0.359 N 
HETATM   20  H   UNL     1     -43.648  58.046 -54.208  1.00  0.00     0.162 HD
HETATM   21  O   UNL     1     -41.979  59.035 -56.681  1.00  0.00    -0.271 OA
BRANCH  19  22
HETATM   22  C   UNL     1     -42.627  59.910 -54.120  1.00  0.00     0.127 C 
BRANCH  22  23
HETATM   23  C   UNL     1     -42.083  59.597 -52.722  1.00  0.00     0.058 C 
BRANCH  23  24
HETATM   24  C   UNL     1     -42.334  58.225 -52.129  1.00  0.00    -0.054 A 
HETATM   25  C   UNL     1     -43.581  57.787 -51.662  1.00  0.00     0.046 A 
HETATM   26  C   UNL     1     -43.702  56.527 -51.078  1.00  0.00     0.099 A 
HETATM   27  C   UNL     1     -42.608  55.675 -50.997  1.00  0.00     0.098 A 
HETATM   28  C   UNL     1     -41.371  56.072 -51.474  1.00  0.00     0.040 A 
HETATM   29  C   UNL     1     -41.234  57.347 -52.030  1.00  0.00     0.010 A 
BRANCH  26  30
HETATM   30  O   UNL     1     -44.890  56.096 -50.554  1.00  0.00    -0.358 OA
HETATM   31  H   UNL     1     -44.683  55.432 -49.870  1.00  0.00     0.218 HD
ENDBRANCH  26  30
BRANCH  27  32
HETATM   32  O   UNL     1     -42.744  54.440 -50.434  1.00  0.00    -0.358 OA
HETATM   33  H   UNL     1     -42.123  54.449 -49.679  1.00  0.00     0.218 HD
ENDBRANCH  27  32
ENDBRANCH  23  24
ENDBRANCH  22  23
ENDBRANCH  19  22
ENDBRANCH   1  18
TORSDOF 10
ENDMDL
MODEL 10
REMARK VINA RESULT:      -7.7      3.330      7.412
REMARK  10 active torsions:
REMARK  status: ('A' for Active; 'I' for Inactive)
REMARK    1  A    between atoms: C_4  and  C_5 
REMARK    2  A    between atoms: C_5  and  C_6 
REMARK    3  A    between atoms: C_6  and  N_7 
REMARK    4  A    between atoms: C_6  and  C_15 
REMARK       I    between atoms: N_7  and  C_8 
REMARK    5  A    between atoms: C_8  and  C_9 
REMARK       I    between atoms: C_15  and  N_16 
REMARK    6  A    between atoms: N_16  and  C_17 
REMARK    7  A    between atoms: C_17  and  C_18 
REMARK    8  A    between atoms: C_18  and  C_19 
REMARK    9  A    between atoms: C_21  and  O_22 
REMARK   10  A    between atoms: C_23  and  O_24 
ROOT
HETATM    1  C   UNL     1     -42.555  57.358 -54.193  1.00  0.00     0.181 C 
ENDROOT
BRANCH   1   2
HETATM    2  C   UNL     1     -42.896  57.773 -52.746  1.00  0.00     0.073 C 
BRANCH   2   3
HETATM    3  C   UNL     1     -42.654  56.735 -51.671  1.00  0.00    -0.056 A 
HETATM    4  C   UNL     1     -43.346  55.515 -51.652  1.00  0.00     0.007 A 
HETATM    5  C   UNL     1     -43.040  54.533 -50.707  1.00  0.00     0.001 A 
HETATM    6  C   UNL     1     -42.022  54.749 -49.780  1.00  0.00     0.000 A 
HETATM    7  C   UNL     1     -41.314  55.948 -49.797  1.00  0.00     0.001 A 
HETATM    8  C   UNL     1     -41.627  56.933 -50.735  1.00  0.00     0.007 A 
ENDBRANCH   2   3
ENDBRANCH   1   2
BRANCH   1   9
HETATM    9  N   UNL     1     -42.575  58.455 -55.166  1.00  0.00    -0.342 N 
HETATM   10  C   UNL     1     -42.435  58.334 -56.527  1.00  0.00     0.276 C 
HETATM   11  O   UNL     1     -42.401  57.236 -57.080  1.00  0.00    -0.265 OA
HETATM   12  H   UNL     1     -42.551  59.403 -54.804  1.00  0.00     0.163 HD
BRANCH  10  13
HETATM   13  C   UNL     1     -42.403  59.596 -57.234  1.00  0.00     0.142 A 
HETATM   14  O   UNL     1     -41.766  60.670 -56.663  1.00  0.00    -0.317 OA
HETATM   15  C   UNL     1     -41.902  61.717 -57.518  1.00  0.00     0.143 A 
HETATM   16  C   UNL     1     -42.617  61.342 -58.630  1.00  0.00     0.027 A 
HETATM   17  C   UNL     1     -42.940  59.975 -58.450  1.00  0.00     0.045 A 
ENDBRANCH  10  13
ENDBRANCH   1   9
BRANCH   1  18
HETATM   18  C   UNL     1     -41.265  56.506 -54.159  1.00  0.00     0.240 C 
HETATM   19  N   UNL     1     -41.348  55.229 -54.667  1.00  0.00    -0.359 N 
HETATM   20  H   UNL     1     -42.201  54.998 -55.167  1.00  0.00     0.162 HD
HETATM   21  O   UNL     1     -40.190  57.008 -53.828  1.00  0.00    -0.271 OA
BRANCH  19  22
HETATM   22  C   UNL     1     -40.144  54.482 -54.993  1.00  0.00     0.127 C 
BRANCH  22  23
HETATM   23  C   UNL     1     -40.361  52.967 -55.077  1.00  0.00     0.058 C 
BRANCH  23  24
HETATM   24  C   UNL     1     -40.082  52.118 -53.853  1.00  0.00    -0.054 A 
HETATM   25  C   UNL     1     -39.743  50.758 -53.901  1.00  0.00     0.046 A 
HETATM   26  C   UNL     1     -39.562  50.044 -52.719  1.00  0.00     0.099 A 
HETATM   27  C   UNL     1     -39.666  50.676 -51.485  1.00  0.00     0.098 A 
HETATM   28  C   UNL     1     -39.974  52.023 -51.410  1.00  0.00     0.040 A 
HETATM   29  C   UNL     1     -40.190  52.738 -52.591  1.00  0.00     0.010 A 
BRANCH  26  30
HETATM   30  O   UNL     1     -39.294  48.702 -52.730  1.00  0.00    -0.358 OA
HETATM   31  H   UNL     1     -39.628  48.332 -51.892  1.00  0.00     0.218 HD
ENDBRANCH  26  30
BRANCH  27  32
HETATM   32  O   UNL     1     -39.473  49.967 -50.336  1.00  0.00    -0.358 OA
HETATM   33  H   UNL     1     -40.368  49.659 -50.090  1.00  0.00     0.218 HD
ENDBRANCH  27  32
ENDBRANCH  23  24
ENDBRANCH  22  23
ENDBRANCH  19  22
ENDBRANCH   1  18
TORSDOF 10
ENDMDL
