MODEL 1
REMARK VINA RESULT:      -7.7      0.000      0.000
REMARK  10 active torsions:
REMARK  status: ('A' for Active; 'I' for Inactive)
REMARK    1  A    between atoms: C_3  and  C_4 
REMARK    2  A    between atoms: C_4  and  C_5 
REMARK       I    between atoms: C_5  and  N_6 
REMARK    3  A    between atoms: N_6  and  C_7 
REMARK    4  A    between atoms: C_7  and  C_8 
REMARK    5  A    between atoms: C_8  and  O_9 
REMARK    6  A    between atoms: C_15  and  N_16 
REMARK       I    between atoms: N_16  and  C_17 
REMARK    7  A    between atoms: C_17  and  C_18 
REMARK    8  A    between atoms: C_28  and  C_29 
REMARK    9  A    between atoms: C_29  and  O_30 
REMARK   10  A    between atoms: C_32  and  O_33 
ROOT
HETATM    1  C   UNL     1     -44.148  56.055 -51.490  1.00  0.00     0.016 C 
HETATM    2  C   UNL     1     -42.853  56.800 -51.953  1.00  0.00    -0.030 C 
HETATM    3  C   UNL     1     -42.288  56.122 -53.284  1.00  0.00     0.056 C 
HETATM    4  C   UNL     1     -43.042  56.625 -54.497  1.00  0.00     0.056 C 
HETATM    5  C   UNL     1     -43.963  57.653 -54.463  1.00  0.00     0.012 C 
HETATM    6  S   UNL     1     -44.614  57.919 -56.009  1.00  0.00    -0.055 SA
HETATM    7  C   UNL     1     -43.472  56.819 -56.652  1.00  0.00     0.173 C 
HETATM    8  N   UNL     1     -42.726  56.186 -55.774  1.00  0.00    -0.227 NA
HETATM    9  C   UNL     1     -44.323  58.470 -53.276  1.00  0.00     0.055 C 
HETATM   10  C   UNL     1     -43.229  58.326 -52.182  1.00  0.00     0.012 C 
HETATM   11  C   UNL     1     -41.999  59.335 -52.310  1.00  0.00     0.008 C 
HETATM   12  C   UNL     1     -42.478  60.693 -51.716  1.00  0.00     0.020 C 
HETATM   13  C   UNL     1     -40.792  58.856 -51.443  1.00  0.00     0.128 C 
HETATM   14  C   UNL     1     -41.228  57.965 -50.289  1.00  0.00     0.033 C 
HETATM   15  C   UNL     1     -41.819  56.649 -50.794  1.00  0.00     0.013 C 
ENDROOT
BRANCH   7  16
HETATM   16  N   UNL     1     -43.223  56.774 -58.000  1.00  0.00    -0.305 N 
HETATM   17  C   UNL     1     -43.733  55.817 -58.848  1.00  0.00     0.227 C 
HETATM   18  O   UNL     1     -43.975  54.656 -58.528  1.00  0.00    -0.273 OA
HETATM   19  H   UNL     1     -42.646  57.531 -58.348  1.00  0.00     0.171 HD
BRANCH  17  20
HETATM   20  C   UNL     1     -43.998  56.348 -60.262  1.00  0.00     0.078 C 
HETATM   21  C   UNL     1     -45.049  55.515 -61.015  1.00  0.00     0.014 C 
HETATM   22  C   UNL     1     -46.482  55.731 -60.519  1.00  0.00     0.001 C 
HETATM   23  C   UNL     1     -46.854  57.207 -60.446  1.00  0.00     0.000 C 
HETATM   24  C   UNL     1     -45.832  58.011 -59.652  1.00  0.00     0.001 C 
HETATM   25  C   UNL     1     -44.420  57.827 -60.209  1.00  0.00     0.014 C 
ENDBRANCH  17  20
ENDBRANCH   7  16
BRANCH   3  26
HETATM   26  C   UNL     1     -42.293  54.581 -53.210  1.00  0.00     0.114 C 
BRANCH  26  27
HETATM   27  C   UNL     1     -41.009  53.917 -53.669  1.00  0.00     0.218 C 
HETATM   28  N   UNL     1     -40.891  52.589 -53.363  1.00  0.00    -0.359 N 
HETATM   29  H   UNL     1     -41.747  52.073 -53.149  1.00  0.00     0.162 HD
HETATM   30  O   UNL     1     -40.112  54.559 -54.214  1.00  0.00    -0.274 OA
BRANCH  28  31
HETATM   31  C   UNL     1     -39.689  51.844 -53.670  1.00  0.00     0.148 C 
BRANCH  31  32
HETATM   32  C   UNL     1     -39.988  50.530 -54.396  1.00  0.00     0.186 C 
BRANCH  32  33
HETATM   33  O   UNL     1     -39.587  49.363 -53.661  1.00  0.00    -0.394 OA
HETATM   34  C   UNL     1     -39.599  49.576 -52.252  1.00  0.00     0.201 C 
ENDBRANCH  32  33
ENDBRANCH  31  32
ENDBRANCH  28  31
ENDBRANCH  26  27
ENDBRANCH   3  26
BRANCH  11  35
HETATM   35  C   UNL     1     -41.488  59.621 -53.749  1.00  0.00     0.176 C 
BRANCH  35  36
HETATM   36  O   UNL     1     -41.892  60.899 -54.225  1.00  0.00    -0.400 OA
HETATM   37  H   UNL     1     -41.081  61.372 -54.480  1.00  0.00     0.209 HD
ENDBRANCH  35  36
ENDBRANCH  11  35
BRANCH  13  38
HETATM   38  O   UNL     1     -39.843  58.137 -52.233  1.00  0.00    -0.395 OA
HETATM   39  H   UNL     1     -39.778  57.235 -51.871  1.00  0.00     0.210 HD
ENDBRANCH  13  38
TORSDOF 10
ENDMDL
MODEL 2
REMARK VINA RESULT:      -7.4      1.506      2.117
REMARK  10 active torsions:
REMARK  status: ('A' for Active; 'I' for Inactive)
REMARK    1  A    between atoms: C_3  and  C_4 
REMARK    2  A    between atoms: C_4  and  C_5 
REMARK       I    between atoms: C_5  and  N_6 
REMARK    3  A    between atoms: N_6  and  C_7 
REMARK    4  A    between atoms: C_7  and  C_8 
REMARK    5  A    between atoms: C_8  and  O_9 
REMARK    6  A    between atoms: C_15  and  N_16 
REMARK       I    between atoms: N_16  and  C_17 
REMARK    7  A    between atoms: C_17  and  C_18 
REMARK    8  A    between atoms: C_28  and  C_29 
REMARK    9  A    between atoms: C_29  and  O_30 
REMARK   10  A    between atoms: C_32  and  O_33 
ROOT
HETATM    1  C   UNL     1     -43.866  56.313 -51.193  1.00  0.00     0.016 C 
HETATM    2  C   UNL     1     -42.761  57.141 -51.926  1.00  0.00    -0.030 C 
HETATM    3  C   UNL     1     -42.701  56.718 -53.465  1.00  0.00     0.056 C 
HETATM    4  C   UNL     1     -43.788  57.423 -54.251  1.00  0.00     0.056 C 
HETATM    5  C   UNL     1     -44.592  58.418 -53.736  1.00  0.00     0.012 C 
HETATM    6  S   UNL     1     -45.702  58.950 -54.905  1.00  0.00    -0.055 SA
HETATM    7  C   UNL     1     -44.894  57.995 -56.072  1.00  0.00     0.173 C 
HETATM    8  N   UNL     1     -43.933  57.222 -55.616  1.00  0.00    -0.227 NA
HETATM    9  C   UNL     1     -44.499  59.007 -52.375  1.00  0.00     0.055 C 
HETATM   10  C   UNL     1     -43.114  58.680 -51.751  1.00  0.00     0.012 C 
HETATM   11  C   UNL     1     -41.945  59.708 -52.106  1.00  0.00     0.008 C 
HETATM   12  C   UNL     1     -42.133  60.933 -51.162  1.00  0.00     0.020 C 
HETATM   13  C   UNL     1     -40.546  59.094 -51.788  1.00  0.00     0.128 C 
HETATM   14  C   UNL     1     -40.622  58.006 -50.725  1.00  0.00     0.033 C 
HETATM   15  C   UNL     1     -41.411  56.796 -51.223  1.00  0.00     0.013 C 
ENDROOT
BRANCH   7  16
HETATM   16  N   UNL     1     -45.106  58.195 -57.412  1.00  0.00    -0.305 N 
HETATM   17  C   UNL     1     -44.203  58.804 -58.254  1.00  0.00     0.227 C 
HETATM   18  O   UNL     1     -43.419  59.688 -57.918  1.00  0.00    -0.273 OA
HETATM   19  H   UNL     1     -45.983  57.827 -57.760  1.00  0.00     0.171 HD
BRANCH  17  20
HETATM   20  C   UNL     1     -44.248  58.252 -59.684  1.00  0.00     0.078 C 
HETATM   21  C   UNL     1     -42.997  58.622 -60.497  1.00  0.00     0.014 C 
HETATM   22  C   UNL     1     -41.742  57.843 -60.092  1.00  0.00     0.001 C 
HETATM   23  C   UNL     1     -41.982  56.338 -60.048  1.00  0.00     0.000 C 
HETATM   24  C   UNL     1     -43.194  55.983 -59.196  1.00  0.00     0.001 C 
HETATM   25  C   UNL     1     -44.446  56.726 -59.663  1.00  0.00     0.014 C 
ENDBRANCH  17  20
ENDBRANCH   7  16
BRANCH   3  26
HETATM   26  C   UNL     1     -42.760  55.189 -53.660  1.00  0.00     0.114 C 
BRANCH  26  27
HETATM   27  C   UNL     1     -41.435  54.541 -54.012  1.00  0.00     0.218 C 
HETATM   28  N   UNL     1     -41.427  53.173 -53.997  1.00  0.00    -0.359 N 
HETATM   29  H   UNL     1     -42.326  52.691 -54.067  1.00  0.00     0.162 HD
HETATM   30  O   UNL     1     -40.427  55.212 -54.223  1.00  0.00    -0.274 OA
BRANCH  28  31
HETATM   31  C   UNL     1     -40.215  52.419 -54.238  1.00  0.00     0.148 C 
BRANCH  31  32
HETATM   32  C   UNL     1     -39.713  51.705 -52.981  1.00  0.00     0.186 C 
BRANCH  32  33
HETATM   33  O   UNL     1     -39.611  50.281 -53.131  1.00  0.00    -0.394 OA
HETATM   34  C   UNL     1     -39.785  49.861 -54.482  1.00  0.00     0.201 C 
ENDBRANCH  32  33
ENDBRANCH  31  32
ENDBRANCH  28  31
ENDBRANCH  26  27
ENDBRANCH   3  26
BRANCH  11  35
HETATM   35  C   UNL     1     -41.924  60.252 -53.561  1.00  0.00     0.176 C 
BRANCH  35  36
HETATM   36  O   UNL     1     -42.437  61.575 -53.654  1.00  0.00    -0.400 OA
HETATM   37  H   UNL     1     -43.388  61.522 -53.455  1.00  0.00     0.209 HD
ENDBRANCH  35  36
ENDBRANCH  11  35
BRANCH  13  38
HETATM   38  O   UNL     1     -39.949  58.537 -52.960  1.00  0.00    -0.395 OA
HETATM   39  H   UNL     1     -39.527  57.695 -52.708  1.00  0.00     0.210 HD
ENDBRANCH  13  38
TORSDOF 10
ENDMDL
MODEL 3
REMARK VINA RESULT:      -7.4      2.638      8.010
REMARK  10 active torsions:
REMARK  status: ('A' for Active; 'I' for Inactive)
REMARK    1  A    between atoms: C_3  and  C_4 
REMARK    2  A    between atoms: C_4  and  C_5 
REMARK       I    between atoms: C_5  and  N_6 
REMARK    3  A    between atoms: N_6  and  C_7 
REMARK    4  A    between atoms: C_7  and  C_8 
REMARK    5  A    between atoms: C_8  and  O_9 
REMARK    6  A    between atoms: C_15  and  N_16 
REMARK       I    between atoms: N_16  and  C_17 
REMARK    7  A    between atoms: C_17  and  C_18 
REMARK    8  A    between atoms: C_28  and  C_29 
REMARK    9  A    between atoms: C_29  and  O_30 
REMARK   10  A    between atoms: C_32  and  O_33 
ROOT
HETATM    1  C   UNL     1     -41.736  59.417 -58.250  1.00  0.00     0.016 C 
HETATM    2  C   UNL     1     -43.173  59.229 -57.663  1.00  0.00    -0.030 C 
HETATM    3  C   UNL     1     -43.449  57.678 -57.398  1.00  0.00     0.056 C 
HETATM    4  C   UNL     1     -42.828  57.246 -56.086  1.00  0.00     0.056 C 
HETATM    5  C   UNL     1     -42.262  58.114 -55.175  1.00  0.00     0.012 C 
HETATM    6  S   UNL     1     -41.654  57.262 -53.839  1.00  0.00    -0.055 SA
HETATM    7  C   UNL     1     -42.381  55.838 -54.447  1.00  0.00     0.173 C 
HETATM    8  N   UNL     1     -42.940  55.940 -55.634  1.00  0.00    -0.227 NA
HETATM    9  C   UNL     1     -42.218  59.595 -55.285  1.00  0.00     0.055 C 
HETATM   10  C   UNL     1     -43.265  60.081 -56.325  1.00  0.00     0.012 C 
HETATM   11  C   UNL     1     -44.735  60.323 -55.753  1.00  0.00     0.008 C 
HETATM   12  C   UNL     1     -44.714  61.716 -55.056  1.00  0.00     0.020 C 
HETATM   13  C   UNL     1     -45.779  60.405 -56.911  1.00  0.00     0.128 C 
HETATM   14  C   UNL     1     -45.145  60.828 -58.229  1.00  0.00     0.033 C 
HETATM   15  C   UNL     1     -44.164  59.773 -58.739  1.00  0.00     0.013 C 
ENDROOT
BRANCH   7  16
HETATM   16  N   UNL     1     -42.546  54.737 -53.647  1.00  0.00    -0.305 N 
HETATM   17  C   UNL     1     -41.522  54.117 -52.966  1.00  0.00     0.227 C 
HETATM   18  O   UNL     1     -40.357  54.062 -53.352  1.00  0.00    -0.273 OA
HETATM   19  H   UNL     1     -43.503  54.416 -53.562  1.00  0.00     0.171 HD
BRANCH  17  20
HETATM   20  C   UNL     1     -41.971  53.503 -51.635  1.00  0.00     0.078 C 
HETATM   21  C   UNL     1     -40.791  53.209 -50.695  1.00  0.00     0.014 C 
HETATM   22  C   UNL     1     -40.176  54.462 -50.063  1.00  0.00     0.001 C 
HETATM   23  C   UNL     1     -41.224  55.361 -49.417  1.00  0.00     0.000 C 
HETATM   24  C   UNL     1     -42.360  55.686 -50.378  1.00  0.00     0.001 C 
HETATM   25  C   UNL     1     -42.998  54.417 -50.942  1.00  0.00     0.014 C 
ENDBRANCH  17  20
ENDBRANCH   7  16
BRANCH   3  26
HETATM   26  C   UNL     1     -42.982  56.787 -58.569  1.00  0.00     0.114 C 
BRANCH  26  27
HETATM   27  C   UNL     1     -44.078  56.383 -59.536  1.00  0.00     0.218 C 
HETATM   28  N   UNL     1     -45.355  56.632 -59.116  1.00  0.00    -0.359 N 
HETATM   29  H   UNL     1     -45.485  57.323 -58.373  1.00  0.00     0.162 HD
HETATM   30  O   UNL     1     -43.823  55.807 -60.592  1.00  0.00    -0.274 OA
BRANCH  28  31
HETATM   31  C   UNL     1     -46.504  56.231 -59.900  1.00  0.00     0.148 C 
BRANCH  31  32
HETATM   32  C   UNL     1     -47.136  57.406 -60.650  1.00  0.00     0.186 C 
BRANCH  32  33
HETATM   33  O   UNL     1     -47.173  58.622 -59.887  1.00  0.00    -0.394 OA
HETATM   34  C   UNL     1     -48.054  59.592 -60.449  1.00  0.00     0.201 C 
ENDBRANCH  32  33
ENDBRANCH  31  32
ENDBRANCH  28  31
ENDBRANCH  26  27
ENDBRANCH   3  26
BRANCH  11  35
HETATM   35  C   UNL     1     -45.244  59.296 -54.704  1.00  0.00     0.176 C 
BRANCH  35  36
HETATM   36  O   UNL     1     -45.932  59.916 -53.625  1.00  0.00    -0.400 OA
HETATM   37  H   UNL     1     -45.364  59.825 -52.840  1.00  0.00     0.209 HD
ENDBRANCH  35  36
ENDBRANCH  11  35
BRANCH  13  38
HETATM   38  O   UNL     1     -46.430  59.149 -57.107  1.00  0.00    -0.395 OA
HETATM   39  H   UNL     1     -47.286  59.182 -56.643  1.00  0.00     0.210 HD
ENDBRANCH  13  38
TORSDOF 10
ENDMDL
MODEL 4
REMARK VINA RESULT:      -7.3      3.060      6.169
REMARK  10 active torsions:
REMARK  status: ('A' for Active; 'I' for Inactive)
REMARK    1  A    between atoms: C_3  and  C_4 
REMARK    2  A    between atoms: C_4  and  C_5 
REMARK       I    between atoms: C_5  and  N_6 
REMARK    3  A    between atoms: N_6  and  C_7 
REMARK    4  A    between atoms: C_7  and  C_8 
REMARK    5  A    between atoms: C_8  and  O_9 
REMARK    6  A    between atoms: C_15  and  N_16 
REMARK       I    between atoms: N_16  and  C_17 
REMARK    7  A    between atoms: C_17  and  C_18 
REMARK    8  A    between atoms: C_28  and  C_29 
REMARK    9  A    between atoms: C_29  and  O_30 
REMARK   10  A    between atoms: C_32  and  O_33 
ROOT
HETATM    1  C   UNL     1     -40.157  58.575 -53.029  1.00  0.00     0.016 C 
HETATM    2  C   UNL     1     -41.251  57.686 -52.352  1.00  0.00    -0.030 C 
HETATM    3  C   UNL     1     -42.695  58.313 -52.616  1.00  0.00     0.056 C 
HETATM    4  C   UNL     1     -43.197  57.929 -53.992  1.00  0.00     0.056 C 
HETATM    5  C   UNL     1     -42.567  57.022 -54.819  1.00  0.00     0.012 C 
HETATM    6  S   UNL     1     -43.411  56.866 -56.284  1.00  0.00    -0.055 SA
HETATM    7  C   UNL     1     -44.667  57.829 -55.634  1.00  0.00     0.173 C 
HETATM    8  N   UNL     1     -44.437  58.350 -54.449  1.00  0.00    -0.227 NA
HETATM    9  C   UNL     1     -41.352  56.233 -54.492  1.00  0.00     0.055 C 
HETATM   10  C   UNL     1     -41.125  56.221 -52.955  1.00  0.00     0.012 C 
HETATM   11  C   UNL     1     -41.895  55.071 -52.160  1.00  0.00     0.008 C 
HETATM   12  C   UNL     1     -41.055  53.772 -52.339  1.00  0.00     0.020 C 
HETATM   13  C   UNL     1     -41.938  55.383 -50.631  1.00  0.00     0.128 C 
HETATM   14  C   UNL     1     -40.802  56.300 -50.197  1.00  0.00     0.033 C 
HETATM   15  C   UNL     1     -40.937  57.687 -50.823  1.00  0.00     0.013 C 
ENDROOT
BRANCH   7  16
HETATM   16  N   UNL     1     -45.902  57.868 -56.229  1.00  0.00    -0.305 N 
HETATM   17  C   UNL     1     -46.386  58.947 -56.935  1.00  0.00     0.227 C 
HETATM   18  O   UNL     1     -46.107  60.120 -56.698  1.00  0.00    -0.273 OA
HETATM   19  H   UNL     1     -46.440  57.015 -56.140  1.00  0.00     0.171 HD
BRANCH  17  20
HETATM   20  C   UNL     1     -47.313  58.545 -58.087  1.00  0.00     0.078 C 
HETATM   21  C   UNL     1     -47.747  59.747 -58.940  1.00  0.00     0.014 C 
HETATM   22  C   UNL     1     -46.641  60.299 -59.844  1.00  0.00     0.001 C 
HETATM   23  C   UNL     1     -45.974  59.208 -60.675  1.00  0.00     0.000 C 
HETATM   24  C   UNL     1     -45.501  58.046 -59.810  1.00  0.00     0.001 C 
HETATM   25  C   UNL     1     -46.641  57.475 -58.967  1.00  0.00     0.014 C 
ENDBRANCH  17  20
ENDBRANCH   7  16
BRANCH   3  26
HETATM   26  C   UNL     1     -42.722  59.842 -52.408  1.00  0.00     0.114 C 
BRANCH  26  27
HETATM   27  C   UNL     1     -43.971  60.370 -51.730  1.00  0.00     0.218 C 
HETATM   28  N   UNL     1     -44.366  59.689 -50.611  1.00  0.00    -0.359 N 
HETATM   29  H   UNL     1     -43.670  59.108 -50.138  1.00  0.00     0.162 HD
HETATM   30  O   UNL     1     -44.616  61.303 -52.205  1.00  0.00    -0.274 OA
BRANCH  28  31
HETATM   31  C   UNL     1     -45.581  60.031 -49.904  1.00  0.00     0.148 C 
BRANCH  31  32
HETATM   32  C   UNL     1     -45.318  60.928 -48.692  1.00  0.00     0.186 C 
BRANCH  32  33
HETATM   33  O   UNL     1     -46.018  60.515 -47.508  1.00  0.00    -0.394 OA
HETATM   34  C   UNL     1     -45.302  60.826 -46.315  1.00  0.00     0.201 C 
ENDBRANCH  32  33
ENDBRANCH  31  32
ENDBRANCH  28  31
ENDBRANCH  26  27
ENDBRANCH   3  26
BRANCH  11  35
HETATM   35  C   UNL     1     -43.339  54.752 -52.637  1.00  0.00     0.176 C 
BRANCH  35  36
HETATM   36  O   UNL     1     -44.007  53.840 -51.774  1.00  0.00    -0.400 OA
HETATM   37  H   UNL     1     -44.301  54.350 -50.999  1.00  0.00     0.209 HD
ENDBRANCH  35  36
ENDBRANCH  11  35
BRANCH  13  38
HETATM   38  O   UNL     1     -43.175  55.995 -50.264  1.00  0.00    -0.395 OA
HETATM   39  H   UNL     1     -43.894  55.494 -50.690  1.00  0.00     0.210 HD
ENDBRANCH  13  38
TORSDOF 10
ENDMDL
MODEL 5
REMARK VINA RESULT:      -7.2      2.222      6.970
REMARK  10 active torsions:
REMARK  status: ('A' for Active; 'I' for Inactive)
REMARK    1  A    between atoms: C_3  and  C_4 
REMARK    2  A    between atoms: C_4  and  C_5 
REMARK       I    between atoms: C_5  and  N_6 
REMARK    3  A    between atoms: N_6  and  C_7 
REMARK    4  A    between atoms: C_7  and  C_8 
REMARK    5  A    between atoms: C_8  and  O_9 
REMARK    6  A    between atoms: C_15  and  N_16 
REMARK       I    between atoms: N_16  and  C_17 
REMARK    7  A    between atoms: C_17  and  C_18 
REMARK    8  A    between atoms: C_28  and  C_29 
REMARK    9  A    between atoms: C_29  and  O_30 
REMARK   10  A    between atoms: C_32  and  O_33 
ROOT
HETATM    1  C   UNL     1     -42.676  56.926 -60.232  1.00  0.00     0.016 C 
HETATM    2  C   UNL     1     -43.975  57.150 -59.390  1.00  0.00    -0.030 C 
HETATM    3  C   UNL     1     -43.675  56.865 -57.848  1.00  0.00     0.056 C 
HETATM    4  C   UNL     1     -43.018  58.069 -57.204  1.00  0.00     0.056 C 
HETATM    5  C   UNL     1     -42.868  59.292 -57.825  1.00  0.00     0.012 C 
HETATM    6  S   UNL     1     -42.069  60.385 -56.800  1.00  0.00    -0.055 SA
HETATM    7  C   UNL     1     -42.183  59.242 -55.533  1.00  0.00     0.173 C 
HETATM    8  N   UNL     1     -42.668  58.065 -55.862  1.00  0.00    -0.227 NA
HETATM    9  C   UNL     1     -43.366  59.658 -59.176  1.00  0.00     0.055 C 
HETATM   10  C   UNL     1     -44.454  58.646 -59.632  1.00  0.00     0.012 C 
HETATM   11  C   UNL     1     -45.941  58.985 -59.162  1.00  0.00     0.008 C 
HETATM   12  C   UNL     1     -46.477  60.072 -60.142  1.00  0.00     0.020 C 
HETATM   13  C   UNL     1     -46.870  57.739 -59.306  1.00  0.00     0.128 C 
HETATM   14  C   UNL     1     -46.360  56.757 -60.352  1.00  0.00     0.033 C 
HETATM   15  C   UNL     1     -45.030  56.135 -59.928  1.00  0.00     0.013 C 
ENDROOT
BRANCH   7  16
HETATM   16  N   UNL     1     -41.978  59.616 -54.230  1.00  0.00    -0.305 N 
HETATM   17  C   UNL     1     -42.983  59.988 -53.365  1.00  0.00     0.227 C 
HETATM   18  O   UNL     1     -44.021  60.552 -53.701  1.00  0.00    -0.273 OA
HETATM   19  H   UNL     1     -41.013  59.571 -53.925  1.00  0.00     0.171 HD
BRANCH  17  20
HETATM   20  C   UNL     1     -42.695  59.607 -51.909  1.00  0.00     0.078 C 
HETATM   21  C   UNL     1     -43.930  59.756 -51.006  1.00  0.00     0.014 C 
HETATM   22  C   UNL     1     -44.989  58.670 -51.221  1.00  0.00     0.001 C 
HETATM   23  C   UNL     1     -44.399  57.266 -51.171  1.00  0.00     0.000 C 
HETATM   24  C   UNL     1     -43.208  57.118 -52.110  1.00  0.00     0.001 C 
HETATM   25  C   UNL     1     -42.138  58.174 -51.829  1.00  0.00     0.014 C 
ENDBRANCH  17  20
ENDBRANCH   7  16
BRANCH   3  26
HETATM   26  C   UNL     1     -42.843  55.583 -57.636  1.00  0.00     0.114 C 
BRANCH  26  27
HETATM   27  C   UNL     1     -42.600  55.216 -56.184  1.00  0.00     0.218 C 
HETATM   28  N   UNL     1     -41.297  55.272 -55.774  1.00  0.00    -0.359 N 
HETATM   29  H   UNL     1     -40.647  55.831 -56.330  1.00  0.00     0.162 HD
HETATM   30  O   UNL     1     -43.513  54.827 -55.458  1.00  0.00    -0.274 OA
BRANCH  28  31
HETATM   31  C   UNL     1     -40.905  54.876 -54.438  1.00  0.00     0.148 C 
BRANCH  31  32
HETATM   32  C   UNL     1     -40.163  53.537 -54.421  1.00  0.00     0.186 C 
BRANCH  32  33
HETATM   33  O   UNL     1     -41.031  52.402 -54.279  1.00  0.00    -0.394 OA
HETATM   34  C   UNL     1     -40.317  51.168 -54.272  1.00  0.00     0.201 C 
ENDBRANCH  32  33
ENDBRANCH  31  32
ENDBRANCH  28  31
ENDBRANCH  26  27
ENDBRANCH   3  26
BRANCH  11  35
HETATM   35  C   UNL     1     -46.098  59.551 -57.723  1.00  0.00     0.176 C 
BRANCH  35  36
HETATM   36  O   UNL     1     -47.458  59.766 -57.369  1.00  0.00    -0.400 OA
HETATM   37  H   UNL     1     -47.898  60.136 -58.155  1.00  0.00     0.209 HD
ENDBRANCH  35  36
ENDBRANCH  11  35
BRANCH  13  38
HETATM   38  O   UNL     1     -47.000  57.046 -58.064  1.00  0.00    -0.395 OA
HETATM   39  H   UNL     1     -47.111  56.099 -58.262  1.00  0.00     0.210 HD
ENDBRANCH  13  38
TORSDOF 10
ENDMDL
MODEL 6
REMARK VINA RESULT:      -6.7      2.064      2.616
REMARK  10 active torsions:
REMARK  status: ('A' for Active; 'I' for Inactive)
REMARK    1  A    between atoms: C_3  and  C_4 
REMARK    2  A    between atoms: C_4  and  C_5 
REMARK       I    between atoms: C_5  and  N_6 
REMARK    3  A    between atoms: N_6  and  C_7 
REMARK    4  A    between atoms: C_7  and  C_8 
REMARK    5  A    between atoms: C_8  and  O_9 
REMARK    6  A    between atoms: C_15  and  N_16 
REMARK       I    between atoms: N_16  and  C_17 
REMARK    7  A    between atoms: C_17  and  C_18 
REMARK    8  A    between atoms: C_28  and  C_29 
REMARK    9  A    between atoms: C_29  and  O_30 
REMARK   10  A    between atoms: C_32  and  O_33 
ROOT
HETATM    1  C   UNL     1     -44.147  56.366 -51.303  1.00  0.00     0.016 C 
HETATM    2  C   UNL     1     -42.958  57.187 -51.902  1.00  0.00    -0.030 C 
HETATM    3  C   UNL     1     -42.703  56.742 -53.414  1.00  0.00     0.056 C 
HETATM    4  C   UNL     1     -43.682  57.431 -54.342  1.00  0.00     0.056 C 
HETATM    5  C   UNL     1     -44.547  58.431 -53.949  1.00  0.00     0.012 C 
HETATM    6  S   UNL     1     -45.500  58.941 -55.258  1.00  0.00    -0.055 SA
HETATM    7  C   UNL     1     -44.549  57.972 -56.297  1.00  0.00     0.173 C 
HETATM    8  N   UNL     1     -43.652  57.209 -55.711  1.00  0.00    -0.227 NA
HETATM    9  C   UNL     1     -44.629  59.040 -52.596  1.00  0.00     0.055 C 
HETATM   10  C   UNL     1     -43.334  58.728 -51.796  1.00  0.00     0.012 C 
HETATM   11  C   UNL     1     -42.131  59.755 -52.015  1.00  0.00     0.008 C 
HETATM   12  C   UNL     1     -42.440  60.993 -51.121  1.00  0.00     0.020 C 
HETATM   13  C   UNL     1     -40.783  59.150 -51.513  1.00  0.00     0.128 C 
HETATM   14  C   UNL     1     -40.991  58.078 -50.452  1.00  0.00     0.033 C 
HETATM   15  C   UNL     1     -41.709  56.858 -51.027  1.00  0.00     0.013 C 
ENDROOT
BRANCH   7  16
HETATM   16  N   UNL     1     -44.589  58.151 -57.656  1.00  0.00    -0.305 N 
HETATM   17  C   UNL     1     -43.605  58.787 -58.381  1.00  0.00     0.227 C 
HETATM   18  O   UNL     1     -42.906  59.703 -57.957  1.00  0.00    -0.273 OA
HETATM   19  H   UNL     1     -45.398  57.747 -58.112  1.00  0.00     0.171 HD
BRANCH  17  20
HETATM   20  C   UNL     1     -43.441  58.220 -59.796  1.00  0.00     0.078 C 
HETATM   21  C   UNL     1     -44.546  58.696 -60.752  1.00  0.00     0.014 C 
HETATM   22  C   UNL     1     -44.409  60.160 -61.178  1.00  0.00     0.001 C 
HETATM   23  C   UNL     1     -43.013  60.486 -61.696  1.00  0.00     0.000 C 
HETATM   24  C   UNL     1     -41.930  60.057 -60.714  1.00  0.00     0.001 C 
HETATM   25  C   UNL     1     -42.052  58.575 -60.358  1.00  0.00     0.014 C 
ENDBRANCH  17  20
ENDBRANCH   7  16
BRANCH   3  26
HETATM   26  C   UNL     1     -42.734  55.210 -53.591  1.00  0.00     0.114 C 
BRANCH  26  27
HETATM   27  C   UNL     1     -41.402  54.517 -53.374  1.00  0.00     0.218 C 
HETATM   28  N   UNL     1     -41.417  53.480 -52.483  1.00  0.00    -0.359 N 
HETATM   29  H   UNL     1     -42.319  53.046 -52.273  1.00  0.00     0.162 HD
HETATM   30  O   UNL     1     -40.373  54.918 -53.915  1.00  0.00    -0.274 OA
BRANCH  28  31
HETATM   31  C   UNL     1     -40.206  52.775 -52.119  1.00  0.00     0.148 C 
BRANCH  31  32
HETATM   32  C   UNL     1     -40.042  52.643 -50.603  1.00  0.00     0.186 C 
BRANCH  32  33
HETATM   33  O   UNL     1     -40.934  53.482 -49.853  1.00  0.00    -0.394 OA
HETATM   34  C   UNL     1     -40.285  54.129 -48.761  1.00  0.00     0.201 C 
ENDBRANCH  32  33
ENDBRANCH  31  32
ENDBRANCH  28  31
ENDBRANCH  26  27
ENDBRANCH   3  26
BRANCH  11  35
HETATM   35  C   UNL     1     -41.926  60.277 -53.464  1.00  0.00     0.176 C 
BRANCH  35  36
HETATM   36  O   UNL     1     -42.305  61.640 -53.609  1.00  0.00    -0.400 OA
HETATM   37  H   UNL     1     -41.627  62.170 -53.156  1.00  0.00     0.209 HD
ENDBRANCH  35  36
ENDBRANCH  11  35
BRANCH  13  38
HETATM   38  O   UNL     1     -40.040  58.578 -52.591  1.00  0.00    -0.395 OA
HETATM   39  H   UNL     1     -40.089  59.193 -53.345  1.00  0.00     0.210 HD
ENDBRANCH  13  38
TORSDOF 10
ENDMDL
MODEL 7
REMARK VINA RESULT:      -6.5      3.894      9.195
REMARK  10 active torsions:
REMARK  status: ('A' for Active; 'I' for Inactive)
REMARK    1  A    between atoms: C_3  and  C_4 
REMARK    2  A    between atoms: C_4  and  C_5 
REMARK       I    between atoms: C_5  and  N_6 
REMARK    3  A    between atoms: N_6  and  C_7 
REMARK    4  A    between atoms: C_7  and  C_8 
REMARK    5  A    between atoms: C_8  and  O_9 
REMARK    6  A    between atoms: C_15  and  N_16 
REMARK       I    between atoms: N_16  and  C_17 
REMARK    7  A    between atoms: C_17  and  C_18 
REMARK    8  A    between atoms: C_28  and  C_29 
REMARK    9  A    between atoms: C_29  and  O_30 
REMARK   10  A    between atoms: C_32  and  O_33 
ROOT
HETATM    1  C   UNL     1     -46.418  57.993 -60.514  1.00  0.00     0.016 C 
HETATM    2  C   UNL     1     -45.501  59.116 -59.929  1.00  0.00    -0.030 C 
HETATM    3  C   UNL     1     -45.597  59.116 -58.335  1.00  0.00     0.056 C 
HETATM    4  C   UNL     1     -44.702  58.043 -57.749  1.00  0.00     0.056 C 
HETATM    5  C   UNL     1     -43.803  57.300 -58.486  1.00  0.00     0.012 C 
HETATM    6  S   UNL     1     -42.996  56.186 -57.491  1.00  0.00    -0.055 SA
HETATM    7  C   UNL     1     -43.721  56.918 -56.126  1.00  0.00     0.173 C 
HETATM    8  N   UNL     1     -44.610  57.854 -56.379  1.00  0.00    -0.227 NA
HETATM    9  C   UNL     1     -43.514  57.456 -59.935  1.00  0.00     0.055 C 
HETATM   10  C   UNL     1     -44.018  58.840 -60.430  1.00  0.00     0.012 C 
HETATM   11  C   UNL     1     -42.987  60.045 -60.253  1.00  0.00     0.008 C 
HETATM   12  C   UNL     1     -41.978  59.940 -61.435  1.00  0.00     0.020 C 
HETATM   13  C   UNL     1     -43.710  61.422 -60.389  1.00  0.00     0.128 C 
HETATM   14  C   UNL     1     -44.991  61.324 -61.206  1.00  0.00     0.033 C 
HETATM   15  C   UNL     1     -46.038  60.466 -60.498  1.00  0.00     0.013 C 
ENDROOT
BRANCH   7  16
HETATM   16  N   UNL     1     -43.239  56.681 -54.864  1.00  0.00    -0.305 N 
HETATM   17  C   UNL     1     -43.262  55.450 -54.247  1.00  0.00     0.227 C 
HETATM   18  O   UNL     1     -44.122  54.592 -54.428  1.00  0.00    -0.273 OA
HETATM   19  H   UNL     1     -42.825  57.487 -54.411  1.00  0.00     0.171 HD
BRANCH  17  20
HETATM   20  C   UNL     1     -42.074  55.229 -53.303  1.00  0.00     0.078 C 
HETATM   21  C   UNL     1     -41.941  53.763 -52.858  1.00  0.00     0.014 C 
HETATM   22  C   UNL     1     -41.419  52.828 -53.952  1.00  0.00     0.001 C 
HETATM   23  C   UNL     1     -40.146  53.354 -54.606  1.00  0.00     0.000 C 
HETATM   24  C   UNL     1     -40.309  54.790 -55.090  1.00  0.00     0.001 C 
HETATM   25  C   UNL     1     -40.769  55.713 -53.961  1.00  0.00     0.014 C 
ENDBRANCH  17  20
ENDBRANCH   7  16
BRANCH   3  26
HETATM   26  C   UNL     1     -47.050  58.980 -57.831  1.00  0.00     0.114 C 
BRANCH  26  27
HETATM   27  C   UNL     1     -47.740  60.294 -57.520  1.00  0.00     0.218 C 
HETATM   28  N   UNL     1     -49.100  60.293 -57.664  1.00  0.00    -0.359 N 
HETATM   29  H   UNL     1     -49.578  59.389 -57.656  1.00  0.00     0.162 HD
HETATM   30  O   UNL     1     -47.101  61.304 -57.229  1.00  0.00    -0.274 OA
BRANCH  28  31
HETATM   31  C   UNL     1     -49.884  61.495 -57.476  1.00  0.00     0.148 C 
BRANCH  31  32
HETATM   32  C   UNL     1     -50.418  61.624 -56.047  1.00  0.00     0.186 C 
BRANCH  32  33
HETATM   33  O   UNL     1     -51.838  61.436 -55.945  1.00  0.00    -0.394 OA
HETATM   34  C   UNL     1     -52.260  61.175 -54.608  1.00  0.00     0.201 C 
ENDBRANCH  32  33
ENDBRANCH  31  32
ENDBRANCH  28  31
ENDBRANCH  26  27
ENDBRANCH   3  26
BRANCH  11  35
HETATM   35  C   UNL     1     -42.155  60.054 -58.941  1.00  0.00     0.176 C 
BRANCH  35  36
HETATM   36  O   UNL     1     -41.291  61.180 -58.854  1.00  0.00    -0.400 OA
HETATM   37  H   UNL     1     -41.215  61.546 -59.752  1.00  0.00     0.209 HD
ENDBRANCH  35  36
ENDBRANCH  11  35
BRANCH  13  38
HETATM   38  O   UNL     1     -44.035  61.962 -59.107  1.00  0.00    -0.395 OA
HETATM   39  H   UNL     1     -44.763  61.431 -58.736  1.00  0.00     0.210 HD
ENDBRANCH  13  38
TORSDOF 10
ENDMDL
MODEL 8
REMARK VINA RESULT:      -6.5      2.712      8.449
REMARK  10 active torsions:
REMARK  status: ('A' for Active; 'I' for Inactive)
REMARK    1  A    between atoms: C_3  and  C_4 
REMARK    2  A    between atoms: C_4  and  C_5 
REMARK       I    between atoms: C_5  and  N_6 
REMARK    3  A    between atoms: N_6  and  C_7 
REMARK    4  A    between atoms: C_7  and  C_8 
REMARK    5  A    between atoms: C_8  and  O_9 
REMARK    6  A    between atoms: C_15  and  N_16 
REMARK       I    between atoms: N_16  and  C_17 
REMARK    7  A    between atoms: C_17  and  C_18 
REMARK    8  A    between atoms: C_28  and  C_29 
REMARK    9  A    between atoms: C_29  and  O_30 
REMARK   10  A    between atoms: C_32  and  O_33 
ROOT
HETATM    1  C   UNL     1     -41.766  58.043 -59.915  1.00  0.00     0.016 C 
HETATM    2  C   UNL     1     -43.141  58.551 -59.370  1.00  0.00    -0.030 C 
HETATM    3  C   UNL     1     -43.883  57.369 -58.596  1.00  0.00     0.056 C 
HETATM    4  C   UNL     1     -43.344  57.236 -57.187  1.00  0.00     0.056 C 
HETATM    5  C   UNL     1     -42.464  58.129 -56.609  1.00  0.00     0.012 C 
HETATM    6  S   UNL     1     -42.071  57.640 -55.032  1.00  0.00    -0.055 SA
HETATM    7  C   UNL     1     -43.261  56.416 -55.140  1.00  0.00     0.173 C 
HETATM    8  N   UNL     1     -43.840  56.280 -56.313  1.00  0.00    -0.227 NA
HETATM    9  C   UNL     1     -41.951  59.379 -57.225  1.00  0.00     0.055 C 
HETATM   10  C   UNL     1     -42.856  59.791 -58.420  1.00  0.00     0.012 C 
HETATM   11  C   UNL     1     -44.124  60.683 -58.039  1.00  0.00     0.008 C 
HETATM   12  C   UNL     1     -43.603  62.142 -57.872  1.00  0.00     0.020 C 
HETATM   13  C   UNL     1     -45.164  60.699 -59.203  1.00  0.00     0.128 C 
HETATM   14  C   UNL     1     -44.524  60.409 -60.553  1.00  0.00     0.033 C 
HETATM   15  C   UNL     1     -43.977  58.984 -60.615  1.00  0.00     0.013 C 
ENDROOT
BRANCH   7  16
HETATM   16  N   UNL     1     -43.716  55.777 -54.016  1.00  0.00    -0.305 N 
HETATM   17  C   UNL     1     -42.972  54.878 -53.284  1.00  0.00     0.227 C 
HETATM   18  O   UNL     1     -42.116  54.132 -53.754  1.00  0.00    -0.273 OA
HETATM   19  H   UNL     1     -44.652  56.038 -53.731  1.00  0.00     0.171 HD
BRANCH  17  20
HETATM   20  C   UNL     1     -43.299  54.906 -51.786  1.00  0.00     0.078 C 
HETATM   21  C   UNL     1     -42.287  54.109 -50.948  1.00  0.00     0.014 C 
HETATM   22  C   UNL     1     -40.926  54.795 -50.801  1.00  0.00     0.001 C 
HETATM   23  C   UNL     1     -41.053  56.242 -50.336  1.00  0.00     0.000 C 
HETATM   24  C   UNL     1     -42.019  57.034 -51.208  1.00  0.00     0.001 C 
HETATM   25  C   UNL     1     -43.389  56.359 -51.284  1.00  0.00     0.014 C 
ENDBRANCH  17  20
ENDBRANCH   7  16
BRANCH   3  26
HETATM   26  C   UNL     1     -43.815  56.028 -59.358  1.00  0.00     0.114 C 
BRANCH  26  27
HETATM   27  C   UNL     1     -45.079  55.661 -60.112  1.00  0.00     0.218 C 
HETATM   28  N   UNL     1     -46.159  56.468 -59.879  1.00  0.00    -0.359 N 
HETATM   29  H   UNL     1     -45.983  57.398 -59.494  1.00  0.00     0.162 HD
HETATM   30  O   UNL     1     -45.134  54.661 -60.826  1.00  0.00    -0.274 OA
BRANCH  28  31
HETATM   31  C   UNL     1     -47.451  56.194 -60.470  1.00  0.00     0.148 C 
BRANCH  31  32
HETATM   32  C   UNL     1     -47.617  56.853 -61.842  1.00  0.00     0.186 C 
BRANCH  32  33
HETATM   33  O   UNL     1     -48.440  58.029 -61.819  1.00  0.00    -0.394 OA
HETATM   34  C   UNL     1     -49.604  57.896 -62.631  1.00  0.00     0.201 C 
ENDBRANCH  32  33
ENDBRANCH  31  32
ENDBRANCH  28  31
ENDBRANCH  26  27
ENDBRANCH   3  26
BRANCH  11  35
HETATM   35  C   UNL     1     -44.862  60.308 -56.725  1.00  0.00     0.176 C 
BRANCH  35  36
HETATM   36  O   UNL     1     -44.562  61.201 -55.659  1.00  0.00    -0.400 OA
HETATM   37  H   UNL     1     -43.878  61.811 -55.988  1.00  0.00     0.209 HD
ENDBRANCH  35  36
ENDBRANCH  11  35
BRANCH  13  38
HETATM   38  O   UNL     1     -46.200  59.740 -58.981  1.00  0.00    -0.395 OA
HETATM   39  H   UNL     1     -45.802  58.970 -58.536  1.00  0.00     0.210 HD
ENDBRANCH  13  38
TORSDOF 10
ENDMDL
MODEL 9
REMARK VINA RESULT:      -6.5      2.617      6.282
REMARK  10 active torsions:
REMARK  status: ('A' for Active; 'I' for Inactive)
REMARK    1  A    between atoms: C_3  and  C_4 
REMARK    2  A    between atoms: C_4  and  C_5 
REMARK       I    between atoms: C_5  and  N_6 
REMARK    3  A    between atoms: N_6  and  C_7 
REMARK    4  A    between atoms: C_7  and  C_8 
REMARK    5  A    between atoms: C_8  and  O_9 
REMARK    6  A    between atoms: C_15  and  N_16 
REMARK       I    between atoms: N_16  and  C_17 
REMARK    7  A    between atoms: C_17  and  C_18 
REMARK    8  A    between atoms: C_28  and  C_29 
REMARK    9  A    between atoms: C_29  and  O_30 
REMARK   10  A    between atoms: C_32  and  O_33 
ROOT
HETATM    1  C   UNL     1     -41.944  58.139 -51.447  1.00  0.00     0.016 C 
HETATM    2  C   UNL     1     -42.597  56.760 -51.789  1.00  0.00    -0.030 C 
HETATM    3  C   UNL     1     -43.860  56.983 -52.740  1.00  0.00     0.056 C 
HETATM    4  C   UNL     1     -43.417  57.159 -54.178  1.00  0.00     0.056 C 
HETATM    5  C   UNL     1     -42.122  56.974 -54.615  1.00  0.00     0.012 C 
HETATM    6  S   UNL     1     -42.007  57.282 -56.281  1.00  0.00    -0.055 SA
HETATM    7  C   UNL     1     -43.711  57.413 -56.349  1.00  0.00     0.173 C 
HETATM    8  N   UNL     1     -44.338  57.360 -55.195  1.00  0.00    -0.227 NA
HETATM    9  C   UNL     1     -40.973  56.520 -53.790  1.00  0.00     0.055 C 
HETATM   10  C   UNL     1     -41.488  55.858 -52.482  1.00  0.00     0.012 C 
HETATM   11  C   UNL     1     -41.825  54.301 -52.592  1.00  0.00     0.008 C 
HETATM   12  C   UNL     1     -40.465  53.548 -52.491  1.00  0.00     0.020 C 
HETATM   13  C   UNL     1     -42.699  53.833 -51.386  1.00  0.00     0.128 C 
HETATM   14  C   UNL     1     -42.526  54.728 -50.166  1.00  0.00     0.033 C 
HETATM   15  C   UNL     1     -43.051  56.138 -50.432  1.00  0.00     0.013 C 
ENDROOT
BRANCH   7  16
HETATM   16  N   UNL     1     -44.372  57.361 -57.550  1.00  0.00    -0.305 N 
HETATM   17  C   UNL     1     -44.622  58.459 -58.342  1.00  0.00     0.227 C 
HETATM   18  O   UNL     1     -44.811  59.597 -57.920  1.00  0.00    -0.273 OA
HETATM   19  H   UNL     1     -44.646  56.430 -57.841  1.00  0.00     0.171 HD
BRANCH  17  20
HETATM   20  C   UNL     1     -44.622  58.133 -59.840  1.00  0.00     0.078 C 
HETATM   21  C   UNL     1     -44.463  59.386 -60.715  1.00  0.00     0.014 C 
HETATM   22  C   UNL     1     -43.049  59.974 -60.706  1.00  0.00     0.001 C 
HETATM   23  C   UNL     1     -41.983  58.924 -60.997  1.00  0.00     0.000 C 
HETATM   24  C   UNL     1     -42.120  57.710 -60.086  1.00  0.00     0.001 C 
HETATM   25  C   UNL     1     -43.522  57.106 -60.165  1.00  0.00     0.014 C 
ENDBRANCH  17  20
ENDBRANCH   7  16
BRANCH   3  26
HETATM   26  C   UNL     1     -44.752  58.153 -52.273  1.00  0.00     0.114 C 
BRANCH  26  27
HETATM   27  C   UNL     1     -44.610  59.425 -53.087  1.00  0.00     0.218 C 
HETATM   28  N   UNL     1     -45.660  59.714 -53.914  1.00  0.00    -0.359 N 
HETATM   29  H   UNL     1     -46.559  59.270 -53.715  1.00  0.00     0.162 HD
HETATM   30  O   UNL     1     -43.584  60.102 -53.049  1.00  0.00    -0.274 OA
BRANCH  28  31
HETATM   31  C   UNL     1     -45.631  60.854 -54.806  1.00  0.00     0.148 C 
BRANCH  31  32
HETATM   32  C   UNL     1     -46.440  62.037 -54.266  1.00  0.00     0.186 C 
BRANCH  32  33
HETATM   33  O   UNL     1     -47.621  62.321 -55.031  1.00  0.00    -0.394 OA
HETATM   34  C   UNL     1     -47.436  62.092 -56.426  1.00  0.00     0.201 C 
ENDBRANCH  32  33
ENDBRANCH  31  32
ENDBRANCH  28  31
ENDBRANCH  26  27
ENDBRANCH   3  26
BRANCH  11  35
HETATM   35  C   UNL     1     -42.509  53.834 -53.906  1.00  0.00     0.176 C 
BRANCH  35  36
HETATM   36  O   UNL     1     -41.646  53.049 -54.718  1.00  0.00    -0.400 OA
HETATM   37  H   UNL     1     -41.929  53.183 -55.640  1.00  0.00     0.209 HD
ENDBRANCH  35  36
ENDBRANCH  11  35
BRANCH  13  38
HETATM   38  O   UNL     1     -44.085  53.809 -51.733  1.00  0.00    -0.395 OA
HETATM   39  H   UNL     1     -44.531  53.186 -51.132  1.00  0.00     0.210 HD
ENDBRANCH  13  38
TORSDOF 10
ENDMDL
MODEL 10
REMARK VINA RESULT:      -6.3      2.754      7.962
REMARK  10 active torsions:
REMARK  status: ('A' for Active; 'I' for Inactive)
REMARK    1  A    between atoms: C_3  and  C_4 
REMARK    2  A    between atoms: C_4  and  C_5 
REMARK       I    between atoms: C_5  and  N_6 
REMARK    3  A    between atoms: N_6  and  C_7 
REMARK    4  A    between atoms: C_7  and  C_8 
REMARK    5  A    between atoms: C_8  and  O_9 
REMARK    6  A    between atoms: C_15  and  N_16 
REMARK       I    between atoms: N_16  and  C_17 
REMARK    7  A    between atoms: C_17  and  C_18 
REMARK    8  A    between atoms: C_28  and  C_29 
REMARK    9  A    between atoms: C_29  and  O_30 
REMARK   10  A    between atoms: C_32  and  O_33 
ROOT
HETATM    1  C   UNL     1     -45.281  58.096 -52.406  1.00  0.00     0.016 C 
HETATM    2  C   UNL     1     -44.070  58.382 -53.353  1.00  0.00    -0.030 C 
HETATM    3  C   UNL     1     -42.704  58.040 -52.601  1.00  0.00     0.056 C 
HETATM    4  C   UNL     1     -42.428  56.552 -52.653  1.00  0.00     0.056 C 
HETATM    5  C   UNL     1     -43.165  55.655 -53.400  1.00  0.00     0.012 C 
HETATM    6  S   UNL     1     -42.570  54.078 -53.190  1.00  0.00    -0.055 SA
HETATM    7  C   UNL     1     -41.247  54.719 -52.316  1.00  0.00     0.173 C 
HETATM    8  N   UNL     1     -41.290  56.011 -52.073  1.00  0.00    -0.227 NA
HETATM    9  C   UNL     1     -44.291  55.987 -54.310  1.00  0.00     0.055 C 
HETATM   10  C   UNL     1     -44.261  57.500 -54.661  1.00  0.00     0.012 C 
HETATM   11  C   UNL     1     -43.343  57.893 -55.906  1.00  0.00     0.008 C 
HETATM   12  C   UNL     1     -44.171  57.567 -57.185  1.00  0.00     0.020 C 
HETATM   13  C   UNL     1     -43.056  59.427 -55.925  1.00  0.00     0.128 C 
HETATM   14  C   UNL     1     -44.125  60.224 -55.190  1.00  0.00     0.033 C 
HETATM   15  C   UNL     1     -44.127  59.904 -53.696  1.00  0.00     0.013 C 
ENDROOT
BRANCH   7  16
HETATM   16  N   UNL     1     -40.129  53.962 -52.079  1.00  0.00    -0.305 N 
HETATM   17  C   UNL     1     -40.148  52.723 -51.477  1.00  0.00     0.227 C 
HETATM   18  O   UNL     1     -40.959  52.373 -50.625  1.00  0.00    -0.273 OA
HETATM   19  H   UNL     1     -39.264  54.370 -52.413  1.00  0.00     0.171 HD
BRANCH  17  20
HETATM   20  C   UNL     1     -39.050  51.787 -51.995  1.00  0.00     0.078 C 
HETATM   21  C   UNL     1     -39.275  50.326 -51.573  1.00  0.00     0.014 C 
HETATM   22  C   UNL     1     -40.411  49.631 -52.329  1.00  0.00     0.001 C 
HETATM   23  C   UNL     1     -40.282  49.786 -53.840  1.00  0.00     0.000 C 
HETATM   24  C   UNL     1     -40.112  51.244 -54.247  1.00  0.00     0.001 C 
HETATM   25  C   UNL     1     -38.931  51.893 -53.526  1.00  0.00     0.014 C 
ENDBRANCH  17  20
ENDBRANCH   7  16
BRANCH   3  26
HETATM   26  C   UNL     1     -42.679  58.572 -51.152  1.00  0.00     0.114 C 
BRANCH  26  27
HETATM   27  C   UNL     1     -42.123  59.975 -50.999  1.00  0.00     0.218 C 
HETATM   28  N   UNL     1     -42.992  60.899 -50.486  1.00  0.00    -0.359 N 
HETATM   29  H   UNL     1     -43.801  60.553 -49.966  1.00  0.00     0.162 HD
HETATM   30  O   UNL     1     -40.990  60.263 -51.381  1.00  0.00    -0.274 OA
BRANCH  28  31
HETATM   31  C   UNL     1     -42.625  62.293 -50.355  1.00  0.00     0.148 C 
BRANCH  31  32
HETATM   32  C   UNL     1     -43.735  63.234 -50.828  1.00  0.00     0.186 C 
BRANCH  32  33
HETATM   33  O   UNL     1     -44.920  62.552 -51.265  1.00  0.00    -0.394 OA
HETATM   34  C   UNL     1     -45.475  63.123 -52.448  1.00  0.00     0.201 C 
ENDBRANCH  32  33
ENDBRANCH  31  32
ENDBRANCH  28  31
ENDBRANCH  26  27
ENDBRANCH   3  26
BRANCH  11  35
HETATM   35  C   UNL     1     -41.991  57.138 -56.032  1.00  0.00     0.176 C 
BRANCH  35  36
HETATM   36  O   UNL     1     -42.033  56.108 -57.011  1.00  0.00    -0.400 OA
HETATM   37  H   UNL     1     -41.112  55.921 -57.262  1.00  0.00     0.209 HD
ENDBRANCH  35  36
ENDBRANCH  11  35
BRANCH  13  38
HETATM   38  O   UNL     1     -41.789  59.722 -55.334  1.00  0.00    -0.395 OA
HETATM   39  H   UNL     1     -41.902  59.710 -54.367  1.00  0.00     0.210 HD
ENDBRANCH  13  38
TORSDOF 10
ENDMDL
