MODEL 1
REMARK VINA RESULT:      -7.9      0.000      0.000
REMARK  9 active torsions:
REMARK  status: ('A' for Active; 'I' for Inactive)
REMARK    1  A    between atoms: C_6  and  C_7 
REMARK    2  A    between atoms: C_7  and  C_8 
REMARK       I    between atoms: C_8  and  N_9 
REMARK    3  A    between atoms: N_9  and  C_10 
REMARK    4  A    between atoms: C_10  and  C_11 
REMARK    5  A    between atoms: C_11  and  N_12 
REMARK    6  A    between atoms: C_20  and  C_21 
REMARK    7  A    between atoms: C_24  and  C_25 
REMARK    8  A    between atoms: C_32  and  C_33 
REMARK    9  A    between atoms: C_33  and  O_34 
ROOT
HETATM    1  C   UNL     1     -41.912  59.603 -56.681  1.00  0.00     0.071 C 
HETATM    2  C   UNL     1     -42.143  58.780 -55.440  1.00  0.00     0.048 C 
HETATM    3  N   UNL     1     -41.361  59.179 -54.359  1.00  0.00    -0.229 NA
HETATM    4  C   UNL     1     -41.721  58.759 -53.193  1.00  0.00     0.170 C 
HETATM    5  N   UNL     1     -42.933  57.820 -52.991  1.00  0.00    -0.319 N 
HETATM    6  C   UNL     1     -43.560  58.135 -51.911  1.00  0.00     0.011 C 
HETATM    7  C   UNL     1     -43.057  56.872 -54.123  1.00  0.00     0.166 C 
HETATM    8  S   UNL     1     -41.145  59.374 -51.690  1.00  0.00    -0.086 SA
HETATM    9  C   UNL     1     -42.727  58.914 -50.902  1.00  0.00     0.135 C 
HETATM   10  C   UNL     1     -43.005  57.735 -55.361  1.00  0.00     0.069 C 
ENDROOT
BRANCH   6  11
HETATM   11  C   UNL     1     -45.024  57.839 -51.733  1.00  0.00     0.156 C 
BRANCH  11  12
HETATM   12  C   UNL     1     -45.713  59.075 -51.170  1.00  0.00     0.223 C 
HETATM   13  N   UNL     1     -45.697  60.202 -51.947  1.00  0.00    -0.359 N 
HETATM   14  H   UNL     1     -45.461  60.127 -52.934  1.00  0.00     0.162 HD
HETATM   15  O   UNL     1     -46.107  59.096 -50.007  1.00  0.00    -0.273 OA
BRANCH  13  16
HETATM   16  C   UNL     1     -45.825  61.574 -51.426  1.00  0.00     0.150 C 
BRANCH  16  17
HETATM   17  C   UNL     1     -44.909  62.002 -50.249  1.00  0.00     0.254 C 
BRANCH  17  18
HETATM   18  N   UNL     1     -45.545  61.793 -48.890  1.00  0.00    -0.070 N 
HETATM   19  H   UNL     1     -46.222  61.014 -49.015  1.00  0.00     0.279 HD
HETATM   20  C   UNL     1     -44.589  61.369 -47.799  1.00  0.00     0.235 C 
HETATM   21  C   UNL     1     -45.388  60.958 -46.568  1.00  0.00     0.028 C 
HETATM   22  C   UNL     1     -46.313  62.075 -46.096  1.00  0.00     0.003 C 
HETATM   23  C   UNL     1     -47.191  62.592 -47.229  1.00  0.00     0.028 C 
HETATM   24  C   UNL     1     -46.373  62.981 -48.453  1.00  0.00     0.235 C 
ENDBRANCH  17  18
ENDBRANCH  16  17
ENDBRANCH  13  16
ENDBRANCH  11  12
ENDBRANCH   6  11
BRANCH   7  25
HETATM   25  C   UNL     1     -41.881  55.877 -53.997  1.00  0.00    -0.030 C 
HETATM   26  C   UNL     1     -41.302  55.307 -55.150  1.00  0.00     0.010 C 
HETATM   27  C   UNL     1     -40.554  54.129 -55.063  1.00  0.00     0.008 C 
HETATM   28  C   UNL     1     -40.321  53.519 -53.826  1.00  0.00    -0.055 C 
HETATM   29  C   UNL     1     -40.724  54.193 -52.669  1.00  0.00     0.008 C 
HETATM   30  C   UNL     1     -41.479  55.365 -52.752  1.00  0.00     0.010 C 
BRANCH  28  31
HETATM   31  C   UNL     1     -39.723  52.123 -53.759  1.00  0.00     0.010 C 
HETATM   32  C   UNL     1     -39.375  51.690 -52.337  1.00  0.00     0.015 C 
HETATM   33  C   UNL     1     -40.674  51.112 -54.416  1.00  0.00     0.015 C 
ENDBRANCH  28  31
ENDBRANCH   7  25
BRANCH  10  34
HETATM   34  C   UNL     1     -43.976  57.323 -56.394  1.00  0.00     0.293 C 
HETATM   35  O   UNL     1     -43.678  56.551 -57.287  1.00  0.00    -0.259 OA
BRANCH  34  36
HETATM   36  O   UNL     1     -45.220  57.725 -56.052  1.00  0.00    -0.323 OA
HETATM   37  C   UNL     1     -45.793  58.689 -56.945  1.00  0.00     0.213 C 
ENDBRANCH  34  36
ENDBRANCH  10  34
TORSDOF 9
ENDMDL
MODEL 2
REMARK VINA RESULT:      -7.8      4.371      8.673
REMARK  9 active torsions:
REMARK  status: ('A' for Active; 'I' for Inactive)
REMARK    1  A    between atoms: C_6  and  C_7 
REMARK    2  A    between atoms: C_7  and  C_8 
REMARK       I    between atoms: C_8  and  N_9 
REMARK    3  A    between atoms: N_9  and  C_10 
REMARK    4  A    between atoms: C_10  and  C_11 
REMARK    5  A    between atoms: C_11  and  N_12 
REMARK    6  A    between atoms: C_20  and  C_21 
REMARK    7  A    between atoms: C_24  and  C_25 
REMARK    8  A    between atoms: C_32  and  C_33 
REMARK    9  A    between atoms: C_33  and  O_34 
ROOT
HETATM    1  C   UNL     1     -46.602  57.386 -59.169  1.00  0.00     0.071 C 
HETATM    2  C   UNL     1     -45.371  57.800 -58.405  1.00  0.00     0.048 C 
HETATM    3  N   UNL     1     -45.642  58.662 -57.345  1.00  0.00    -0.229 NA
HETATM    4  C   UNL     1     -44.717  58.802 -56.457  1.00  0.00     0.170 C 
HETATM    5  N   UNL     1     -43.348  58.090 -56.570  1.00  0.00    -0.319 N 
HETATM    6  C   UNL     1     -42.949  57.713 -55.404  1.00  0.00     0.011 C 
HETATM    7  C   UNL     1     -42.923  57.995 -57.985  1.00  0.00     0.166 C 
HETATM    8  S   UNL     1     -44.927  59.519 -54.904  1.00  0.00    -0.086 SA
HETATM    9  C   UNL     1     -43.583  58.471 -54.245  1.00  0.00     0.135 C 
HETATM   10  C   UNL     1     -44.109  57.406 -58.711  1.00  0.00     0.069 C 
ENDROOT
BRANCH   6  11
HETATM   11  C   UNL     1     -42.014  56.549 -55.228  1.00  0.00     0.156 C 
BRANCH  11  12
HETATM   12  C   UNL     1     -42.525  55.673 -54.091  1.00  0.00     0.223 C 
HETATM   13  N   UNL     1     -41.766  55.629 -52.953  1.00  0.00    -0.359 N 
HETATM   14  H   UNL     1     -41.051  56.336 -52.800  1.00  0.00     0.162 HD
HETATM   15  O   UNL     1     -43.477  54.916 -54.265  1.00  0.00    -0.273 OA
BRANCH  13  16
HETATM   16  C   UNL     1     -41.777  54.516 -51.988  1.00  0.00     0.150 C 
BRANCH  16  17
HETATM   17  C   UNL     1     -40.455  53.741 -51.743  1.00  0.00     0.254 C 
BRANCH  17  18
HETATM   18  N   UNL     1     -40.427  52.381 -52.408  1.00  0.00    -0.070 N 
HETATM   19  H   UNL     1     -41.323  51.923 -52.146  1.00  0.00     0.279 HD
HETATM   20  C   UNL     1     -40.376  52.411 -53.917  1.00  0.00     0.235 C 
HETATM   21  C   UNL     1     -40.601  51.002 -54.452  1.00  0.00     0.028 C 
HETATM   22  C   UNL     1     -39.591  50.013 -53.881  1.00  0.00     0.003 C 
HETATM   23  C   UNL     1     -39.549  50.071 -52.358  1.00  0.00     0.028 C 
HETATM   24  C   UNL     1     -39.340  51.490 -51.847  1.00  0.00     0.235 C 
ENDBRANCH  17  18
ENDBRANCH  16  17
ENDBRANCH  13  16
ENDBRANCH  11  12
ENDBRANCH   6  11
BRANCH   7  25
HETATM   25  C   UNL     1     -42.555  59.427 -58.434  1.00  0.00    -0.030 C 
HETATM   26  C   UNL     1     -42.905  59.883 -59.722  1.00  0.00     0.010 C 
HETATM   27  C   UNL     1     -42.244  60.974 -60.295  1.00  0.00     0.008 C 
HETATM   28  C   UNL     1     -41.259  61.668 -59.584  1.00  0.00    -0.055 C 
HETATM   29  C   UNL     1     -41.057  61.339 -58.240  1.00  0.00     0.008 C 
HETATM   30  C   UNL     1     -41.708  60.245 -57.667  1.00  0.00     0.010 C 
BRANCH  28  31
HETATM   31  C   UNL     1     -40.379  62.688 -60.289  1.00  0.00     0.010 C 
HETATM   32  C   UNL     1     -40.355  62.508 -61.805  1.00  0.00     0.015 C 
HETATM   33  C   UNL     1     -40.824  64.111 -59.919  1.00  0.00     0.015 C 
ENDBRANCH  28  31
ENDBRANCH   7  25
BRANCH  10  34
HETATM   34  C   UNL     1     -43.730  56.393 -59.714  1.00  0.00     0.293 C 
HETATM   35  O   UNL     1     -43.184  56.694 -60.761  1.00  0.00    -0.259 OA
BRANCH  34  36
HETATM   36  O   UNL     1     -43.854  55.151 -59.195  1.00  0.00    -0.323 OA
HETATM   37  C   UNL     1     -44.744  54.295 -59.924  1.00  0.00     0.213 C 
ENDBRANCH  34  36
ENDBRANCH  10  34
TORSDOF 9
ENDMDL
MODEL 3
REMARK VINA RESULT:      -7.7      3.712      6.372
REMARK  9 active torsions:
REMARK  status: ('A' for Active; 'I' for Inactive)
REMARK    1  A    between atoms: C_6  and  C_7 
REMARK    2  A    between atoms: C_7  and  C_8 
REMARK       I    between atoms: C_8  and  N_9 
REMARK    3  A    between atoms: N_9  and  C_10 
REMARK    4  A    between atoms: C_10  and  C_11 
REMARK    5  A    between atoms: C_11  and  N_12 
REMARK    6  A    between atoms: C_20  and  C_21 
REMARK    7  A    between atoms: C_24  and  C_25 
REMARK    8  A    between atoms: C_32  and  C_33 
REMARK    9  A    between atoms: C_33  and  O_34 
ROOT
HETATM    1  C   UNL     1     -44.296  54.515 -50.228  1.00  0.00     0.071 C 
HETATM    2  C   UNL     1     -43.233  54.832 -51.249  1.00  0.00     0.048 C 
HETATM    3  N   UNL     1     -43.644  54.613 -52.561  1.00  0.00    -0.229 NA
HETATM    4  C   UNL     1     -42.935  55.157 -53.492  1.00  0.00     0.170 C 
HETATM    5  N   UNL     1     -41.660  55.978 -53.187  1.00  0.00    -0.319 N 
HETATM    6  C   UNL     1     -41.578  56.981 -53.991  1.00  0.00     0.011 C 
HETATM    7  C   UNL     1     -40.937  55.410 -52.026  1.00  0.00     0.166 C 
HETATM    8  S   UNL     1     -43.414  55.328 -55.139  1.00  0.00    -0.086 SA
HETATM    9  C   UNL     1     -42.374  56.823 -55.280  1.00  0.00     0.135 C 
HETATM   10  C   UNL     1     -41.983  55.267 -50.947  1.00  0.00     0.069 C 
ENDROOT
BRANCH   6  11
HETATM   11  C   UNL     1     -40.836  58.234 -53.616  1.00  0.00     0.156 C 
BRANCH  11  12
HETATM   12  C   UNL     1     -41.690  59.441 -53.984  1.00  0.00     0.223 C 
HETATM   13  N   UNL     1     -42.712  59.761 -53.131  1.00  0.00    -0.359 N 
HETATM   14  H   UNL     1     -42.725  59.366 -52.194  1.00  0.00     0.162 HD
HETATM   15  O   UNL     1     -41.565  59.985 -55.079  1.00  0.00    -0.273 OA
BRANCH  13  16
HETATM   16  C   UNL     1     -43.919  60.511 -53.523  1.00  0.00     0.150 C 
BRANCH  16  17
HETATM   17  C   UNL     1     -45.057  59.744 -54.247  1.00  0.00     0.254 C 
BRANCH  17  18
HETATM   18  N   UNL     1     -44.751  59.451 -55.701  1.00  0.00    -0.070 N 
HETATM   19  H   UNL     1     -43.782  59.074 -55.712  1.00  0.00     0.279 HD
HETATM   20  C   UNL     1     -45.634  58.404 -56.339  1.00  0.00     0.235 C 
HETATM   21  C   UNL     1     -45.063  58.034 -57.702  1.00  0.00     0.028 C 
HETATM   22  C   UNL     1     -44.910  59.256 -58.602  1.00  0.00     0.003 C 
HETATM   23  C   UNL     1     -44.126  60.365 -57.910  1.00  0.00     0.028 C 
HETATM   24  C   UNL     1     -44.704  60.707 -56.543  1.00  0.00     0.235 C 
ENDBRANCH  17  18
ENDBRANCH  16  17
ENDBRANCH  13  16
ENDBRANCH  11  12
ENDBRANCH   6  11
BRANCH   7  25
HETATM   25  C   UNL     1     -40.327  54.070 -52.496  1.00  0.00    -0.030 C 
HETATM   26  C   UNL     1     -40.381  53.700 -53.856  1.00  0.00     0.010 C 
HETATM   27  C   UNL     1     -40.229  52.363 -54.237  1.00  0.00     0.008 C 
HETATM   28  C   UNL     1     -39.970  51.373 -53.283  1.00  0.00    -0.055 C 
HETATM   29  C   UNL     1     -39.718  51.771 -51.967  1.00  0.00     0.008 C 
HETATM   30  C   UNL     1     -39.878  53.103 -51.581  1.00  0.00     0.010 C 
BRANCH  28  31
HETATM   31  C   UNL     1     -40.047  49.903 -53.663  1.00  0.00     0.010 C 
HETATM   32  C   UNL     1     -39.440  49.608 -55.033  1.00  0.00     0.015 C 
HETATM   33  C   UNL     1     -39.380  49.044 -52.578  1.00  0.00     0.015 C 
ENDBRANCH  28  31
ENDBRANCH   7  25
BRANCH  10  34
HETATM   34  C   UNL     1     -41.496  55.663 -49.611  1.00  0.00     0.293 C 
HETATM   35  O   UNL     1     -41.258  56.824 -49.330  1.00  0.00    -0.259 OA
BRANCH  34  36
HETATM   36  O   UNL     1     -41.596  54.625 -48.750  1.00  0.00    -0.323 OA
HETATM   37  C   UNL     1     -40.342  54.180 -48.218  1.00  0.00     0.213 C 
ENDBRANCH  34  36
ENDBRANCH  10  34
TORSDOF 9
ENDMDL
MODEL 4
REMARK VINA RESULT:      -7.7      2.603      4.651
REMARK  9 active torsions:
REMARK  status: ('A' for Active; 'I' for Inactive)
REMARK    1  A    between atoms: C_6  and  C_7 
REMARK    2  A    between atoms: C_7  and  C_8 
REMARK       I    between atoms: C_8  and  N_9 
REMARK    3  A    between atoms: N_9  and  C_10 
REMARK    4  A    between atoms: C_10  and  C_11 
REMARK    5  A    between atoms: C_11  and  N_12 
REMARK    6  A    between atoms: C_20  and  C_21 
REMARK    7  A    between atoms: C_24  and  C_25 
REMARK    8  A    between atoms: C_32  and  C_33 
REMARK    9  A    between atoms: C_33  and  O_34 
ROOT
HETATM    1  C   UNL     1     -44.266  54.286 -50.226  1.00  0.00     0.071 C 
HETATM    2  C   UNL     1     -43.301  54.664 -51.320  1.00  0.00     0.048 C 
HETATM    3  N   UNL     1     -43.728  54.284 -52.590  1.00  0.00    -0.229 NA
HETATM    4  C   UNL     1     -43.142  54.844 -53.594  1.00  0.00     0.170 C 
HETATM    5  N   UNL     1     -41.986  55.857 -53.416  1.00  0.00    -0.319 N 
HETATM    6  C   UNL     1     -42.080  56.792 -54.297  1.00  0.00     0.011 C 
HETATM    7  C   UNL     1     -41.144  55.491 -52.254  1.00  0.00     0.166 C 
HETATM    8  S   UNL     1     -43.705  54.811 -55.222  1.00  0.00    -0.086 SA
HETATM    9  C   UNL     1     -42.895  56.421 -55.528  1.00  0.00     0.135 C 
HETATM   10  C   UNL     1     -42.115  55.292 -51.115  1.00  0.00     0.069 C 
ENDROOT
BRANCH   6  11
HETATM   11  C   UNL     1     -41.510  58.163 -54.055  1.00  0.00     0.156 C 
BRANCH  11  12
HETATM   12  C   UNL     1     -42.295  58.833 -52.934  1.00  0.00     0.223 C 
HETATM   13  N   UNL     1     -43.646  58.616 -52.907  1.00  0.00    -0.359 N 
HETATM   14  H   UNL     1     -44.042  57.853 -53.451  1.00  0.00     0.162 HD
HETATM   15  O   UNL     1     -41.757  59.660 -52.203  1.00  0.00    -0.273 OA
BRANCH  13  16
HETATM   16  C   UNL     1     -44.622  59.523 -52.278  1.00  0.00     0.150 C 
BRANCH  16  17
HETATM   17  C   UNL     1     -44.930  59.340 -50.768  1.00  0.00     0.254 C 
BRANCH  17  18
HETATM   18  N   UNL     1     -44.520  60.530 -49.925  1.00  0.00    -0.070 N 
HETATM   19  H   UNL     1     -43.624  60.256 -49.473  1.00  0.00     0.279 HD
HETATM   20  C   UNL     1     -44.248  61.797 -50.702  1.00  0.00     0.235 C 
HETATM   21  C   UNL     1     -43.613  62.824 -49.773  1.00  0.00     0.028 C 
HETATM   22  C   UNL     1     -44.485  63.097 -48.553  1.00  0.00     0.003 C 
HETATM   23  C   UNL     1     -44.867  61.806 -47.838  1.00  0.00     0.028 C 
HETATM   24  C   UNL     1     -45.484  60.788 -48.788  1.00  0.00     0.235 C 
ENDBRANCH  17  18
ENDBRANCH  16  17
ENDBRANCH  13  16
ENDBRANCH  11  12
ENDBRANCH   6  11
BRANCH   7  25
HETATM   25  C   UNL     1     -40.368  54.215 -52.653  1.00  0.00    -0.030 C 
HETATM   26  C   UNL     1     -40.258  53.842 -54.008  1.00  0.00     0.010 C 
HETATM   27  C   UNL     1     -39.944  52.526 -54.361  1.00  0.00     0.008 C 
HETATM   28  C   UNL     1     -39.683  51.565 -53.378  1.00  0.00    -0.055 C 
HETATM   29  C   UNL     1     -39.596  51.985 -52.047  1.00  0.00     0.008 C 
HETATM   30  C   UNL     1     -39.917  53.296 -51.690  1.00  0.00     0.010 C 
BRANCH  28  31
HETATM   31  C   UNL     1     -39.585  50.094 -53.750  1.00  0.00     0.010 C 
HETATM   32  C   UNL     1     -39.548  49.171 -52.534  1.00  0.00     0.015 C 
HETATM   33  C   UNL     1     -40.741  49.710 -54.686  1.00  0.00     0.015 C 
ENDBRANCH  28  31
ENDBRANCH   7  25
BRANCH  10  34
HETATM   34  C   UNL     1     -41.637  55.860 -49.840  1.00  0.00     0.293 C 
HETATM   35  O   UNL     1     -41.404  57.048 -49.710  1.00  0.00    -0.259 OA
BRANCH  34  36
HETATM   36  O   UNL     1     -41.739  54.942 -48.852  1.00  0.00    -0.323 OA
HETATM   37  C   UNL     1     -40.489  54.362 -48.457  1.00  0.00     0.213 C 
ENDBRANCH  34  36
ENDBRANCH  10  34
TORSDOF 9
ENDMDL
MODEL 5
REMARK VINA RESULT:      -7.6      4.249      7.447
REMARK  9 active torsions:
REMARK  status: ('A' for Active; 'I' for Inactive)
REMARK    1  A    between atoms: C_6  and  C_7 
REMARK    2  A    between atoms: C_7  and  C_8 
REMARK       I    between atoms: C_8  and  N_9 
REMARK    3  A    between atoms: N_9  and  C_10 
REMARK    4  A    between atoms: C_10  and  C_11 
REMARK    5  A    between atoms: C_11  and  N_12 
REMARK    6  A    between atoms: C_20  and  C_21 
REMARK    7  A    between atoms: C_24  and  C_25 
REMARK    8  A    between atoms: C_32  and  C_33 
REMARK    9  A    between atoms: C_33  and  O_34 
ROOT
HETATM    1  C   UNL     1     -44.295  54.600 -50.221  1.00  0.00     0.071 C 
HETATM    2  C   UNL     1     -43.369  54.856 -51.382  1.00  0.00     0.048 C 
HETATM    3  N   UNL     1     -43.795  54.267 -52.569  1.00  0.00    -0.229 NA
HETATM    4  C   UNL     1     -43.255  54.696 -53.660  1.00  0.00     0.170 C 
HETATM    5  N   UNL     1     -42.153  55.782 -53.665  1.00  0.00    -0.319 N 
HETATM    6  C   UNL     1     -42.311  56.567 -54.673  1.00  0.00     0.011 C 
HETATM    7  C   UNL     1     -41.274  55.640 -52.481  1.00  0.00     0.166 C 
HETATM    8  S   UNL     1     -43.842  54.389 -55.251  1.00  0.00    -0.086 SA
HETATM    9  C   UNL     1     -43.125  55.973 -55.815  1.00  0.00     0.135 C 
HETATM   10  C   UNL     1     -42.215  55.566 -51.303  1.00  0.00     0.069 C 
ENDROOT
BRANCH   6  11
HETATM   11  C   UNL     1     -41.812  57.985 -54.654  1.00  0.00     0.156 C 
BRANCH  11  12
HETATM   12  C   UNL     1     -42.616  58.805 -55.657  1.00  0.00     0.223 C 
HETATM   13  N   UNL     1     -42.120  58.886 -56.930  1.00  0.00    -0.359 N 
HETATM   14  H   UNL     1     -41.404  58.230 -57.232  1.00  0.00     0.162 HD
HETATM   15  O   UNL     1     -43.563  59.493 -55.285  1.00  0.00    -0.273 OA
BRANCH  13  16
HETATM   16  C   UNL     1     -42.418  59.981 -57.871  1.00  0.00     0.150 C 
BRANCH  16  17
HETATM   17  C   UNL     1     -43.054  59.622 -59.240  1.00  0.00     0.254 C 
BRANCH  17  18
HETATM   18  N   UNL     1     -43.565  58.197 -59.307  1.00  0.00    -0.070 N 
HETATM   19  H   UNL     1     -43.630  57.877 -58.321  1.00  0.00     0.279 HD
HETATM   20  C   UNL     1     -44.941  58.043 -59.910  1.00  0.00     0.235 C 
HETATM   21  C   UNL     1     -45.425  56.615 -59.689  1.00  0.00     0.028 C 
HETATM   22  C   UNL     1     -44.449  55.593 -60.263  1.00  0.00     0.003 C 
HETATM   23  C   UNL     1     -43.031  55.826 -59.754  1.00  0.00     0.028 C 
HETATM   24  C   UNL     1     -42.576  57.263 -59.970  1.00  0.00     0.235 C 
ENDBRANCH  17  18
ENDBRANCH  16  17
ENDBRANCH  13  16
ENDBRANCH  11  12
ENDBRANCH   6  11
BRANCH   7  25
HETATM   25  C   UNL     1     -40.437  54.359 -52.701  1.00  0.00    -0.030 C 
HETATM   26  C   UNL     1     -40.179  53.892 -54.007  1.00  0.00     0.010 C 
HETATM   27  C   UNL     1     -39.806  52.563 -54.226  1.00  0.00     0.008 C 
HETATM   28  C   UNL     1     -39.631  51.682 -53.153  1.00  0.00    -0.055 C 
HETATM   29  C   UNL     1     -39.692  52.199 -51.856  1.00  0.00     0.008 C 
HETATM   30  C   UNL     1     -40.073  53.524 -51.632  1.00  0.00     0.010 C 
BRANCH  28  31
HETATM   31  C   UNL     1     -39.467  50.191 -53.403  1.00  0.00     0.010 C 
HETATM   32  C   UNL     1     -39.697  49.347 -52.151  1.00  0.00     0.015 C 
HETATM   33  C   UNL     1     -40.401  49.743 -54.537  1.00  0.00     0.015 C 
ENDBRANCH  28  31
ENDBRANCH   7  25
BRANCH  10  34
HETATM   34  C   UNL     1     -41.748  56.344 -50.139  1.00  0.00     0.293 C 
HETATM   35  O   UNL     1     -41.187  55.818 -49.194  1.00  0.00    -0.259 OA
BRANCH  34  36
HETATM   36  O   UNL     1     -41.820  57.668 -50.402  1.00  0.00    -0.323 OA
HETATM   37  C   UNL     1     -40.549  58.295 -50.620  1.00  0.00     0.213 C 
ENDBRANCH  34  36
ENDBRANCH  10  34
TORSDOF 9
ENDMDL
MODEL 6
REMARK VINA RESULT:      -7.6      2.378      8.804
REMARK  9 active torsions:
REMARK  status: ('A' for Active; 'I' for Inactive)
REMARK    1  A    between atoms: C_6  and  C_7 
REMARK    2  A    between atoms: C_7  and  C_8 
REMARK       I    between atoms: C_8  and  N_9 
REMARK    3  A    between atoms: N_9  and  C_10 
REMARK    4  A    between atoms: C_10  and  C_11 
REMARK    5  A    between atoms: C_11  and  N_12 
REMARK    6  A    between atoms: C_20  and  C_21 
REMARK    7  A    between atoms: C_24  and  C_25 
REMARK    8  A    between atoms: C_32  and  C_33 
REMARK    9  A    between atoms: C_33  and  O_34 
ROOT
HETATM    1  C   UNL     1     -39.112  58.913 -52.198  1.00  0.00     0.071 C 
HETATM    2  C   UNL     1     -40.578  58.819 -52.535  1.00  0.00     0.048 C 
HETATM    3  N   UNL     1     -40.948  59.613 -53.617  1.00  0.00    -0.229 NA
HETATM    4  C   UNL     1     -42.084  59.351 -54.171  1.00  0.00     0.170 C 
HETATM    5  N   UNL     1     -43.024  58.241 -53.643  1.00  0.00    -0.319 N 
HETATM    6  C   UNL     1     -43.595  57.640 -54.628  1.00  0.00     0.011 C 
HETATM    7  C   UNL     1     -42.950  58.151 -52.166  1.00  0.00     0.166 C 
HETATM    8  S   UNL     1     -42.606  59.939 -55.704  1.00  0.00    -0.086 SA
HETATM    9  C   UNL     1     -43.636  58.446 -55.920  1.00  0.00     0.135 C 
HETATM   10  C   UNL     1     -41.475  58.063 -51.854  1.00  0.00     0.069 C 
ENDROOT
BRANCH   6  11
HETATM   11  C   UNL     1     -44.078  56.221 -54.515  1.00  0.00     0.156 C 
BRANCH  11  12
HETATM   12  C   UNL     1     -42.960  55.282 -54.951  1.00  0.00     0.223 C 
HETATM   13  N   UNL     1     -41.989  55.004 -54.027  1.00  0.00    -0.359 N 
HETATM   14  H   UNL     1     -42.156  55.213 -53.046  1.00  0.00     0.162 HD
HETATM   15  O   UNL     1     -42.854  54.939 -56.125  1.00  0.00    -0.273 OA
BRANCH  13  16
HETATM   16  C   UNL     1     -40.619  54.577 -54.363  1.00  0.00     0.150 C 
BRANCH  16  17
HETATM   17  C   UNL     1     -40.417  53.165 -54.973  1.00  0.00     0.254 C 
BRANCH  17  18
HETATM   18  N   UNL     1     -39.881  52.155 -53.980  1.00  0.00    -0.070 N 
HETATM   19  H   UNL     1     -38.846  52.188 -54.079  1.00  0.00     0.279 HD
HETATM   20  C   UNL     1     -40.192  52.459 -52.533  1.00  0.00     0.235 C 
HETATM   21  C   UNL     1     -39.393  51.515 -51.643  1.00  0.00     0.028 C 
HETATM   22  C   UNL     1     -39.671  50.053 -51.976  1.00  0.00     0.003 C 
HETATM   23  C   UNL     1     -39.481  49.772 -53.463  1.00  0.00     0.028 C 
HETATM   24  C   UNL     1     -40.275  50.737 -54.332  1.00  0.00     0.235 C 
ENDBRANCH  17  18
ENDBRANCH  16  17
ENDBRANCH  13  16
ENDBRANCH  11  12
ENDBRANCH   6  11
BRANCH   7  25
HETATM   25  C   UNL     1     -43.639  59.419 -51.610  1.00  0.00    -0.030 C 
HETATM   26  C   UNL     1     -42.970  60.245 -50.684  1.00  0.00     0.010 C 
HETATM   27  C   UNL     1     -43.687  61.126 -49.869  1.00  0.00     0.008 C 
HETATM   28  C   UNL     1     -45.077  61.243 -49.990  1.00  0.00    -0.055 C 
HETATM   29  C   UNL     1     -45.708  60.572 -51.042  1.00  0.00     0.008 C 
HETATM   30  C   UNL     1     -44.997  59.685 -51.852  1.00  0.00     0.010 C 
BRANCH  28  31
HETATM   31  C   UNL     1     -45.876  62.010 -48.949  1.00  0.00     0.010 C 
HETATM   32  C   UNL     1     -44.994  62.746 -47.943  1.00  0.00     0.015 C 
HETATM   33  C   UNL     1     -46.839  62.986 -49.640  1.00  0.00     0.015 C 
ENDBRANCH  28  31
ENDBRANCH   7  25
BRANCH  10  34
HETATM   34  C   UNL     1     -41.166  57.086 -50.792  1.00  0.00     0.293 C 
HETATM   35  O   UNL     1     -41.007  57.422 -49.632  1.00  0.00    -0.259 OA
BRANCH  34  36
HETATM   36  O   UNL     1     -41.328  55.826 -51.255  1.00  0.00    -0.323 OA
HETATM   37  C   UNL     1     -42.018  54.952 -50.352  1.00  0.00     0.213 C 
ENDBRANCH  34  36
ENDBRANCH  10  34
TORSDOF 9
ENDMDL
MODEL 7
REMARK VINA RESULT:      -7.5      2.216      4.153
REMARK  9 active torsions:
REMARK  status: ('A' for Active; 'I' for Inactive)
REMARK    1  A    between atoms: C_6  and  C_7 
REMARK    2  A    between atoms: C_7  and  C_8 
REMARK       I    between atoms: C_8  and  N_9 
REMARK    3  A    between atoms: N_9  and  C_10 
REMARK    4  A    between atoms: C_10  and  C_11 
REMARK    5  A    between atoms: C_11  and  N_12 
REMARK    6  A    between atoms: C_20  and  C_21 
REMARK    7  A    between atoms: C_24  and  C_25 
REMARK    8  A    between atoms: C_32  and  C_33 
REMARK    9  A    between atoms: C_33  and  O_34 
ROOT
HETATM    1  C   UNL     1     -44.741  57.620 -50.963  1.00  0.00     0.071 C 
HETATM    2  C   UNL     1     -43.955  57.469 -52.240  1.00  0.00     0.048 C 
HETATM    3  N   UNL     1     -44.734  57.075 -53.324  1.00  0.00    -0.229 NA
HETATM    4  C   UNL     1     -44.224  57.238 -54.499  1.00  0.00     0.170 C 
HETATM    5  N   UNL     1     -42.798  57.800 -54.709  1.00  0.00    -0.319 N 
HETATM    6  C   UNL     1     -42.774  58.566 -55.744  1.00  0.00     0.011 C 
HETATM    7  C   UNL     1     -41.891  57.344 -53.630  1.00  0.00     0.166 C 
HETATM    8  S   UNL     1     -45.094  57.158 -55.984  1.00  0.00    -0.086 SA
HETATM    9  C   UNL     1     -43.902  58.320 -56.737  1.00  0.00     0.135 C 
HETATM   10  C   UNL     1     -42.617  57.669 -52.347  1.00  0.00     0.069 C 
ENDROOT
BRANCH   6  11
HETATM   11  C   UNL     1     -41.766  59.673 -55.884  1.00  0.00     0.156 C 
BRANCH  11  12
HETATM   12  C   UNL     1     -42.379  60.968 -55.367  1.00  0.00     0.223 C 
HETATM   13  N   UNL     1     -42.456  61.118 -54.008  1.00  0.00    -0.359 N 
HETATM   14  H   UNL     1     -41.905  60.513 -53.405  1.00  0.00     0.162 HD
HETATM   15  O   UNL     1     -42.930  61.750 -56.137  1.00  0.00    -0.273 OA
BRANCH  13  16
HETATM   16  C   UNL     1     -43.426  61.990 -53.321  1.00  0.00     0.150 C 
BRANCH  16  17
HETATM   17  C   UNL     1     -44.575  61.322 -52.520  1.00  0.00     0.254 C 
BRANCH  17  18
HETATM   18  N   UNL     1     -44.522  61.622 -51.036  1.00  0.00    -0.070 N 
HETATM   19  H   UNL     1     -43.719  61.072 -50.669  1.00  0.00     0.279 HD
HETATM   20  C   UNL     1     -44.258  63.068 -50.688  1.00  0.00     0.235 C 
HETATM   21  C   UNL     1     -43.985  63.178 -49.193  1.00  0.00     0.028 C 
HETATM   22  C   UNL     1     -45.132  62.608 -48.365  1.00  0.00     0.003 C 
HETATM   23  C   UNL     1     -45.486  61.190 -48.802  1.00  0.00     0.028 C 
HETATM   24  C   UNL     1     -45.737  61.101 -50.301  1.00  0.00     0.235 C 
ENDBRANCH  17  18
ENDBRANCH  16  17
ENDBRANCH  13  16
ENDBRANCH  11  12
ENDBRANCH   6  11
BRANCH   7  25
HETATM   25  C   UNL     1     -41.656  55.833 -53.858  1.00  0.00    -0.030 C 
HETATM   26  C   UNL     1     -42.043  54.896 -52.878  1.00  0.00     0.010 C 
HETATM   27  C   UNL     1     -41.485  53.614 -52.859  1.00  0.00     0.008 C 
HETATM   28  C   UNL     1     -40.569  53.218 -53.841  1.00  0.00    -0.055 C 
HETATM   29  C   UNL     1     -40.342  54.078 -54.919  1.00  0.00     0.008 C 
HETATM   30  C   UNL     1     -40.890  55.361 -54.937  1.00  0.00     0.010 C 
BRANCH  28  31
HETATM   31  C   UNL     1     -39.786  51.925 -53.681  1.00  0.00     0.010 C 
HETATM   32  C   UNL     1     -39.460  51.600 -52.225  1.00  0.00     0.015 C 
HETATM   33  C   UNL     1     -40.548  50.764 -54.337  1.00  0.00     0.015 C 
ENDBRANCH  28  31
ENDBRANCH   7  25
BRANCH  10  34
HETATM   34  C   UNL     1     -41.731  58.220 -51.303  1.00  0.00     0.293 C 
HETATM   35  O   UNL     1     -41.059  57.504 -50.583  1.00  0.00    -0.259 OA
BRANCH  34  36
HETATM   36  O   UNL     1     -41.615  59.559 -51.448  1.00  0.00    -0.323 OA
HETATM   37  C   UNL     1     -41.508  60.277 -50.212  1.00  0.00     0.213 C 
ENDBRANCH  34  36
ENDBRANCH  10  34
TORSDOF 9
ENDMDL
MODEL 8
REMARK VINA RESULT:      -7.4      2.233      3.598
REMARK  9 active torsions:
REMARK  status: ('A' for Active; 'I' for Inactive)
REMARK    1  A    between atoms: C_6  and  C_7 
REMARK    2  A    between atoms: C_7  and  C_8 
REMARK       I    between atoms: C_8  and  N_9 
REMARK    3  A    between atoms: N_9  and  C_10 
REMARK    4  A    between atoms: C_10  and  C_11 
REMARK    5  A    between atoms: C_11  and  N_12 
REMARK    6  A    between atoms: C_20  and  C_21 
REMARK    7  A    between atoms: C_24  and  C_25 
REMARK    8  A    between atoms: C_32  and  C_33 
REMARK    9  A    between atoms: C_33  and  O_34 
ROOT
HETATM    1  C   UNL     1     -41.912  59.519 -56.720  1.00  0.00     0.071 C 
HETATM    2  C   UNL     1     -42.167  58.774 -55.435  1.00  0.00     0.048 C 
HETATM    3  N   UNL     1     -41.400  59.233 -54.368  1.00  0.00    -0.229 NA
HETATM    4  C   UNL     1     -41.780  58.886 -53.184  1.00  0.00     0.170 C 
HETATM    5  N   UNL     1     -43.002  57.968 -52.945  1.00  0.00    -0.319 N 
HETATM    6  C   UNL     1     -43.644  58.351 -51.896  1.00  0.00     0.011 C 
HETATM    7  C   UNL     1     -43.113  56.954 -54.019  1.00  0.00     0.166 C 
HETATM    8  S   UNL     1     -41.224  59.589 -51.712  1.00  0.00    -0.086 SA
HETATM    9  C   UNL     1     -42.822  59.185 -50.923  1.00  0.00     0.135 C 
HETATM   10  C   UNL     1     -43.037  57.739 -55.306  1.00  0.00     0.069 C 
ENDROOT
BRANCH   6  11
HETATM   11  C   UNL     1     -45.112  58.074 -51.724  1.00  0.00     0.156 C 
BRANCH  11  12
HETATM   12  C   UNL     1     -45.854  59.399 -51.605  1.00  0.00     0.223 C 
HETATM   13  N   UNL     1     -46.063  60.099 -52.763  1.00  0.00    -0.359 N 
HETATM   14  H   UNL     1     -45.950  59.631 -53.659  1.00  0.00     0.162 HD
HETATM   15  O   UNL     1     -46.093  59.885 -50.503  1.00  0.00    -0.273 OA
BRANCH  13  16
HETATM   16  C   UNL     1     -46.272  61.556 -52.829  1.00  0.00     0.150 C 
BRANCH  16  17
HETATM   17  C   UNL     1     -47.663  62.118 -52.432  1.00  0.00     0.254 C 
BRANCH  17  18
HETATM   18  N   UNL     1     -48.704  61.961 -53.520  1.00  0.00    -0.070 N 
HETATM   19  H   UNL     1     -48.635  60.973 -53.833  1.00  0.00     0.279 HD
HETATM   20  C   UNL     1     -50.131  62.179 -53.072  1.00  0.00     0.235 C 
HETATM   21  C   UNL     1     -51.075  61.751 -54.189  1.00  0.00     0.028 C 
HETATM   22  C   UNL     1     -50.782  62.490 -55.490  1.00  0.00     0.003 C 
HETATM   23  C   UNL     1     -49.312  62.378 -55.879  1.00  0.00     0.028 C 
HETATM   24  C   UNL     1     -48.388  62.795 -54.742  1.00  0.00     0.235 C 
ENDBRANCH  17  18
ENDBRANCH  16  17
ENDBRANCH  13  16
ENDBRANCH  11  12
ENDBRANCH   6  11
BRANCH   7  25
HETATM   25  C   UNL     1     -41.946  55.962 -53.815  1.00  0.00    -0.030 C 
HETATM   26  C   UNL     1     -41.167  55.541 -54.912  1.00  0.00     0.010 C 
HETATM   27  C   UNL     1     -40.409  54.369 -54.840  1.00  0.00     0.008 C 
HETATM   28  C   UNL     1     -40.367  53.616 -53.661  1.00  0.00    -0.055 C 
HETATM   29  C   UNL     1     -40.977  54.141 -52.518  1.00  0.00     0.008 C 
HETATM   30  C   UNL     1     -41.742  55.306 -52.589  1.00  0.00     0.010 C 
BRANCH  28  31
HETATM   31  C   UNL     1     -39.747  52.227 -53.659  1.00  0.00     0.010 C 
HETATM   32  C   UNL     1     -39.408  51.727 -52.257  1.00  0.00     0.015 C 
HETATM   33  C   UNL     1     -40.675  51.236 -54.378  1.00  0.00     0.015 C 
ENDBRANCH  28  31
ENDBRANCH   7  25
BRANCH  10  34
HETATM   34  C   UNL     1     -43.994  57.272 -56.328  1.00  0.00     0.293 C 
HETATM   35  O   UNL     1     -45.056  57.835 -56.523  1.00  0.00    -0.259 OA
BRANCH  34  36
HETATM   36  O   UNL     1     -43.417  56.337 -57.116  1.00  0.00    -0.323 OA
HETATM   37  C   UNL     1     -43.502  56.617 -58.519  1.00  0.00     0.213 C 
ENDBRANCH  34  36
ENDBRANCH  10  34
TORSDOF 9
ENDMDL
MODEL 9
REMARK VINA RESULT:      -7.4      3.274      7.556
REMARK  9 active torsions:
REMARK  status: ('A' for Active; 'I' for Inactive)
REMARK    1  A    between atoms: C_6  and  C_7 
REMARK    2  A    between atoms: C_7  and  C_8 
REMARK       I    between atoms: C_8  and  N_9 
REMARK    3  A    between atoms: N_9  and  C_10 
REMARK    4  A    between atoms: C_10  and  C_11 
REMARK    5  A    between atoms: C_11  and  N_12 
REMARK    6  A    between atoms: C_20  and  C_21 
REMARK    7  A    between atoms: C_24  and  C_25 
REMARK    8  A    between atoms: C_32  and  C_33 
REMARK    9  A    between atoms: C_33  and  O_34 
ROOT
HETATM    1  C   UNL     1     -42.648  58.688 -50.592  1.00  0.00     0.071 C 
HETATM    2  C   UNL     1     -42.502  58.165 -51.997  1.00  0.00     0.048 C 
HETATM    3  N   UNL     1     -43.694  57.690 -52.537  1.00  0.00    -0.229 NA
HETATM    4  C   UNL     1     -43.734  57.533 -53.817  1.00  0.00     0.170 C 
HETATM    5  N   UNL     1     -42.510  57.812 -54.721  1.00  0.00    -0.319 N 
HETATM    6  C   UNL     1     -42.892  58.342 -55.831  1.00  0.00     0.011 C 
HETATM    7  C   UNL     1     -41.253  57.444 -54.029  1.00  0.00     0.166 C 
HETATM    8  S   UNL     1     -45.163  57.296 -54.749  1.00  0.00    -0.086 SA
HETATM    9  C   UNL     1     -44.351  58.083 -56.184  1.00  0.00     0.135 C 
HETATM   10  C   UNL     1     -41.333  58.128 -52.685  1.00  0.00     0.069 C 
ENDROOT
BRANCH   6  11
HETATM   11  C   UNL     1     -41.983  59.228 -56.637  1.00  0.00     0.156 C 
BRANCH  11  12
HETATM   12  C   UNL     1     -41.883  58.675 -58.053  1.00  0.00     0.223 C 
HETATM   13  N   UNL     1     -41.929  59.582 -59.078  1.00  0.00    -0.359 N 
HETATM   14  H   UNL     1     -41.783  60.569 -58.880  1.00  0.00     0.162 HD
HETATM   15  O   UNL     1     -41.934  57.465 -58.257  1.00  0.00    -0.273 OA
BRANCH  13  16
HETATM   16  C   UNL     1     -42.358  59.264 -60.452  1.00  0.00     0.150 C 
BRANCH  16  17
HETATM   17  C   UNL     1     -43.825  59.567 -60.854  1.00  0.00     0.254 C 
BRANCH  17  18
HETATM   18  N   UNL     1     -44.817  58.569 -60.294  1.00  0.00    -0.070 N 
HETATM   19  H   UNL     1     -44.807  58.712 -59.265  1.00  0.00     0.279 HD
HETATM   20  C   UNL     1     -46.245  58.767 -60.749  1.00  0.00     0.235 C 
HETATM   21  C   UNL     1     -47.159  57.866 -59.928  1.00  0.00     0.028 C 
HETATM   22  C   UNL     1     -46.743  56.402 -60.024  1.00  0.00     0.003 C 
HETATM   23  C   UNL     1     -45.268  56.216 -59.688  1.00  0.00     0.028 C 
HETATM   24  C   UNL     1     -44.375  57.138 -60.508  1.00  0.00     0.235 C 
ENDBRANCH  17  18
ENDBRANCH  16  17
ENDBRANCH  13  16
ENDBRANCH  11  12
ENDBRANCH   6  11
BRANCH   7  25
HETATM   25  C   UNL     1     -41.225  55.901 -53.952  1.00  0.00    -0.030 C 
HETATM   26  C   UNL     1     -41.204  55.249 -52.701  1.00  0.00     0.010 C 
HETATM   27  C   UNL     1     -40.766  53.926 -52.595  1.00  0.00     0.008 C 
HETATM   28  C   UNL     1     -40.387  53.204 -53.733  1.00  0.00    -0.055 C 
HETATM   29  C   UNL     1     -40.599  53.785 -54.986  1.00  0.00     0.008 C 
HETATM   30  C   UNL     1     -41.028  55.109 -55.096  1.00  0.00     0.010 C 
BRANCH  28  31
HETATM   31  C   UNL     1     -39.686  51.863 -53.591  1.00  0.00     0.010 C 
HETATM   32  C   UNL     1     -39.557  51.406 -52.140  1.00  0.00     0.015 C 
HETATM   33  C   UNL     1     -40.411  50.800 -54.430  1.00  0.00     0.015 C 
ENDBRANCH  28  31
ENDBRANCH   7  25
BRANCH  10  34
HETATM   34  C   UNL     1     -40.053  58.730 -52.265  1.00  0.00     0.293 C 
HETATM   35  O   UNL     1     -39.315  59.294 -53.054  1.00  0.00    -0.259 OA
BRANCH  34  36
HETATM   36  O   UNL     1     -39.973  58.765 -50.916  1.00  0.00    -0.323 OA
HETATM   37  C   UNL     1     -38.963  59.646 -50.409  1.00  0.00     0.213 C 
ENDBRANCH  34  36
ENDBRANCH  10  34
TORSDOF 9
ENDMDL
MODEL 10
REMARK VINA RESULT:      -7.3      2.397      4.208
REMARK  9 active torsions:
REMARK  status: ('A' for Active; 'I' for Inactive)
REMARK    1  A    between atoms: C_6  and  C_7 
REMARK    2  A    between atoms: C_7  and  C_8 
REMARK       I    between atoms: C_8  and  N_9 
REMARK    3  A    between atoms: N_9  and  C_10 
REMARK    4  A    between atoms: C_10  and  C_11 
REMARK    5  A    between atoms: C_11  and  N_12 
REMARK    6  A    between atoms: C_20  and  C_21 
REMARK    7  A    between atoms: C_24  and  C_25 
REMARK    8  A    between atoms: C_32  and  C_33 
REMARK    9  A    between atoms: C_33  and  O_34 
ROOT
HETATM    1  C   UNL     1     -41.887  59.469 -56.480  1.00  0.00     0.071 C 
HETATM    2  C   UNL     1     -42.024  58.675 -55.206  1.00  0.00     0.048 C 
HETATM    3  N   UNL     1     -41.110  59.046 -54.224  1.00  0.00    -0.229 NA
HETATM    4  C   UNL     1     -41.362  58.661 -53.018  1.00  0.00     0.170 C 
HETATM    5  N   UNL     1     -42.592  57.790 -52.669  1.00  0.00    -0.319 N 
HETATM    6  C   UNL     1     -43.081  58.152 -51.534  1.00  0.00     0.011 C 
HETATM    7  C   UNL     1     -42.885  56.835 -53.763  1.00  0.00     0.166 C 
HETATM    8  S   UNL     1     -40.596  59.265 -51.597  1.00  0.00    -0.086 SA
HETATM    9  C   UNL     1     -42.105  58.899 -50.635  1.00  0.00     0.135 C 
HETATM   10  C   UNL     1     -42.924  57.678 -55.016  1.00  0.00     0.069 C 
ENDROOT
BRANCH   6  11
HETATM   11  C   UNL     1     -44.530  57.935 -51.194  1.00  0.00     0.156 C 
BRANCH  11  12
HETATM   12  C   UNL     1     -45.328  59.157 -51.632  1.00  0.00     0.223 C 
HETATM   13  N   UNL     1     -45.414  59.392 -52.977  1.00  0.00    -0.359 N 
HETATM   14  H   UNL     1     -45.173  58.652 -53.632  1.00  0.00     0.162 HD
HETATM   15  O   UNL     1     -45.722  59.975 -50.804  1.00  0.00    -0.273 OA
BRANCH  13  16
HETATM   16  C   UNL     1     -45.665  60.715 -53.576  1.00  0.00     0.150 C 
BRANCH  16  17
HETATM   17  C   UNL     1     -44.444  61.594 -53.956  1.00  0.00     0.254 C 
BRANCH  17  18
HETATM   18  N   UNL     1     -44.214  61.683 -55.451  1.00  0.00    -0.070 N 
HETATM   19  H   UNL     1     -43.443  61.016 -55.655  1.00  0.00     0.279 HD
HETATM   20  C   UNL     1     -45.390  61.266 -56.302  1.00  0.00     0.235 C 
HETATM   21  C   UNL     1     -44.943  61.167 -57.755  1.00  0.00     0.028 C 
HETATM   22  C   UNL     1     -44.335  62.475 -58.250  1.00  0.00     0.003 C 
HETATM   23  C   UNL     1     -43.231  62.966 -57.320  1.00  0.00     0.028 C 
HETATM   24  C   UNL     1     -43.695  63.041 -55.872  1.00  0.00     0.235 C 
ENDBRANCH  17  18
ENDBRANCH  16  17
ENDBRANCH  13  16
ENDBRANCH  11  12
ENDBRANCH   6  11
BRANCH   7  25
HETATM   25  C   UNL     1     -41.754  55.781 -53.746  1.00  0.00    -0.030 C 
HETATM   26  C   UNL     1     -41.299  55.204 -54.949  1.00  0.00     0.010 C 
HETATM   27  C   UNL     1     -40.606  53.990 -54.939  1.00  0.00     0.008 C 
HETATM   28  C   UNL     1     -40.306  53.347 -53.732  1.00  0.00    -0.055 C 
HETATM   29  C   UNL     1     -40.581  54.020 -52.538  1.00  0.00     0.008 C 
HETATM   30  C   UNL     1     -41.280  55.228 -52.544  1.00  0.00     0.010 C 
BRANCH  28  31
HETATM   31  C   UNL     1     -39.776  51.923 -53.733  1.00  0.00     0.010 C 
HETATM   32  C   UNL     1     -39.456  51.404 -52.333  1.00  0.00     0.015 C 
HETATM   33  C   UNL     1     -40.771  50.991 -54.442  1.00  0.00     0.015 C 
ENDBRANCH  28  31
ENDBRANCH   7  25
BRANCH  10  34
HETATM   34  C   UNL     1     -44.020  57.304 -55.931  1.00  0.00     0.293 C 
HETATM   35  O   UNL     1     -45.134  57.787 -55.833  1.00  0.00    -0.259 OA
BRANCH  34  36
HETATM   36  O   UNL     1     -43.539  56.583 -56.967  1.00  0.00    -0.323 OA
HETATM   37  C   UNL     1     -44.005  57.016 -58.252  1.00  0.00     0.213 C 
ENDBRANCH  34  36
ENDBRANCH  10  34
TORSDOF 9
ENDMDL
