MODEL 1
REMARK VINA RESULT:      -8.9      0.000      0.000
REMARK  4 active torsions:
REMARK  status: ('A' for Active; 'I' for Inactive)
REMARK    1  A    between atoms: C_4  and  C_5 
REMARK    2  A    between atoms: C_8  and  C_9 
REMARK    3  A    between atoms: C_9  and  N_10 
REMARK    4  A    between atoms: N_10  and  C_11 
ROOT
HETATM    1  C   UNL     1     -42.097  57.445 -54.757  1.00  0.00     0.158 C 
ENDROOT
BRANCH   1   2
HETATM    2  C   UNL     1     -41.560  56.091 -54.369  1.00  0.00    -0.041 A 
HETATM    3  C   UNL     1     -41.609  55.658 -53.039  1.00  0.00     0.009 A 
HETATM    4  C   UNL     1     -41.154  54.382 -52.691  1.00  0.00     0.013 A 
HETATM    5  C   UNL     1     -40.634  53.504 -53.657  1.00  0.00    -0.026 A 
HETATM    6  C   UNL     1     -40.552  53.965 -54.981  1.00  0.00     0.013 A 
HETATM    7  C   UNL     1     -41.002  55.243 -55.333  1.00  0.00     0.009 A 
BRANCH   5   8
HETATM    8  C   UNL     1     -40.215  52.136 -53.299  1.00  0.00    -0.026 A 
HETATM    9  C   UNL     1     -39.812  51.824 -51.988  1.00  0.00     0.012 A 
HETATM   10  C   UNL     1     -39.432  50.526 -51.636  1.00  0.00     0.001 A 
HETATM   11  C   UNL     1     -39.449  49.513 -52.590  1.00  0.00     0.000 A 
HETATM   12  C   UNL     1     -39.843  49.797 -53.894  1.00  0.00     0.001 A 
HETATM   13  C   UNL     1     -40.222  51.097 -54.245  1.00  0.00     0.012 A 
ENDBRANCH   5   8
ENDBRANCH   1   2
BRANCH   1  14
HETATM   14  N   UNL     1     -43.163  57.297 -55.737  1.00  0.00    -0.384 N 
HETATM   15  H   UNL     1     -43.740  56.482 -55.520  1.00  0.00     0.160 HD
BRANCH  14  16
HETATM   16  C   UNL     1     -42.960  57.482 -57.102  1.00  0.00     0.060 A 
HETATM   17  C   UNL     1     -43.298  56.613 -58.150  1.00  0.00     0.106 A 
HETATM   18  C   UNL     1     -42.981  56.879 -59.476  1.00  0.00     0.158 A 
HETATM   19  N   UNL     1     -43.937  55.396 -58.234  1.00  0.00    -0.346 N 
HETATM   20  N   UNL     1     -43.407  55.911 -60.329  1.00  0.00    -0.224 NA
HETATM   21  N   UNL     1     -42.298  58.020 -59.798  1.00  0.00    -0.349 N 
HETATM   22  C   UNL     1     -43.981  55.022 -59.550  1.00  0.00     0.210 A 
HETATM   23  H   UNL     1     -42.081  58.177 -60.780  1.00  0.00     0.167 HD
HETATM   24  C   UNL     1     -41.922  58.870 -58.846  1.00  0.00     0.092 A 
HETATM   25  C   UNL     1     -42.231  58.617 -57.512  1.00  0.00     0.048 A 
HETATM   26  H   UNL     1     -44.312  54.853 -57.468  1.00  0.00     0.167 HD
ENDBRANCH  14  16
ENDBRANCH   1  14
TORSDOF 4
ENDMDL
MODEL 2
REMARK VINA RESULT:      -8.8      1.304      1.824
REMARK  4 active torsions:
REMARK  status: ('A' for Active; 'I' for Inactive)
REMARK    1  A    between atoms: C_4  and  C_5 
REMARK    2  A    between atoms: C_8  and  C_9 
REMARK    3  A    between atoms: C_9  and  N_10 
REMARK    4  A    between atoms: N_10  and  C_11 
ROOT
HETATM    1  C   UNL     1     -42.733  56.943 -56.033  1.00  0.00     0.158 C 
ENDROOT
BRANCH   1   2
HETATM    2  C   UNL     1     -42.132  55.680 -55.471  1.00  0.00    -0.041 A 
HETATM    3  C   UNL     1     -40.792  55.645 -55.067  1.00  0.00     0.009 A 
HETATM    4  C   UNL     1     -40.252  54.485 -54.501  1.00  0.00     0.013 A 
HETATM    5  C   UNL     1     -41.028  53.328 -54.328  1.00  0.00    -0.026 A 
HETATM    6  C   UNL     1     -42.359  53.362 -54.775  1.00  0.00     0.013 A 
HETATM    7  C   UNL     1     -42.903  54.519 -55.345  1.00  0.00     0.009 A 
BRANCH   5   8
HETATM    8  C   UNL     1     -40.475  52.128 -53.673  1.00  0.00    -0.026 A 
HETATM    9  C   UNL     1     -40.345  50.917 -54.376  1.00  0.00     0.012 A 
HETATM   10  C   UNL     1     -39.804  49.780 -53.768  1.00  0.00     0.001 A 
HETATM   11  C   UNL     1     -39.378  49.835 -52.444  1.00  0.00     0.000 A 
HETATM   12  C   UNL     1     -39.497  51.022 -51.728  1.00  0.00     0.001 A 
HETATM   13  C   UNL     1     -40.041  52.158 -52.337  1.00  0.00     0.012 A 
ENDBRANCH   5   8
ENDBRANCH   1   2
BRANCH   1  14
HETATM   14  N   UNL     1     -42.240  57.175 -57.382  1.00  0.00    -0.384 N 
HETATM   15  H   UNL     1     -41.485  57.864 -57.374  1.00  0.00     0.160 HD
BRANCH  14  16
HETATM   16  C   UNL     1     -43.084  57.292 -58.482  1.00  0.00     0.060 A 
HETATM   17  C   UNL     1     -43.829  56.284 -59.110  1.00  0.00     0.106 A 
HETATM   18  C   UNL     1     -44.588  56.511 -60.250  1.00  0.00     0.158 A 
HETATM   19  N   UNL     1     -44.034  54.941 -58.877  1.00  0.00    -0.346 N 
HETATM   20  N   UNL     1     -45.236  55.400 -60.689  1.00  0.00    -0.224 NA
HETATM   21  N   UNL     1     -44.614  57.758 -60.815  1.00  0.00    -0.349 N 
HETATM   22  C   UNL     1     -44.882  54.462 -59.841  1.00  0.00     0.210 A 
HETATM   23  H   UNL     1     -45.179  57.883 -61.651  1.00  0.00     0.167 HD
HETATM   24  C   UNL     1     -43.905  58.751 -60.284  1.00  0.00     0.092 A 
HETATM   25  C   UNL     1     -43.138  58.538 -59.142  1.00  0.00     0.048 A 
HETATM   26  H   UNL     1     -43.635  54.386 -58.133  1.00  0.00     0.167 HD
ENDBRANCH  14  16
ENDBRANCH   1  14
TORSDOF 4
ENDMDL
MODEL 3
REMARK VINA RESULT:      -8.3      0.929      2.015
REMARK  4 active torsions:
REMARK  status: ('A' for Active; 'I' for Inactive)
REMARK    1  A    between atoms: C_4  and  C_5 
REMARK    2  A    between atoms: C_8  and  C_9 
REMARK    3  A    between atoms: C_9  and  N_10 
REMARK    4  A    between atoms: N_10  and  C_11 
ROOT
HETATM    1  C   UNL     1     -42.449  57.219 -54.914  1.00  0.00     0.158 C 
ENDROOT
BRANCH   1   2
HETATM    2  C   UNL     1     -41.866  55.901 -54.474  1.00  0.00    -0.041 A 
HETATM    3  C   UNL     1     -42.459  55.166 -53.441  1.00  0.00     0.009 A 
HETATM    4  C   UNL     1     -41.943  53.920 -53.068  1.00  0.00     0.013 A 
HETATM    5  C   UNL     1     -40.820  53.374 -53.712  1.00  0.00    -0.026 A 
HETATM    6  C   UNL     1     -40.209  54.139 -54.719  1.00  0.00     0.013 A 
HETATM    7  C   UNL     1     -40.720  55.388 -55.092  1.00  0.00     0.009 A 
BRANCH   5   8
HETATM    8  C   UNL     1     -40.317  52.033 -53.362  1.00  0.00    -0.026 A 
HETATM    9  C   UNL     1     -39.909  51.734 -52.049  1.00  0.00     0.012 A 
HETATM   10  C   UNL     1     -39.449  50.460 -51.705  1.00  0.00     0.001 A 
HETATM   11  C   UNL     1     -39.391  49.457 -52.668  1.00  0.00     0.000 A 
HETATM   12  C   UNL     1     -39.788  49.728 -53.974  1.00  0.00     0.001 A 
HETATM   13  C   UNL     1     -40.246  51.005 -54.317  1.00  0.00     0.012 A 
ENDBRANCH   5   8
ENDBRANCH   1   2
BRANCH   1  14
HETATM   14  N   UNL     1     -43.383  57.011 -56.010  1.00  0.00    -0.384 N 
HETATM   15  H   UNL     1     -44.008  56.229 -55.806  1.00  0.00     0.160 HD
BRANCH  14  16
HETATM   16  C   UNL     1     -43.001  57.077 -57.347  1.00  0.00     0.060 A 
HETATM   17  C   UNL     1     -42.599  58.207 -58.075  1.00  0.00     0.106 A 
HETATM   18  C   UNL     1     -42.305  58.160 -59.431  1.00  0.00     0.158 A 
HETATM   19  N   UNL     1     -42.399  59.536 -57.771  1.00  0.00    -0.346 N 
HETATM   20  N   UNL     1     -41.929  59.364 -59.936  1.00  0.00    -0.224 NA
HETATM   21  N   UNL     1     -42.419  56.979 -60.113  1.00  0.00    -0.349 N 
HETATM   22  C   UNL     1     -41.997  60.182 -58.910  1.00  0.00     0.210 A 
HETATM   23  H   UNL     1     -42.199  56.986 -61.106  1.00  0.00     0.167 HD
HETATM   24  C   UNL     1     -42.825  55.877 -59.486  1.00  0.00     0.092 A 
HETATM   25  C   UNL     1     -43.125  55.908 -58.127  1.00  0.00     0.048 A 
HETATM   26  H   UNL     1     -42.525  59.979 -56.872  1.00  0.00     0.167 HD
ENDBRANCH  14  16
ENDBRANCH   1  14
TORSDOF 4
ENDMDL
MODEL 4
REMARK VINA RESULT:      -8.3      3.258      5.603
REMARK  4 active torsions:
REMARK  status: ('A' for Active; 'I' for Inactive)
REMARK    1  A    between atoms: C_4  and  C_5 
REMARK    2  A    between atoms: C_8  and  C_9 
REMARK    3  A    between atoms: C_9  and  N_10 
REMARK    4  A    between atoms: N_10  and  C_11 
ROOT
HETATM    1  C   UNL     1     -42.238  57.453 -54.489  1.00  0.00     0.158 C 
ENDROOT
BRANCH   1   2
HETATM    2  C   UNL     1     -41.793  56.038 -54.224  1.00  0.00    -0.041 A 
HETATM    3  C   UNL     1     -40.799  55.443 -55.009  1.00  0.00     0.009 A 
HETATM    4  C   UNL     1     -40.355  54.146 -54.729  1.00  0.00     0.013 A 
HETATM    5  C   UNL     1     -40.891  53.406 -53.662  1.00  0.00    -0.026 A 
HETATM    6  C   UNL     1     -41.917  53.998 -52.908  1.00  0.00     0.013 A 
HETATM    7  C   UNL     1     -42.367  55.294 -53.187  1.00  0.00     0.009 A 
BRANCH   5   8
HETATM    8  C   UNL     1     -40.376  52.064 -53.329  1.00  0.00    -0.026 A 
HETATM    9  C   UNL     1     -40.257  51.071 -54.317  1.00  0.00     0.012 A 
HETATM   10  C   UNL     1     -39.752  49.803 -54.014  1.00  0.00     0.001 A 
HETATM   11  C   UNL     1     -39.354  49.506 -52.713  1.00  0.00     0.000 A 
HETATM   12  C   UNL     1     -39.463  50.472 -51.718  1.00  0.00     0.001 A 
HETATM   13  C   UNL     1     -39.971  51.739 -52.024  1.00  0.00     0.012 A 
ENDBRANCH   5   8
ENDBRANCH   1   2
BRANCH   1  14
HETATM   14  N   UNL     1     -41.305  58.392 -53.885  1.00  0.00    -0.384 N 
HETATM   15  H   UNL     1     -40.341  58.127 -54.098  1.00  0.00     0.160 HD
BRANCH  14  16
HETATM   16  C   UNL     1     -41.468  58.890 -52.595  1.00  0.00     0.060 A 
HETATM   17  C   UNL     1     -42.152  60.047 -52.197  1.00  0.00     0.106 A 
HETATM   18  C   UNL     1     -42.188  60.480 -50.878  1.00  0.00     0.158 A 
HETATM   19  N   UNL     1     -42.893  61.008 -52.848  1.00  0.00    -0.346 N 
HETATM   20  N   UNL     1     -42.914  61.617 -50.711  1.00  0.00    -0.224 NA
HETATM   21  N   UNL     1     -41.523  59.778 -49.910  1.00  0.00    -0.349 N 
HETATM   22  C   UNL     1     -43.328  61.918 -51.921  1.00  0.00     0.210 A 
HETATM   23  H   UNL     1     -41.570  60.130 -48.957  1.00  0.00     0.167 HD
HETATM   24  C   UNL     1     -40.829  58.688 -50.228  1.00  0.00     0.092 A 
HETATM   25  C   UNL     1     -40.782  58.241 -51.546  1.00  0.00     0.048 A 
HETATM   26  H   UNL     1     -43.091  61.055 -53.838  1.00  0.00     0.167 HD
ENDBRANCH  14  16
ENDBRANCH   1  14
TORSDOF 4
ENDMDL
MODEL 5
REMARK VINA RESULT:      -8.2      1.517      2.149
REMARK  4 active torsions:
REMARK  status: ('A' for Active; 'I' for Inactive)
REMARK    1  A    between atoms: C_4  and  C_5 
REMARK    2  A    between atoms: C_8  and  C_9 
REMARK    3  A    between atoms: C_9  and  N_10 
REMARK    4  A    between atoms: N_10  and  C_11 
ROOT
HETATM    1  C   UNL     1     -42.613  57.235 -54.751  1.00  0.00     0.158 C 
ENDROOT
BRANCH   1   2
HETATM    2  C   UNL     1     -41.997  55.921 -54.343  1.00  0.00    -0.041 A 
HETATM    3  C   UNL     1     -42.578  55.143 -53.335  1.00  0.00     0.009 A 
HETATM    4  C   UNL     1     -42.030  53.901 -52.993  1.00  0.00     0.013 A 
HETATM    5  C   UNL     1     -40.889  53.404 -53.643  1.00  0.00    -0.026 A 
HETATM    6  C   UNL     1     -40.292  54.212 -54.624  1.00  0.00     0.013 A 
HETATM    7  C   UNL     1     -40.834  55.457 -54.966  1.00  0.00     0.009 A 
BRANCH   5   8
HETATM    8  C   UNL     1     -40.352  52.067 -53.326  1.00  0.00    -0.026 A 
HETATM    9  C   UNL     1     -39.914  51.754 -52.027  1.00  0.00     0.012 A 
HETATM   10  C   UNL     1     -39.422  50.484 -51.714  1.00  0.00     0.001 A 
HETATM   11  C   UNL     1     -39.361  49.499 -52.696  1.00  0.00     0.000 A 
HETATM   12  C   UNL     1     -39.787  49.785 -53.989  1.00  0.00     0.001 A 
HETATM   13  C   UNL     1     -40.278  51.058 -54.301  1.00  0.00     0.012 A 
ENDBRANCH   5   8
ENDBRANCH   1   2
BRANCH   1  14
HETATM   14  N   UNL     1     -42.324  57.509 -56.150  1.00  0.00    -0.384 N 
HETATM   15  H   UNL     1     -41.852  58.409 -56.251  1.00  0.00     0.160 HD
BRANCH  14  16
HETATM   16  C   UNL     1     -43.234  57.246 -57.171  1.00  0.00     0.060 A 
HETATM   17  C   UNL     1     -44.436  57.913 -57.448  1.00  0.00     0.106 A 
HETATM   18  C   UNL     1     -45.299  57.512 -58.460  1.00  0.00     0.158 A 
HETATM   19  N   UNL     1     -45.089  59.000 -56.911  1.00  0.00    -0.346 N 
HETATM   20  N   UNL     1     -46.401  58.301 -58.562  1.00  0.00    -0.224 NA
HETATM   21  N   UNL     1     -44.997  56.416 -59.221  1.00  0.00    -0.349 N 
HETATM   22  C   UNL     1     -46.250  59.194 -57.610  1.00  0.00     0.210 A 
HETATM   23  H   UNL     1     -45.657  56.152 -59.948  1.00  0.00     0.167 HD
HETATM   24  C   UNL     1     -43.886  55.722 -58.987  1.00  0.00     0.092 A 
HETATM   25  C   UNL     1     -43.011  56.109 -57.976  1.00  0.00     0.048 A 
HETATM   26  H   UNL     1     -44.783  59.568 -56.133  1.00  0.00     0.167 HD
ENDBRANCH  14  16
ENDBRANCH   1  14
TORSDOF 4
ENDMDL
MODEL 6
REMARK VINA RESULT:      -8.1      3.420      4.949
REMARK  4 active torsions:
REMARK  status: ('A' for Active; 'I' for Inactive)
REMARK    1  A    between atoms: C_4  and  C_5 
REMARK    2  A    between atoms: C_8  and  C_9 
REMARK    3  A    between atoms: C_9  and  N_10 
REMARK    4  A    between atoms: N_10  and  C_11 
ROOT
HETATM    1  C   UNL     1     -41.864  57.569 -54.269  1.00  0.00     0.158 C 
ENDROOT
BRANCH   1   2
HETATM    2  C   UNL     1     -41.490  56.129 -54.024  1.00  0.00    -0.041 A 
HETATM    3  C   UNL     1     -40.784  55.401 -54.988  1.00  0.00     0.009 A 
HETATM    4  C   UNL     1     -40.397  54.079 -54.737  1.00  0.00     0.013 A 
HETATM    5  C   UNL     1     -40.707  53.448 -53.521  1.00  0.00    -0.026 A 
HETATM    6  C   UNL     1     -41.452  54.176 -52.578  1.00  0.00     0.013 A 
HETATM    7  C   UNL     1     -41.844  55.496 -52.828  1.00  0.00     0.009 A 
BRANCH   5   8
HETATM    8  C   UNL     1     -40.243  52.078 -53.232  1.00  0.00    -0.026 A 
HETATM    9  C   UNL     1     -39.871  51.701 -51.929  1.00  0.00     0.012 A 
HETATM   10  C   UNL     1     -39.449  50.400 -51.644  1.00  0.00     0.001 A 
HETATM   11  C   UNL     1     -39.392  49.448 -52.658  1.00  0.00     0.000 A 
HETATM   12  C   UNL     1     -39.754  49.797 -53.955  1.00  0.00     0.001 A 
HETATM   13  C   UNL     1     -40.174  51.100 -54.240  1.00  0.00     0.012 A 
ENDBRANCH   5   8
ENDBRANCH   1   2
BRANCH   1  14
HETATM   14  N   UNL     1     -42.471  58.137 -53.075  1.00  0.00    -0.384 N 
HETATM   15  H   UNL     1     -42.445  57.466 -52.305  1.00  0.00     0.160 HD
BRANCH  14  16
HETATM   16  C   UNL     1     -43.641  58.891 -53.112  1.00  0.00     0.060 A 
HETATM   17  C   UNL     1     -44.496  59.210 -52.048  1.00  0.00     0.106 A 
HETATM   18  C   UNL     1     -45.678  59.917 -52.222  1.00  0.00     0.158 A 
HETATM   19  N   UNL     1     -44.486  58.974 -50.691  1.00  0.00    -0.346 N 
HETATM   20  N   UNL     1     -46.350  60.125 -51.059  1.00  0.00    -0.224 NA
HETATM   21  N   UNL     1     -46.057  60.315 -53.475  1.00  0.00    -0.349 N 
HETATM   22  C   UNL     1     -45.607  59.541 -50.146  1.00  0.00     0.210 A 
HETATM   23  H   UNL     1     -46.932  60.827 -53.562  1.00  0.00     0.167 HD
HETATM   24  C   UNL     1     -45.305  60.016 -54.531  1.00  0.00     0.092 A 
HETATM   25  C   UNL     1     -44.117  59.307 -54.374  1.00  0.00     0.048 A 
HETATM   26  H   UNL     1     -43.784  58.468 -50.168  1.00  0.00     0.167 HD
ENDBRANCH  14  16
ENDBRANCH   1  14
TORSDOF 4
ENDMDL
MODEL 7
REMARK VINA RESULT:      -8.1      3.261      5.628
REMARK  4 active torsions:
REMARK  status: ('A' for Active; 'I' for Inactive)
REMARK    1  A    between atoms: C_4  and  C_5 
REMARK    2  A    between atoms: C_8  and  C_9 
REMARK    3  A    between atoms: C_9  and  N_10 
REMARK    4  A    between atoms: N_10  and  C_11 
ROOT
HETATM    1  C   UNL     1     -41.992  57.468 -54.376  1.00  0.00     0.158 C 
ENDROOT
BRANCH   1   2
HETATM    2  C   UNL     1     -41.596  56.035 -54.129  1.00  0.00    -0.041 A 
HETATM    3  C   UNL     1     -40.798  55.345 -55.049  1.00  0.00     0.009 A 
HETATM    4  C   UNL     1     -40.393  54.031 -54.792  1.00  0.00     0.013 A 
HETATM    5  C   UNL     1     -40.776  53.366 -53.615  1.00  0.00    -0.026 A 
HETATM    6  C   UNL     1     -41.611  54.055 -52.719  1.00  0.00     0.013 A 
HETATM    7  C   UNL     1     -42.022  55.368 -52.975  1.00  0.00     0.009 A 
BRANCH   5   8
HETATM    8  C   UNL     1     -40.295  52.005 -53.316  1.00  0.00    -0.026 A 
HETATM    9  C   UNL     1     -40.144  51.052 -54.340  1.00  0.00     0.012 A 
HETATM   10  C   UNL     1     -39.670  49.765 -54.068  1.00  0.00     0.001 A 
HETATM   11  C   UNL     1     -39.337  49.407 -52.765  1.00  0.00     0.000 A 
HETATM   12  C   UNL     1     -39.479  50.332 -51.735  1.00  0.00     0.001 A 
HETATM   13  C   UNL     1     -39.955  51.619 -52.009  1.00  0.00     0.012 A 
ENDBRANCH   5   8
ENDBRANCH   1   2
BRANCH   1  14
HETATM   14  N   UNL     1     -43.035  57.866 -53.443  1.00  0.00    -0.384 N 
HETATM   15  H   UNL     1     -43.902  58.075 -53.942  1.00  0.00     0.160 HD
BRANCH  14  16
HETATM   16  C   UNL     1     -42.797  58.718 -52.368  1.00  0.00     0.060 A 
HETATM   17  C   UNL     1     -41.579  58.974 -51.723  1.00  0.00     0.106 A 
HETATM   18  C   UNL     1     -41.478  59.798 -50.610  1.00  0.00     0.158 A 
HETATM   19  N   UNL     1     -40.276  58.568 -51.913  1.00  0.00    -0.346 N 
HETATM   20  N   UNL     1     -40.206  59.916 -50.148  1.00  0.00    -0.224 NA
HETATM   21  N   UNL     1     -42.602  60.383 -50.090  1.00  0.00    -0.349 N 
HETATM   22  C   UNL     1     -39.497  59.158 -50.954  1.00  0.00     0.210 A 
HETATM   23  H   UNL     1     -42.487  60.976 -49.272  1.00  0.00     0.167 HD
HETATM   24  C   UNL     1     -43.792  60.155 -50.638  1.00  0.00     0.092 A 
HETATM   25  C   UNL     1     -43.910  59.331 -51.754  1.00  0.00     0.048 A 
HETATM   26  H   UNL     1     -39.934  57.941 -52.627  1.00  0.00     0.167 HD
ENDBRANCH  14  16
ENDBRANCH   1  14
TORSDOF 4
ENDMDL
MODEL 8
REMARK VINA RESULT:      -7.9      2.480      4.871
REMARK  4 active torsions:
REMARK  status: ('A' for Active; 'I' for Inactive)
REMARK    1  A    between atoms: C_4  and  C_5 
REMARK    2  A    between atoms: C_8  and  C_9 
REMARK    3  A    between atoms: C_9  and  N_10 
REMARK    4  A    between atoms: N_10  and  C_11 
ROOT
HETATM    1  C   UNL     1     -42.657  57.056 -55.834  1.00  0.00     0.158 C 
ENDROOT
BRANCH   1   2
HETATM    2  C   UNL     1     -42.065  55.770 -55.317  1.00  0.00    -0.041 A 
HETATM    3  C   UNL     1     -40.773  55.744 -54.778  1.00  0.00     0.009 A 
HETATM    4  C   UNL     1     -40.246  54.558 -54.255  1.00  0.00     0.013 A 
HETATM    5  C   UNL     1     -40.989  53.366 -54.259  1.00  0.00    -0.026 A 
HETATM    6  C   UNL     1     -42.268  53.395 -54.839  1.00  0.00     0.013 A 
HETATM    7  C   UNL     1     -42.797  54.578 -55.367  1.00  0.00     0.009 A 
BRANCH   5   8
HETATM    8  C   UNL     1     -40.457  52.133 -53.649  1.00  0.00    -0.026 A 
HETATM    9  C   UNL     1     -40.347  50.947 -54.397  1.00  0.00     0.012 A 
HETATM   10  C   UNL     1     -39.826  49.779 -53.832  1.00  0.00     0.001 A 
HETATM   11  C   UNL     1     -39.401  49.777 -52.506  1.00  0.00     0.000 A 
HETATM   12  C   UNL     1     -39.501  50.938 -51.746  1.00  0.00     0.001 A 
HETATM   13  C   UNL     1     -40.025  52.105 -52.312  1.00  0.00     0.012 A 
ENDBRANCH   5   8
ENDBRANCH   1   2
BRANCH   1  14
HETATM   14  N   UNL     1     -43.841  57.406 -55.064  1.00  0.00    -0.384 N 
HETATM   15  H   UNL     1     -44.492  57.950 -55.633  1.00  0.00     0.160 HD
BRANCH  14  16
HETATM   16  C   UNL     1     -43.777  57.830 -53.739  1.00  0.00     0.060 A 
HETATM   17  C   UNL     1     -43.336  59.068 -53.250  1.00  0.00     0.106 A 
HETATM   18  C   UNL     1     -43.254  59.351 -51.893  1.00  0.00     0.158 A 
HETATM   19  N   UNL     1     -42.891  60.237 -53.827  1.00  0.00    -0.346 N 
HETATM   20  N   UNL     1     -42.811  60.610 -51.638  1.00  0.00    -0.224 NA
HETATM   21  N   UNL     1     -43.596  58.396 -50.974  1.00  0.00    -0.349 N 
HETATM   22  C   UNL     1     -42.595  61.125 -52.828  1.00  0.00     0.210 A 
HETATM   23  H   UNL     1     -43.519  58.641 -49.990  1.00  0.00     0.167 HD
HETATM   24  C   UNL     1     -43.993  57.191 -51.374  1.00  0.00     0.092 A 
HETATM   25  C   UNL     1     -44.080  56.890 -52.731  1.00  0.00     0.048 A 
HETATM   26  H   UNL     1     -42.789  60.426 -54.814  1.00  0.00     0.167 HD
ENDBRANCH  14  16
ENDBRANCH   1  14
TORSDOF 4
ENDMDL
MODEL 9
REMARK VINA RESULT:      -7.7      2.544      3.826
REMARK  4 active torsions:
REMARK  status: ('A' for Active; 'I' for Inactive)
REMARK    1  A    between atoms: C_4  and  C_5 
REMARK    2  A    between atoms: C_8  and  C_9 
REMARK    3  A    between atoms: C_9  and  N_10 
REMARK    4  A    between atoms: N_10  and  C_11 
ROOT
HETATM    1  C   UNL     1     -41.881  57.533 -51.112  1.00  0.00     0.158 C 
ENDROOT
BRANCH   1   2
HETATM    2  C   UNL     1     -41.374  56.157 -51.460  1.00  0.00    -0.041 A 
HETATM    3  C   UNL     1     -40.921  55.289 -50.460  1.00  0.00     0.009 A 
HETATM    4  C   UNL     1     -40.496  53.995 -50.782  1.00  0.00     0.013 A 
HETATM    5  C   UNL     1     -40.508  53.533 -52.109  1.00  0.00    -0.026 A 
HETATM    6  C   UNL     1     -40.927  54.427 -53.108  1.00  0.00     0.013 A 
HETATM    7  C   UNL     1     -41.348  55.723 -52.790  1.00  0.00     0.009 A 
BRANCH   5   8
HETATM    8  C   UNL     1     -40.122  52.148 -52.438  1.00  0.00    -0.026 A 
HETATM    9  C   UNL     1     -39.754  51.241 -51.428  1.00  0.00     0.012 A 
HETATM   10  C   UNL     1     -39.405  49.922 -51.729  1.00  0.00     0.001 A 
HETATM   11  C   UNL     1     -39.420  49.482 -53.050  1.00  0.00     0.000 A 
HETATM   12  C   UNL     1     -39.780  50.361 -54.067  1.00  0.00     0.001 A 
HETATM   13  C   UNL     1     -40.126  51.682 -53.764  1.00  0.00     0.012 A 
ENDBRANCH   5   8
ENDBRANCH   1   2
BRANCH   1  14
HETATM   14  N   UNL     1     -42.004  58.339 -52.317  1.00  0.00    -0.384 N 
HETATM   15  H   UNL     1     -41.315  59.094 -52.315  1.00  0.00     0.160 HD
BRANCH  14  16
HETATM   16  C   UNL     1     -43.235  58.715 -52.848  1.00  0.00     0.060 A 
HETATM   17  C   UNL     1     -43.752  58.422 -54.118  1.00  0.00     0.106 A 
HETATM   18  C   UNL     1     -44.973  58.914 -54.562  1.00  0.00     0.158 A 
HETATM   19  N   UNL     1     -43.316  57.686 -55.197  1.00  0.00    -0.346 N 
HETATM   20  N   UNL     1     -45.288  58.502 -55.818  1.00  0.00    -0.224 NA
HETATM   21  N   UNL     1     -45.713  59.735 -53.753  1.00  0.00    -0.349 N 
HETATM   22  C   UNL     1     -44.266  57.761 -56.182  1.00  0.00     0.210 A 
HETATM   23  H   UNL     1     -46.599  60.077 -54.116  1.00  0.00     0.167 HD
HETATM   24  C   UNL     1     -45.262  60.075 -52.549  1.00  0.00     0.092 A 
HETATM   25  C   UNL     1     -44.040  59.591 -52.089  1.00  0.00     0.048 A 
HETATM   26  H   UNL     1     -42.447  57.175 -55.273  1.00  0.00     0.167 HD
ENDBRANCH  14  16
ENDBRANCH   1  14
TORSDOF 4
ENDMDL
MODEL 10
REMARK VINA RESULT:      -7.6      3.180      4.193
REMARK  4 active torsions:
REMARK  status: ('A' for Active; 'I' for Inactive)
REMARK    1  A    between atoms: C_4  and  C_5 
REMARK    2  A    between atoms: C_8  and  C_9 
REMARK    3  A    between atoms: C_9  and  N_10 
REMARK    4  A    between atoms: N_10  and  C_11 
ROOT
HETATM    1  C   UNL     1     -41.961  57.667 -52.420  1.00  0.00     0.158 C 
ENDROOT
BRANCH   1   2
HETATM    2  C   UNL     1     -41.449  56.255 -52.555  1.00  0.00    -0.041 A 
HETATM    3  C   UNL     1     -41.283  55.445 -51.425  1.00  0.00     0.009 A 
HETATM    4  C   UNL     1     -40.854  54.120 -51.559  1.00  0.00     0.013 A 
HETATM    5  C   UNL     1     -40.576  53.568 -52.820  1.00  0.00    -0.026 A 
HETATM    6  C   UNL     1     -40.707  54.403 -53.942  1.00  0.00     0.013 A 
HETATM    7  C   UNL     1     -41.131  55.730 -53.812  1.00  0.00     0.009 A 
BRANCH   5   8
HETATM    8  C   UNL     1     -40.186  52.153 -52.965  1.00  0.00    -0.026 A 
HETATM    9  C   UNL     1     -39.769  51.401 -51.851  1.00  0.00     0.012 A 
HETATM   10  C   UNL     1     -39.417  50.054 -51.976  1.00  0.00     0.001 A 
HETATM   11  C   UNL     1     -39.478  49.431 -53.219  1.00  0.00     0.000 A 
HETATM   12  C   UNL     1     -39.887  50.154 -54.336  1.00  0.00     0.001 A 
HETATM   13  C   UNL     1     -40.237  51.502 -54.209  1.00  0.00     0.012 A 
ENDBRANCH   5   8
ENDBRANCH   1   2
BRANCH   1  14
HETATM   14  N   UNL     1     -43.415  57.676 -52.455  1.00  0.00    -0.384 N 
HETATM   15  H   UNL     1     -43.786  56.759 -52.201  1.00  0.00     0.160 HD
BRANCH  14  16
HETATM   16  C   UNL     1     -44.139  58.304 -53.465  1.00  0.00     0.060 A 
HETATM   17  C   UNL     1     -44.525  59.650 -53.541  1.00  0.00     0.106 A 
HETATM   18  C   UNL     1     -45.310  60.148 -54.572  1.00  0.00     0.158 A 
HETATM   19  N   UNL     1     -44.317  60.765 -52.759  1.00  0.00    -0.346 N 
HETATM   20  N   UNL     1     -45.559  61.479 -54.457  1.00  0.00    -0.224 NA
HETATM   21  N   UNL     1     -45.753  59.309 -55.559  1.00  0.00    -0.349 N 
HETATM   22  C   UNL     1     -44.948  61.828 -53.347  1.00  0.00     0.210 A 
HETATM   23  H   UNL     1     -46.329  59.711 -56.294  1.00  0.00     0.167 HD
HETATM   24  C   UNL     1     -45.447  58.014 -55.527  1.00  0.00     0.092 A 
HETATM   25  C   UNL     1     -44.662  57.499 -54.499  1.00  0.00     0.048 A 
HETATM   26  H   UNL     1     -43.796  60.811 -51.894  1.00  0.00     0.167 HD
ENDBRANCH  14  16
ENDBRANCH   1  14
TORSDOF 4
ENDMDL
