MODEL 1
REMARK VINA RESULT:      -9.2      0.000      0.000
REMARK  7 active torsions:
REMARK  status: ('A' for Active; 'I' for Inactive)
REMARK    1  A    between atoms: C_2  and  O_3 
REMARK    2  A    between atoms: O_3  and  C_4 
REMARK    3  A    between atoms: C_4  and  C_5 
REMARK    4  A    between atoms: C_8  and  N_9 
REMARK    5  A    between atoms: C_12  and  N_13 
REMARK    6  A    between atoms: C_17  and  O_18 
REMARK    7  A    between atoms: C_17  and  C_19 
ROOT
HETATM    1  N   UNL     1     -42.911  57.561 -55.186  1.00  0.00    -0.251 N 
HETATM    2  C   UNL     1     -43.336  56.861 -54.080  1.00  0.00     0.262 C 
HETATM    3  O   UNL     1     -43.887  55.776 -53.974  1.00  0.00    -0.270 OA
HETATM    4  C   UNL     1     -42.982  57.681 -52.862  1.00  0.00     0.289 C 
HETATM    5  C   UNL     1     -41.837  58.540 -53.335  1.00  0.00     0.146 C 
HETATM    6  C   UNL     1     -42.099  58.613 -54.811  1.00  0.00     0.233 C 
HETATM    7  O   UNL     1     -41.613  59.508 -55.486  1.00  0.00    -0.273 OA
ENDROOT
BRANCH   4   8
HETATM    8  N   UNL     1     -42.691  56.876 -51.581  1.00  0.00    -0.058 N 
HETATM    9  H   UNL     1     -43.046  57.484 -50.822  1.00  0.00     0.281 HD
HETATM   10  C   UNL     1     -43.478  55.590 -51.432  1.00  0.00     0.239 C 
HETATM   11  C   UNL     1     -43.099  54.873 -50.145  1.00  0.00     0.071 C 
HETATM   12  C   UNL     1     -41.584  54.593 -50.063  1.00  0.00     0.088 C 
HETATM   13  C   UNL     1     -40.912  55.980 -50.080  1.00  0.00     0.071 C 
HETATM   14  C   UNL     1     -41.202  56.726 -51.368  1.00  0.00     0.239 C 
BRANCH  12  15
HETATM   15  O   UNL     1     -41.336  54.035 -48.773  1.00  0.00    -0.385 OA
HETATM   16  H   UNL     1     -41.268  53.065 -48.840  1.00  0.00     0.211 HD
ENDBRANCH  12  15
BRANCH  12  17
HETATM   17  C   UNL     1     -41.047  53.617 -51.118  1.00  0.00    -0.024 A 
HETATM   18  C   UNL     1     -41.421  53.721 -52.473  1.00  0.00     0.011 A 
HETATM   19  C   UNL     1     -40.976  52.800 -53.428  1.00  0.00     0.020 A 
HETATM   20  C   UNL     1     -40.118  51.775 -53.053  1.00  0.00     0.011 A 
HETATM   21 BR   UNL     1     -39.535  50.517 -54.334  1.00  0.00    -0.051 Br
HETATM   22  C   UNL     1     -39.678  51.682 -51.739  1.00  0.00     0.020 A 
HETATM   23  C   UNL     1     -40.127  52.605 -50.785  1.00  0.00     0.011 A 
ENDBRANCH  12  17
ENDBRANCH   4   8
BRANCH   1  24
HETATM   24  C   UNL     1     -43.311  57.289 -56.530  1.00  0.00     0.045 A 
HETATM   25  C   UNL     1     -42.795  56.192 -57.239  1.00  0.00     0.031 A 
HETATM   26  C   UNL     1     -43.288  55.847 -58.507  1.00  0.00     0.020 A 
HETATM   27  C   UNL     1     -44.300  56.601 -59.107  1.00  0.00     0.039 A 
HETATM   28  C   UNL     1     -44.775  57.733 -58.444  1.00  0.00     0.020 A 
HETATM   29  C   UNL     1     -44.286  58.068 -57.174  1.00  0.00     0.031 A 
BRANCH  27  30
HETATM   30  C   UNL     1     -44.869  56.132 -60.400  1.00  0.00     0.293 C 
HETATM   31  O   UNL     1     -44.444  55.160 -61.002  1.00  0.00    -0.259 OA
BRANCH  30  32
HETATM   32  O   UNL     1     -45.937  56.892 -60.742  1.00  0.00    -0.318 OA
BRANCH  32  33
HETATM   33  C   UNL     1     -47.216  56.241 -60.707  1.00  0.00     0.174 C 
HETATM   34  C   UNL     1     -48.083  56.784 -61.828  1.00  0.00     0.034 C 
ENDBRANCH  32  33
ENDBRANCH  30  32
ENDBRANCH  27  30
ENDBRANCH   1  24
TORSDOF 7
ENDMDL
MODEL 2
REMARK VINA RESULT:      -8.8      5.254      8.969
REMARK  7 active torsions:
REMARK  status: ('A' for Active; 'I' for Inactive)
REMARK    1  A    between atoms: C_2  and  O_3 
REMARK    2  A    between atoms: O_3  and  C_4 
REMARK    3  A    between atoms: C_4  and  C_5 
REMARK    4  A    between atoms: C_8  and  N_9 
REMARK    5  A    between atoms: C_12  and  N_13 
REMARK    6  A    between atoms: C_17  and  O_18 
REMARK    7  A    between atoms: C_17  and  C_19 
ROOT
HETATM    1  N   UNL     1     -42.828  56.057 -52.106  1.00  0.00    -0.251 N 
HETATM    2  C   UNL     1     -42.670  57.362 -52.514  1.00  0.00     0.262 C 
HETATM    3  O   UNL     1     -42.073  57.844 -53.465  1.00  0.00    -0.270 OA
HETATM    4  C   UNL     1     -43.428  58.235 -51.543  1.00  0.00     0.289 C 
HETATM    5  C   UNL     1     -44.467  57.305 -50.969  1.00  0.00     0.146 C 
HETATM    6  C   UNL     1     -43.807  55.968 -51.136  1.00  0.00     0.233 C 
HETATM    7  O   UNL     1     -44.162  55.010 -50.467  1.00  0.00    -0.273 OA
ENDROOT
BRANCH   4   8
HETATM    8  N   UNL     1     -43.994  59.544 -52.128  1.00  0.00    -0.058 N 
HETATM    9  H   UNL     1     -43.943  59.397 -53.152  1.00  0.00     0.281 HD
HETATM   10  C   UNL     1     -45.463  59.793 -51.856  1.00  0.00     0.239 C 
HETATM   11  C   UNL     1     -45.906  61.116 -52.463  1.00  0.00     0.071 C 
HETATM   12  C   UNL     1     -45.053  62.298 -51.961  1.00  0.00     0.088 C 
HETATM   13  C   UNL     1     -43.616  61.991 -52.424  1.00  0.00     0.071 C 
HETATM   14  C   UNL     1     -43.090  60.711 -51.803  1.00  0.00     0.239 C 
BRANCH  12  15
HETATM   15  O   UNL     1     -45.478  63.452 -52.685  1.00  0.00    -0.385 OA
HETATM   16  H   UNL     1     -46.391  63.683 -52.433  1.00  0.00     0.211 HD
ENDBRANCH  12  15
BRANCH  12  17
HETATM   17  C   UNL     1     -45.184  62.600 -50.461  1.00  0.00    -0.024 A 
HETATM   18  C   UNL     1     -44.275  63.451 -49.801  1.00  0.00     0.011 A 
HETATM   19  C   UNL     1     -44.359  63.685 -48.424  1.00  0.00     0.020 A 
HETATM   20  C   UNL     1     -45.378  63.099 -47.684  1.00  0.00     0.011 A 
HETATM   21 BR   UNL     1     -45.481  63.394 -45.822  1.00  0.00    -0.051 Br
HETATM   22  C   UNL     1     -46.329  62.308 -48.315  1.00  0.00     0.020 A 
HETATM   23  C   UNL     1     -46.240  62.075 -49.693  1.00  0.00     0.011 A 
ENDBRANCH  12  17
ENDBRANCH   4   8
BRANCH   1  24
HETATM   24  C   UNL     1     -42.040  54.957 -52.562  1.00  0.00     0.045 A 
HETATM   25  C   UNL     1     -40.979  54.449 -51.794  1.00  0.00     0.031 A 
HETATM   26  C   UNL     1     -40.293  53.286 -52.179  1.00  0.00     0.020 A 
HETATM   27  C   UNL     1     -40.639  52.609 -53.351  1.00  0.00     0.039 A 
HETATM   28  C   UNL     1     -41.646  53.139 -54.159  1.00  0.00     0.020 A 
HETATM   29  C   UNL     1     -42.334  54.296 -53.766  1.00  0.00     0.031 A 
BRANCH  27  30
HETATM   30  C   UNL     1     -39.961  51.321 -53.659  1.00  0.00     0.293 C 
HETATM   31  O   UNL     1     -40.045  50.765 -54.742  1.00  0.00    -0.259 OA
BRANCH  30  32
HETATM   32  O   UNL     1     -39.209  50.926 -52.604  1.00  0.00    -0.318 OA
BRANCH  32  33
HETATM   33  C   UNL     1     -39.546  49.657 -52.024  1.00  0.00     0.174 C 
HETATM   34  C   UNL     1     -39.868  49.851 -50.553  1.00  0.00     0.034 C 
ENDBRANCH  32  33
ENDBRANCH  30  32
ENDBRANCH  27  30
ENDBRANCH   1  24
TORSDOF 7
ENDMDL
MODEL 3
REMARK VINA RESULT:      -8.7      1.913      3.108
REMARK  7 active torsions:
REMARK  status: ('A' for Active; 'I' for Inactive)
REMARK    1  A    between atoms: C_2  and  O_3 
REMARK    2  A    between atoms: O_3  and  C_4 
REMARK    3  A    between atoms: C_4  and  C_5 
REMARK    4  A    between atoms: C_8  and  N_9 
REMARK    5  A    between atoms: C_12  and  N_13 
REMARK    6  A    between atoms: C_17  and  O_18 
REMARK    7  A    between atoms: C_17  and  C_19 
ROOT
HETATM    1  N   UNL     1     -44.120  57.314 -57.713  1.00  0.00    -0.251 N 
HETATM    2  C   UNL     1     -43.899  57.710 -56.413  1.00  0.00     0.262 C 
HETATM    3  O   UNL     1     -44.517  58.474 -55.687  1.00  0.00    -0.270 OA
HETATM    4  C   UNL     1     -42.666  56.989 -55.923  1.00  0.00     0.289 C 
HETATM    5  C   UNL     1     -42.600  55.766 -56.801  1.00  0.00     0.146 C 
HETATM    6  C   UNL     1     -43.323  56.232 -58.031  1.00  0.00     0.233 C 
HETATM    7  O   UNL     1     -43.162  55.665 -59.101  1.00  0.00    -0.273 OA
ENDROOT
BRANCH   4   8
HETATM    8  N   UNL     1     -42.627  56.695 -54.411  1.00  0.00    -0.058 N 
HETATM    9  H   UNL     1     -43.073  57.527 -53.986  1.00  0.00     0.281 HD
HETATM   10  C   UNL     1     -43.486  55.534 -53.954  1.00  0.00     0.239 C 
HETATM   11  C   UNL     1     -43.356  55.326 -52.453  1.00  0.00     0.071 C 
HETATM   12  C   UNL     1     -41.890  55.117 -52.022  1.00  0.00     0.088 C 
HETATM   13  C   UNL     1     -41.161  56.417 -52.412  1.00  0.00     0.071 C 
HETATM   14  C   UNL     1     -41.202  56.653 -53.910  1.00  0.00     0.239 C 
BRANCH  12  15
HETATM   15  O   UNL     1     -41.883  55.057 -50.596  1.00  0.00    -0.385 OA
HETATM   16  H   UNL     1     -41.344  55.785 -50.237  1.00  0.00     0.211 HD
ENDBRANCH  12  15
BRANCH  12  17
HETATM   17  C   UNL     1     -41.233  53.838 -52.559  1.00  0.00    -0.024 A 
HETATM   18  C   UNL     1     -41.549  53.329 -53.834  1.00  0.00     0.011 A 
HETATM   19  C   UNL     1     -40.992  52.134 -54.304  1.00  0.00     0.020 A 
HETATM   20  C   UNL     1     -40.079  51.441 -53.520  1.00  0.00     0.011 A 
HETATM   21 BR   UNL     1     -39.344  49.817 -54.142  1.00  0.00    -0.051 Br
HETATM   22  C   UNL     1     -39.696  51.950 -52.286  1.00  0.00     0.020 A 
HETATM   23  C   UNL     1     -40.256  53.145 -51.818  1.00  0.00     0.011 A 
ENDBRANCH  12  17
ENDBRANCH   4   8
BRANCH   1  24
HETATM   24  C   UNL     1     -44.992  57.973 -58.632  1.00  0.00     0.045 A 
HETATM   25  C   UNL     1     -44.496  58.860 -59.602  1.00  0.00     0.031 A 
HETATM   26  C   UNL     1     -45.334  59.403 -60.588  1.00  0.00     0.020 A 
HETATM   27  C   UNL     1     -46.695  59.084 -60.622  1.00  0.00     0.039 A 
HETATM   28  C   UNL     1     -47.214  58.258 -59.625  1.00  0.00     0.020 A 
HETATM   29  C   UNL     1     -46.371  57.713 -58.646  1.00  0.00     0.031 A 
BRANCH  27  30
HETATM   30  C   UNL     1     -47.520  59.592 -61.751  1.00  0.00     0.293 C 
HETATM   31  O   UNL     1     -47.089  60.351 -62.603  1.00  0.00    -0.259 OA
BRANCH  30  32
HETATM   32  O   UNL     1     -48.754  59.035 -61.714  1.00  0.00    -0.318 OA
BRANCH  32  33
HETATM   33  C   UNL     1     -49.127  58.243 -62.852  1.00  0.00     0.174 C 
HETATM   34  C   UNL     1     -48.681  56.809 -62.628  1.00  0.00     0.034 C 
ENDBRANCH  32  33
ENDBRANCH  30  32
ENDBRANCH  27  30
ENDBRANCH   1  24
TORSDOF 7
ENDMDL
MODEL 4
REMARK VINA RESULT:      -8.6      3.660      9.612
REMARK  7 active torsions:
REMARK  status: ('A' for Active; 'I' for Inactive)
REMARK    1  A    between atoms: C_2  and  O_3 
REMARK    2  A    between atoms: O_3  and  C_4 
REMARK    3  A    between atoms: C_4  and  C_5 
REMARK    4  A    between atoms: C_8  and  N_9 
REMARK    5  A    between atoms: C_12  and  N_13 
REMARK    6  A    between atoms: C_17  and  O_18 
REMARK    7  A    between atoms: C_17  and  C_19 
ROOT
HETATM    1  N   UNL     1     -42.025  55.956 -54.654  1.00  0.00    -0.251 N 
HETATM    2  C   UNL     1     -42.499  55.751 -55.930  1.00  0.00     0.262 C 
HETATM    3  O   UNL     1     -42.936  54.749 -56.476  1.00  0.00    -0.270 OA
HETATM    4  C   UNL     1     -42.425  57.071 -56.659  1.00  0.00     0.289 C 
HETATM    5  C   UNL     1     -42.457  58.090 -55.548  1.00  0.00     0.146 C 
HETATM    6  C   UNL     1     -41.894  57.307 -54.398  1.00  0.00     0.233 C 
HETATM    7  O   UNL     1     -41.419  57.878 -53.429  1.00  0.00    -0.273 OA
ENDROOT
BRANCH   4   8
HETATM    8  N   UNL     1     -43.487  57.285 -57.755  1.00  0.00    -0.058 N 
HETATM    9  H   UNL     1     -44.134  56.487 -57.629  1.00  0.00     0.281 HD
HETATM   10  C   UNL     1     -44.361  58.510 -57.579  1.00  0.00     0.239 C 
HETATM   11  C   UNL     1     -45.357  58.629 -58.723  1.00  0.00     0.071 C 
HETATM   12  C   UNL     1     -44.659  58.654 -60.098  1.00  0.00     0.088 C 
HETATM   13  C   UNL     1     -43.928  57.302 -60.210  1.00  0.00     0.071 C 
HETATM   14  C   UNL     1     -42.875  57.145 -59.129  1.00  0.00     0.239 C 
BRANCH  12  15
HETATM   15  O   UNL     1     -45.690  58.643 -61.085  1.00  0.00    -0.385 OA
HETATM   16  H   UNL     1     -46.405  58.040 -60.809  1.00  0.00     0.211 HD
ENDBRANCH  12  15
BRANCH  12  17
HETATM   17  C   UNL     1     -43.768  59.878 -60.350  1.00  0.00    -0.024 A 
HETATM   18  C   UNL     1     -42.575  59.777 -61.093  1.00  0.00     0.011 A 
HETATM   19  C   UNL     1     -41.733  60.880 -61.278  1.00  0.00     0.020 A 
HETATM   20  C   UNL     1     -42.086  62.115 -60.753  1.00  0.00     0.011 A 
HETATM   21 BR   UNL     1     -40.941  63.599 -60.982  1.00  0.00    -0.051 Br
HETATM   22  C   UNL     1     -43.287  62.264 -60.072  1.00  0.00     0.020 A 
HETATM   23  C   UNL     1     -44.126  61.158 -59.887  1.00  0.00     0.011 A 
ENDBRANCH  12  17
ENDBRANCH   4   8
BRANCH   1  24
HETATM   24  C   UNL     1     -41.647  54.922 -53.745  1.00  0.00     0.045 A 
HETATM   25  C   UNL     1     -40.571  54.063 -54.022  1.00  0.00     0.031 A 
HETATM   26  C   UNL     1     -40.116  53.135 -53.071  1.00  0.00     0.020 A 
HETATM   27  C   UNL     1     -40.736  53.032 -51.823  1.00  0.00     0.039 A 
HETATM   28  C   UNL     1     -41.849  53.832 -51.559  1.00  0.00     0.020 A 
HETATM   29  C   UNL     1     -42.294  54.762 -52.509  1.00  0.00     0.031 A 
BRANCH  27  30
HETATM   30  C   UNL     1     -40.150  52.117 -50.807  1.00  0.00     0.293 C 
HETATM   31  O   UNL     1     -40.491  52.113 -49.636  1.00  0.00    -0.259 OA
BRANCH  30  32
HETATM   32  O   UNL     1     -39.264  51.276 -51.394  1.00  0.00    -0.318 OA
BRANCH  32  33
HETATM   33  C   UNL     1     -39.611  49.883 -51.386  1.00  0.00     0.174 C 
HETATM   34  C   UNL     1     -39.615  49.363 -52.812  1.00  0.00     0.034 C 
ENDBRANCH  32  33
ENDBRANCH  30  32
ENDBRANCH  27  30
ENDBRANCH   1  24
TORSDOF 7
ENDMDL
MODEL 5
REMARK VINA RESULT:      -8.6      3.543      8.091
REMARK  7 active torsions:
REMARK  status: ('A' for Active; 'I' for Inactive)
REMARK    1  A    between atoms: C_2  and  O_3 
REMARK    2  A    between atoms: O_3  and  C_4 
REMARK    3  A    between atoms: C_4  and  C_5 
REMARK    4  A    between atoms: C_8  and  N_9 
REMARK    5  A    between atoms: C_12  and  N_13 
REMARK    6  A    between atoms: C_17  and  O_18 
REMARK    7  A    between atoms: C_17  and  C_19 
ROOT
HETATM    1  N   UNL     1     -42.510  55.986 -52.452  1.00  0.00    -0.251 N 
HETATM    2  C   UNL     1     -42.297  57.243 -52.970  1.00  0.00     0.262 C 
HETATM    3  O   UNL     1     -41.705  57.614 -53.972  1.00  0.00    -0.270 OA
HETATM    4  C   UNL     1     -42.979  58.232 -52.054  1.00  0.00     0.289 C 
HETATM    5  C   UNL     1     -44.047  57.409 -51.379  1.00  0.00     0.146 C 
HETATM    6  C   UNL     1     -43.463  56.029 -51.453  1.00  0.00     0.233 C 
HETATM    7  O   UNL     1     -43.846  55.148 -50.699  1.00  0.00    -0.273 OA
ENDROOT
BRANCH   4   8
HETATM    8  N   UNL     1     -43.493  59.518 -52.730  1.00  0.00    -0.058 N 
HETATM    9  H   UNL     1     -43.856  60.082 -51.941  1.00  0.00     0.281 HD
HETATM   10  C   UNL     1     -42.426  60.390 -53.358  1.00  0.00     0.239 C 
HETATM   11  C   UNL     1     -43.047  61.617 -54.007  1.00  0.00     0.071 C 
HETATM   12  C   UNL     1     -44.121  61.240 -55.048  1.00  0.00     0.088 C 
HETATM   13  C   UNL     1     -45.209  60.488 -54.258  1.00  0.00     0.071 C 
HETATM   14  C   UNL     1     -44.667  59.216 -53.633  1.00  0.00     0.239 C 
BRANCH  12  15
HETATM   15  O   UNL     1     -44.711  62.461 -55.494  1.00  0.00    -0.385 OA
HETATM   16  H   UNL     1     -44.038  63.013 -55.933  1.00  0.00     0.211 HD
ENDBRANCH  12  15
BRANCH  12  17
HETATM   17  C   UNL     1     -43.595  60.486 -56.277  1.00  0.00    -0.024 A 
HETATM   18  C   UNL     1     -44.451  59.709 -57.084  1.00  0.00     0.011 A 
HETATM   19  C   UNL     1     -43.964  58.977 -58.173  1.00  0.00     0.020 A 
HETATM   20  C   UNL     1     -42.616  59.037 -58.499  1.00  0.00     0.011 A 
HETATM   21 BR   UNL     1     -41.953  58.032 -59.954  1.00  0.00    -0.051 Br
HETATM   22  C   UNL     1     -41.758  59.845 -57.765  1.00  0.00     0.020 A 
HETATM   23  C   UNL     1     -42.248  60.574 -56.675  1.00  0.00     0.011 A 
ENDBRANCH  12  17
ENDBRANCH   4   8
BRANCH   1  24
HETATM   24  C   UNL     1     -41.794  54.812 -52.837  1.00  0.00     0.045 A 
HETATM   25  C   UNL     1     -40.798  54.260 -52.014  1.00  0.00     0.031 A 
HETATM   26  C   UNL     1     -40.191  53.034 -52.328  1.00  0.00     0.020 A 
HETATM   27  C   UNL     1     -40.553  52.334 -53.482  1.00  0.00     0.039 A 
HETATM   28  C   UNL     1     -41.492  52.902 -54.343  1.00  0.00     0.020 A 
HETATM   29  C   UNL     1     -42.102  54.123 -54.021  1.00  0.00     0.031 A 
BRANCH  27  30
HETATM   30  C   UNL     1     -39.965  50.987 -53.714  1.00  0.00     0.293 C 
HETATM   31  O   UNL     1     -40.136  50.353 -54.743  1.00  0.00    -0.259 OA
BRANCH  30  32
HETATM   32  O   UNL     1     -39.184  50.632 -52.666  1.00  0.00    -0.318 OA
BRANCH  32  33
HETATM   33  C   UNL     1     -39.594  49.466 -51.935  1.00  0.00     0.174 C 
HETATM   34  C   UNL     1     -39.910  49.861 -50.504  1.00  0.00     0.034 C 
ENDBRANCH  32  33
ENDBRANCH  30  32
ENDBRANCH  27  30
ENDBRANCH   1  24
TORSDOF 7
ENDMDL
MODEL 6
REMARK VINA RESULT:      -8.6      3.043      8.415
REMARK  7 active torsions:
REMARK  status: ('A' for Active; 'I' for Inactive)
REMARK    1  A    between atoms: C_2  and  O_3 
REMARK    2  A    between atoms: O_3  and  C_4 
REMARK    3  A    between atoms: C_4  and  C_5 
REMARK    4  A    between atoms: C_8  and  N_9 
REMARK    5  A    between atoms: C_12  and  N_13 
REMARK    6  A    between atoms: C_17  and  O_18 
REMARK    7  A    between atoms: C_17  and  C_19 
ROOT
HETATM    1  N   UNL     1     -41.562  56.696 -53.989  1.00  0.00    -0.251 N 
HETATM    2  C   UNL     1     -41.984  57.356 -55.121  1.00  0.00     0.262 C 
HETATM    3  O   UNL     1     -42.407  56.938 -56.189  1.00  0.00    -0.270 OA
HETATM    4  C   UNL     1     -41.865  58.838 -54.853  1.00  0.00     0.289 C 
HETATM    5  C   UNL     1     -41.934  58.930 -53.350  1.00  0.00     0.146 C 
HETATM    6  C   UNL     1     -41.429  57.579 -52.936  1.00  0.00     0.233 C 
HETATM    7  O   UNL     1     -40.990  57.396 -51.811  1.00  0.00    -0.273 OA
ENDROOT
BRANCH   4   8
HETATM    8  N   UNL     1     -42.878  59.730 -55.596  1.00  0.00    -0.058 N 
HETATM    9  H   UNL     1     -42.874  60.612 -55.053  1.00  0.00     0.281 HD
HETATM   10  C   UNL     1     -42.469  60.148 -56.994  1.00  0.00     0.239 C 
HETATM   11  C   UNL     1     -43.546  61.008 -57.635  1.00  0.00     0.071 C 
HETATM   12  C   UNL     1     -44.915  60.298 -57.661  1.00  0.00     0.088 C 
HETATM   13  C   UNL     1     -45.279  60.061 -56.183  1.00  0.00     0.071 C 
HETATM   14  C   UNL     1     -44.272  59.156 -55.498  1.00  0.00     0.239 C 
BRANCH  12  15
HETATM   15  O   UNL     1     -45.860  61.241 -58.167  1.00  0.00    -0.385 OA
HETATM   16  H   UNL     1     -46.406  61.586 -57.438  1.00  0.00     0.211 HD
ENDBRANCH  12  15
BRANCH  12  17
HETATM   17  C   UNL     1     -44.976  59.040 -58.538  1.00  0.00    -0.024 A 
HETATM   18  C   UNL     1     -46.107  58.200 -58.539  1.00  0.00     0.011 A 
HETATM   19  C   UNL     1     -46.144  57.023 -59.297  1.00  0.00     0.020 A 
HETATM   20  C   UNL     1     -45.062  56.682 -60.097  1.00  0.00     0.011 A 
HETATM   21 BR   UNL     1     -45.099  55.084 -61.102  1.00  0.00    -0.051 Br
HETATM   22  C   UNL     1     -43.959  57.523 -60.170  1.00  0.00     0.020 A 
HETATM   23  C   UNL     1     -43.924  58.698 -59.409  1.00  0.00     0.011 A 
ENDBRANCH  12  17
ENDBRANCH   4   8
BRANCH   1  24
HETATM   24  C   UNL     1     -41.234  55.308 -53.927  1.00  0.00     0.045 A 
HETATM   25  C   UNL     1     -40.353  54.722 -54.850  1.00  0.00     0.031 A 
HETATM   26  C   UNL     1     -39.927  53.392 -54.708  1.00  0.00     0.020 A 
HETATM   27  C   UNL     1     -40.384  52.607 -53.646  1.00  0.00     0.039 A 
HETATM   28  C   UNL     1     -41.312  53.154 -52.760  1.00  0.00     0.020 A 
HETATM   29  C   UNL     1     -41.729  54.485 -52.901  1.00  0.00     0.031 A 
BRANCH  27  30
HETATM   30  C   UNL     1     -39.819  51.242 -53.472  1.00  0.00     0.293 C 
HETATM   31  O   UNL     1     -39.906  50.371 -54.321  1.00  0.00    -0.259 OA
BRANCH  30  32
HETATM   32  O   UNL     1     -39.157  51.158 -52.293  1.00  0.00    -0.318 OA
BRANCH  32  33
HETATM   33  C   UNL     1     -39.493  50.042 -51.454  1.00  0.00     0.174 C 
HETATM   34  C   UNL     1     -40.240  50.543 -50.232  1.00  0.00     0.034 C 
ENDBRANCH  32  33
ENDBRANCH  30  32
ENDBRANCH  27  30
ENDBRANCH   1  24
TORSDOF 7
ENDMDL
MODEL 7
REMARK VINA RESULT:      -8.4      4.145      7.367
REMARK  7 active torsions:
REMARK  status: ('A' for Active; 'I' for Inactive)
REMARK    1  A    between atoms: C_2  and  O_3 
REMARK    2  A    between atoms: O_3  and  C_4 
REMARK    3  A    between atoms: C_4  and  C_5 
REMARK    4  A    between atoms: C_8  and  N_9 
REMARK    5  A    between atoms: C_12  and  N_13 
REMARK    6  A    between atoms: C_17  and  O_18 
REMARK    7  A    between atoms: C_17  and  C_19 
ROOT
HETATM    1  N   UNL     1     -43.894  58.715 -53.171  1.00  0.00    -0.251 N 
HETATM    2  C   UNL     1     -42.856  57.815 -53.241  1.00  0.00     0.262 C 
HETATM    3  O   UNL     1     -42.156  57.321 -52.369  1.00  0.00    -0.270 OA
HETATM    4  C   UNL     1     -42.670  57.450 -54.695  1.00  0.00     0.289 C 
HETATM    5  C   UNL     1     -44.020  57.729 -55.304  1.00  0.00     0.146 C 
HETATM    6  C   UNL     1     -44.564  58.777 -54.378  1.00  0.00     0.233 C 
HETATM    7  O   UNL     1     -45.466  59.518 -54.736  1.00  0.00    -0.273 OA
ENDROOT
BRANCH   4   8
HETATM    8  N   UNL     1     -42.129  56.031 -54.959  1.00  0.00    -0.058 N 
HETATM    9  H   UNL     1     -42.185  55.934 -55.988  1.00  0.00     0.281 HD
HETATM   10  C   UNL     1     -40.661  55.828 -54.642  1.00  0.00     0.239 C 
HETATM   11  C   UNL     1     -40.243  54.393 -54.923  1.00  0.00     0.071 C 
HETATM   12  C   UNL     1     -41.110  53.376 -54.154  1.00  0.00     0.088 C 
HETATM   13  C   UNL     1     -42.546  53.589 -54.671  1.00  0.00     0.071 C 
HETATM   14  C   UNL     1     -43.047  54.988 -54.366  1.00  0.00     0.239 C 
BRANCH  12  15
HETATM   15  O   UNL     1     -40.708  52.078 -54.589  1.00  0.00    -0.385 OA
HETATM   16  H   UNL     1     -41.494  51.543 -54.804  1.00  0.00     0.211 HD
ENDBRANCH  12  15
BRANCH  12  17
HETATM   17  C   UNL     1     -40.972  53.432 -52.626  1.00  0.00    -0.024 A 
HETATM   18  C   UNL     1     -42.012  53.924 -51.813  1.00  0.00     0.011 A 
HETATM   19  C   UNL     1     -41.869  54.027 -50.424  1.00  0.00     0.020 A 
HETATM   20  C   UNL     1     -40.693  53.606 -49.817  1.00  0.00     0.011 A 
HETATM   21 BR   UNL     1     -40.488  53.766 -47.947  1.00  0.00    -0.051 Br
HETATM   22  C   UNL     1     -39.674  53.055 -50.583  1.00  0.00     0.020 A 
HETATM   23  C   UNL     1     -39.820  52.956 -51.972  1.00  0.00     0.011 A 
ENDBRANCH  12  17
ENDBRANCH   4   8
BRANCH   1  24
HETATM   24  C   UNL     1     -44.196  59.530 -52.038  1.00  0.00     0.045 A 
HETATM   25  C   UNL     1     -43.567  60.770 -51.841  1.00  0.00     0.031 A 
HETATM   26  C   UNL     1     -43.959  61.629 -50.803  1.00  0.00     0.020 A 
HETATM   27  C   UNL     1     -44.981  61.263 -49.923  1.00  0.00     0.039 A 
HETATM   28  C   UNL     1     -45.569  60.006 -50.065  1.00  0.00     0.020 A 
HETATM   29  C   UNL     1     -45.179  59.155 -51.108  1.00  0.00     0.031 A 
BRANCH  27  30
HETATM   30  C   UNL     1     -45.440  62.252 -48.909  1.00  0.00     0.293 C 
HETATM   31  O   UNL     1     -44.845  63.291 -48.674  1.00  0.00    -0.259 OA
BRANCH  30  32
HETATM   32  O   UNL     1     -46.617  61.854 -48.369  1.00  0.00    -0.318 OA
BRANCH  32  33
HETATM   33  C   UNL     1     -46.689  61.856 -46.935  1.00  0.00     0.174 C 
HETATM   34  C   UNL     1     -45.905  60.675 -46.395  1.00  0.00     0.034 C 
ENDBRANCH  32  33
ENDBRANCH  30  32
ENDBRANCH  27  30
ENDBRANCH   1  24
TORSDOF 7
ENDMDL
MODEL 8
REMARK VINA RESULT:      -8.2      4.993      9.020
REMARK  7 active torsions:
REMARK  status: ('A' for Active; 'I' for Inactive)
REMARK    1  A    between atoms: C_2  and  O_3 
REMARK    2  A    between atoms: O_3  and  C_4 
REMARK    3  A    between atoms: C_4  and  C_5 
REMARK    4  A    between atoms: C_8  and  N_9 
REMARK    5  A    between atoms: C_12  and  N_13 
REMARK    6  A    between atoms: C_17  and  O_18 
REMARK    7  A    between atoms: C_17  and  C_19 
ROOT
HETATM    1  N   UNL     1     -42.437  56.757 -53.133  1.00  0.00    -0.251 N 
HETATM    2  C   UNL     1     -42.042  57.867 -52.422  1.00  0.00     0.262 C 
HETATM    3  O   UNL     1     -40.964  58.171 -51.934  1.00  0.00    -0.270 OA
HETATM    4  C   UNL     1     -43.236  58.786 -52.317  1.00  0.00     0.289 C 
HETATM    5  C   UNL     1     -44.088  58.393 -53.496  1.00  0.00     0.146 C 
HETATM    6  C   UNL     1     -43.671  56.969 -53.716  1.00  0.00     0.233 C 
HETATM    7  O   UNL     1     -44.388  56.197 -54.334  1.00  0.00    -0.273 OA
ENDROOT
BRANCH   4   8
HETATM    8  N   UNL     1     -42.911  60.290 -52.233  1.00  0.00    -0.058 N 
HETATM    9  H   UNL     1     -41.876  60.318 -52.224  1.00  0.00     0.281 HD
HETATM   10  C   UNL     1     -43.298  61.104 -53.450  1.00  0.00     0.239 C 
HETATM   11  C   UNL     1     -42.947  62.571 -53.251  1.00  0.00     0.071 C 
HETATM   12  C   UNL     1     -43.598  63.154 -51.979  1.00  0.00     0.088 C 
HETATM   13  C   UNL     1     -43.015  62.336 -50.811  1.00  0.00     0.071 C 
HETATM   14  C   UNL     1     -43.381  60.868 -50.919  1.00  0.00     0.239 C 
BRANCH  12  15
HETATM   15  O   UNL     1     -43.102  64.484 -51.834  1.00  0.00    -0.385 OA
HETATM   16  H   UNL     1     -43.501  65.061 -52.512  1.00  0.00     0.211 HD
ENDBRANCH  12  15
BRANCH  12  17
HETATM   17  C   UNL     1     -45.131  63.215 -52.006  1.00  0.00    -0.024 A 
HETATM   18  C   UNL     1     -45.893  63.042 -50.834  1.00  0.00     0.011 A 
HETATM   19  C   UNL     1     -47.293  63.044 -50.863  1.00  0.00     0.020 A 
HETATM   20  C   UNL     1     -47.958  63.253 -52.064  1.00  0.00     0.011 A 
HETATM   21 BR   UNL     1     -49.846  63.231 -52.111  1.00  0.00    -0.051 Br
HETATM   22  C   UNL     1     -47.237  63.491 -53.226  1.00  0.00     0.020 A 
HETATM   23  C   UNL     1     -45.837  63.487 -53.193  1.00  0.00     0.011 A 
ENDBRANCH  12  17
ENDBRANCH   4   8
BRANCH   1  24
HETATM   24  C   UNL     1     -41.712  55.528 -53.199  1.00  0.00     0.045 A 
HETATM   25  C   UNL     1     -41.770  54.588 -52.157  1.00  0.00     0.031 A 
HETATM   26  C   UNL     1     -41.167  53.326 -52.280  1.00  0.00     0.020 A 
HETATM   27  C   UNL     1     -40.478  52.976 -53.445  1.00  0.00     0.039 A 
HETATM   28  C   UNL     1     -40.355  53.924 -54.461  1.00  0.00     0.020 A 
HETATM   29  C   UNL     1     -40.965  55.180 -54.336  1.00  0.00     0.031 A 
BRANCH  27  30
HETATM   30  C   UNL     1     -39.954  51.590 -53.575  1.00  0.00     0.293 C 
HETATM   31  O   UNL     1     -40.118  50.906 -54.572  1.00  0.00    -0.259 OA
BRANCH  30  32
HETATM   32  O   UNL     1     -39.234  51.258 -52.477  1.00  0.00    -0.318 OA
BRANCH  32  33
HETATM   33  C   UNL     1     -39.516  49.975 -51.896  1.00  0.00     0.174 C 
HETATM   34  C   UNL     1     -39.974  50.167 -50.462  1.00  0.00     0.034 C 
ENDBRANCH  32  33
ENDBRANCH  30  32
ENDBRANCH  27  30
ENDBRANCH   1  24
TORSDOF 7
ENDMDL
MODEL 9
REMARK VINA RESULT:      -8.1      3.284      4.419
REMARK  7 active torsions:
REMARK  status: ('A' for Active; 'I' for Inactive)
REMARK    1  A    between atoms: C_2  and  O_3 
REMARK    2  A    between atoms: O_3  and  C_4 
REMARK    3  A    between atoms: C_4  and  C_5 
REMARK    4  A    between atoms: C_8  and  N_9 
REMARK    5  A    between atoms: C_12  and  N_13 
REMARK    6  A    between atoms: C_17  and  O_18 
REMARK    7  A    between atoms: C_17  and  C_19 
ROOT
HETATM    1  N   UNL     1     -42.977  57.463 -58.143  1.00  0.00    -0.251 N 
HETATM    2  C   UNL     1     -42.471  57.649 -56.876  1.00  0.00     0.262 C 
HETATM    3  O   UNL     1     -42.238  58.667 -56.242  1.00  0.00    -0.270 OA
HETATM    4  C   UNL     1     -42.223  56.282 -56.282  1.00  0.00     0.289 C 
HETATM    5  C   UNL     1     -43.167  55.390 -57.047  1.00  0.00     0.146 C 
HETATM    6  C   UNL     1     -43.322  56.140 -58.337  1.00  0.00     0.233 C 
HETATM    7  O   UNL     1     -43.708  55.571 -59.346  1.00  0.00    -0.273 OA
ENDROOT
BRANCH   4   8
HETATM    8  N   UNL     1     -42.355  56.191 -54.750  1.00  0.00    -0.058 N 
HETATM    9  H   UNL     1     -42.863  57.056 -54.494  1.00  0.00     0.281 HD
HETATM   10  C   UNL     1     -43.240  55.072 -54.242  1.00  0.00     0.239 C 
HETATM   11  C   UNL     1     -43.283  55.067 -52.721  1.00  0.00     0.071 C 
HETATM   12  C   UNL     1     -41.873  54.966 -52.103  1.00  0.00     0.088 C 
HETATM   13  C   UNL     1     -41.128  56.228 -52.579  1.00  0.00     0.071 C 
HETATM   14  C   UNL     1     -40.998  56.264 -54.090  1.00  0.00     0.239 C 
BRANCH  12  15
HETATM   15  O   UNL     1     -42.032  55.094 -50.691  1.00  0.00    -0.385 OA
HETATM   16  H   UNL     1     -42.417  54.276 -50.326  1.00  0.00     0.211 HD
ENDBRANCH  12  15
BRANCH  12  17
HETATM   17  C   UNL     1     -41.134  53.651 -52.385  1.00  0.00    -0.024 A 
HETATM   18  C   UNL     1     -41.080  53.103 -53.682  1.00  0.00     0.011 A 
HETATM   19  C   UNL     1     -40.453  51.876 -53.933  1.00  0.00     0.020 A 
HETATM   20  C   UNL     1     -39.838  51.190 -52.895  1.00  0.00     0.011 A 
HETATM   21 BR   UNL     1     -39.012  49.524 -53.225  1.00  0.00    -0.051 Br
HETATM   22  C   UNL     1     -39.816  51.734 -51.617  1.00  0.00     0.020 A 
HETATM   23  C   UNL     1     -40.445  52.960 -51.370  1.00  0.00     0.011 A 
ENDBRANCH  12  17
ENDBRANCH   4   8
BRANCH   1  24
HETATM   24  C   UNL     1     -43.063  58.476 -59.145  1.00  0.00     0.045 A 
HETATM   25  C   UNL     1     -44.114  59.408 -59.155  1.00  0.00     0.031 A 
HETATM   26  C   UNL     1     -44.127  60.483 -60.057  1.00  0.00     0.020 A 
HETATM   27  C   UNL     1     -43.095  60.646 -60.986  1.00  0.00     0.039 A 
HETATM   28  C   UNL     1     -42.079  59.691 -61.033  1.00  0.00     0.020 A 
HETATM   29  C   UNL     1     -42.067  58.623 -60.124  1.00  0.00     0.031 A 
BRANCH  27  30
HETATM   30  C   UNL     1     -43.092  61.861 -61.845  1.00  0.00     0.293 C 
HETATM   31  O   UNL     1     -44.068  62.578 -61.989  1.00  0.00    -0.259 OA
BRANCH  30  32
HETATM   32  O   UNL     1     -41.856  62.065 -62.360  1.00  0.00    -0.318 OA
BRANCH  32  33
HETATM   33  C   UNL     1     -41.129  63.188 -61.838  1.00  0.00     0.174 C 
HETATM   34  C   UNL     1     -39.651  63.006 -62.132  1.00  0.00     0.034 C 
ENDBRANCH  32  33
ENDBRANCH  30  32
ENDBRANCH  27  30
ENDBRANCH   1  24
TORSDOF 7
ENDMDL
MODEL 10
REMARK VINA RESULT:      -8.1      4.187      9.467
REMARK  7 active torsions:
REMARK  status: ('A' for Active; 'I' for Inactive)
REMARK    1  A    between atoms: C_2  and  O_3 
REMARK    2  A    between atoms: O_3  and  C_4 
REMARK    3  A    between atoms: C_4  and  C_5 
REMARK    4  A    between atoms: C_8  and  N_9 
REMARK    5  A    between atoms: C_12  and  N_13 
REMARK    6  A    between atoms: C_17  and  O_18 
REMARK    7  A    between atoms: C_17  and  C_19 
ROOT
HETATM    1  N   UNL     1     -42.200  56.257 -55.633  1.00  0.00    -0.251 N 
HETATM    2  C   UNL     1     -42.121  57.587 -55.287  1.00  0.00     0.262 C 
HETATM    3  O   UNL     1     -41.477  58.158 -54.420  1.00  0.00    -0.270 OA
HETATM    4  C   UNL     1     -43.017  58.354 -56.230  1.00  0.00     0.289 C 
HETATM    5  C   UNL     1     -43.099  57.463 -57.443  1.00  0.00     0.146 C 
HETATM    6  C   UNL     1     -42.842  56.110 -56.847  1.00  0.00     0.233 C 
HETATM    7  O   UNL     1     -43.185  55.096 -57.433  1.00  0.00    -0.273 OA
ENDROOT
BRANCH   4   8
HETATM    8  N   UNL     1     -42.583  59.803 -56.527  1.00  0.00    -0.058 N 
HETATM    9  H   UNL     1     -41.968  60.044 -55.730  1.00  0.00     0.281 HD
HETATM   10  C   UNL     1     -41.704  59.978 -57.748  1.00  0.00     0.239 C 
HETATM   11  C   UNL     1     -41.352  61.443 -57.953  1.00  0.00     0.071 C 
HETATM   12  C   UNL     1     -42.609  62.330 -58.060  1.00  0.00     0.088 C 
HETATM   13  C   UNL     1     -43.335  62.174 -56.709  1.00  0.00     0.071 C 
HETATM   14  C   UNL     1     -43.767  60.740 -56.470  1.00  0.00     0.239 C 
BRANCH  12  15
HETATM   15  O   UNL     1     -42.156  63.682 -58.125  1.00  0.00    -0.385 OA
HETATM   16  H   UNL     1     -41.438  63.822 -57.481  1.00  0.00     0.211 HD
ENDBRANCH  12  15
BRANCH  12  17
HETATM   17  C   UNL     1     -43.491  62.060 -59.287  1.00  0.00    -0.024 A 
HETATM   18  C   UNL     1     -44.877  62.309 -59.264  1.00  0.00     0.011 A 
HETATM   19  C   UNL     1     -45.692  62.013 -60.363  1.00  0.00     0.020 A 
HETATM   20  C   UNL     1     -45.129  61.494 -61.521  1.00  0.00     0.011 A 
HETATM   21 BR   UNL     1     -46.229  61.072 -62.997  1.00  0.00    -0.051 Br
HETATM   22  C   UNL     1     -43.757  61.299 -61.600  1.00  0.00     0.020 A 
HETATM   23  C   UNL     1     -42.945  61.595 -60.498  1.00  0.00     0.011 A 
ENDBRANCH  12  17
ENDBRANCH   4   8
BRANCH   1  24
HETATM   24  C   UNL     1     -41.751  55.173 -54.820  1.00  0.00     0.045 A 
HETATM   25  C   UNL     1     -40.614  54.423 -55.163  1.00  0.00     0.031 A 
HETATM   26  C   UNL     1     -40.097  53.447 -54.297  1.00  0.00     0.020 A 
HETATM   27  C   UNL     1     -40.713  53.184 -53.070  1.00  0.00     0.039 A 
HETATM   28  C   UNL     1     -41.882  53.873 -52.746  1.00  0.00     0.020 A 
HETATM   29  C   UNL     1     -42.390  54.853 -53.611  1.00  0.00     0.031 A 
BRANCH  27  30
HETATM   30  C   UNL     1     -40.065  52.222 -52.137  1.00  0.00     0.293 C 
HETATM   31  O   UNL     1     -40.340  52.157 -50.950  1.00  0.00    -0.259 OA
BRANCH  30  32
HETATM   32  O   UNL     1     -39.210  51.419 -52.815  1.00  0.00    -0.318 OA
BRANCH  32  33
HETATM   33  C   UNL     1     -39.629  50.058 -52.998  1.00  0.00     0.174 C 
HETATM   34  C   UNL     1     -40.001  49.844 -54.454  1.00  0.00     0.034 C 
ENDBRANCH  32  33
ENDBRANCH  30  32
ENDBRANCH  27  30
ENDBRANCH   1  24
TORSDOF 7
ENDMDL
