MODEL 1
REMARK VINA RESULT:      -8.4      0.000      0.000
REMARK  5 active torsions:
REMARK  status: ('A' for Active; 'I' for Inactive)
REMARK    1  A    between atoms: O_2  and  C_3 
REMARK    2  A    between atoms: C_4  and  C_5 
REMARK       I    between atoms: C_5  and  N_6 
REMARK    3  A    between atoms: N_6  and  C_7 
REMARK    4  A    between atoms: C_7  and  C_8 
REMARK       I    between atoms: C_8  and  N_9 
REMARK    5  A    between atoms: N_9  and  N_10 
ROOT
HETATM    1  C   UNL     1     -43.394  56.764 -56.137  1.00  0.00     0.255 C 
HETATM    2  N   UNL     1     -43.749  55.759 -55.252  1.00  0.00    -0.245 N 
HETATM    3  O   UNL     1     -42.314  56.821 -56.730  1.00  0.00    -0.270 OA
HETATM    4  H   UNL     1     -44.715  55.693 -54.915  1.00  0.00     0.192 HD
ENDROOT
BRANCH   1   5
HETATM    5  C   UNL     1     -44.515  57.747 -56.481  1.00  0.00     0.227 C 
BRANCH   5   6
HETATM    6  N   UNL     1     -45.330  57.426 -57.643  1.00  0.00    -0.348 N 
HETATM    7  C   UNL     1     -45.148  58.084 -58.842  1.00  0.00     0.254 C 
HETATM    8  O   UNL     1     -44.162  58.778 -59.061  1.00  0.00    -0.268 OA
HETATM    9  H   UNL     1     -46.221  56.982 -57.468  1.00  0.00     0.163 HD
BRANCH   7  10
HETATM   10  C   UNL     1     -46.219  57.882 -59.854  1.00  0.00     0.065 A 
HETATM   11  C   UNL     1     -46.500  56.606 -60.357  1.00  0.00     0.084 A 
HETATM   12  C   UNL     1     -47.482  56.440 -61.340  1.00  0.00     0.038 A 
HETATM   13  C   UNL     1     -48.211  57.539 -61.794  1.00  0.00     0.003 A 
HETATM   14  C   UNL     1     -47.957  58.808 -61.274  1.00  0.00     0.001 A 
HETATM   15  C   UNL     1     -46.966  58.982 -60.306  1.00  0.00     0.020 A 
BRANCH  11  16
HETATM   16  O   UNL     1     -45.750  55.523 -59.983  1.00  0.00    -0.355 OA
HETATM   17  C   UNL     1     -45.056  54.982 -61.109  1.00  0.00     0.210 C 
ENDBRANCH  11  16
ENDBRANCH   7  10
ENDBRANCH   5   6
ENDBRANCH   1   5
BRANCH   2  18
HETATM   18  N   UNL     1     -42.882  54.722 -55.047  1.00  0.00    -0.166 NA
HETATM   19  C   UNL     1     -42.242  54.683 -53.925  1.00  0.00     0.157 A 
HETATM   20  C   UNL     1     -42.241  55.684 -52.765  1.00  0.00     0.277 A 
HETATM   21  C   UNL     1     -41.354  53.600 -53.517  1.00  0.00     0.028 A 
HETATM   22  O   UNL     1     -42.807  56.753 -52.754  1.00  0.00    -0.266 OA
HETATM   23  N   UNL     1     -41.440  55.118 -51.793  1.00  0.00    -0.321 N 
HETATM   24  C   UNL     1     -40.916  53.906 -52.230  1.00  0.00     0.048 A 
HETATM   25  H   UNL     1     -41.257  55.562 -50.906  1.00  0.00     0.169 HD
HETATM   26  C   UNL     1     -40.067  53.062 -51.544  1.00  0.00     0.032 A 
HETATM   27  C   UNL     1     -39.662  51.889 -52.194  1.00  0.00     0.021 A 
HETATM   28  C   UNL     1     -40.112  51.594 -53.500  1.00  0.00     0.012 A 
HETATM   29 BR   UNL     1     -39.533  49.999 -54.337  1.00  0.00    -0.051 Br
HETATM   30  C   UNL     1     -40.972  52.453 -54.183  1.00  0.00     0.035 A 
ENDBRANCH   2  18
TORSDOF 5
ENDMDL
MODEL 2
REMARK VINA RESULT:      -8.2      2.103      3.154
REMARK  5 active torsions:
REMARK  status: ('A' for Active; 'I' for Inactive)
REMARK    1  A    between atoms: O_2  and  C_3 
REMARK    2  A    between atoms: C_4  and  C_5 
REMARK       I    between atoms: C_5  and  N_6 
REMARK    3  A    between atoms: N_6  and  C_7 
REMARK    4  A    between atoms: C_7  and  C_8 
REMARK       I    between atoms: C_8  and  N_9 
REMARK    5  A    between atoms: N_9  and  N_10 
ROOT
HETATM    1  C   UNL     1     -44.025  57.867 -54.044  1.00  0.00     0.255 C 
HETATM    2  N   UNL     1     -44.415  56.621 -53.581  1.00  0.00    -0.245 N 
HETATM    3  O   UNL     1     -43.062  58.502 -53.608  1.00  0.00    -0.270 OA
HETATM    4  H   UNL     1     -45.128  56.088 -54.091  1.00  0.00     0.192 HD
ENDROOT
BRANCH   1   5
HETATM    5  C   UNL     1     -44.778  58.362 -55.282  1.00  0.00     0.227 C 
BRANCH   5   6
HETATM    6  N   UNL     1     -44.905  57.422 -56.386  1.00  0.00    -0.348 N 
HETATM    7  C   UNL     1     -44.054  57.480 -57.470  1.00  0.00     0.254 C 
HETATM    8  O   UNL     1     -43.023  58.143 -57.453  1.00  0.00    -0.268 OA
HETATM    9  H   UNL     1     -45.803  56.973 -56.503  1.00  0.00     0.163 HD
BRANCH   7  10
HETATM   10  C   UNL     1     -44.462  56.673 -58.650  1.00  0.00     0.065 A 
HETATM   11  C   UNL     1     -45.586  57.024 -59.406  1.00  0.00     0.084 A 
HETATM   12  C   UNL     1     -45.981  56.230 -60.488  1.00  0.00     0.038 A 
HETATM   13  C   UNL     1     -45.232  55.106 -60.841  1.00  0.00     0.003 A 
HETATM   14  C   UNL     1     -44.093  54.769 -60.110  1.00  0.00     0.001 A 
HETATM   15  C   UNL     1     -43.705  55.549 -59.019  1.00  0.00     0.020 A 
BRANCH  11  16
HETATM   16  O   UNL     1     -46.380  58.078 -59.037  1.00  0.00    -0.355 OA
HETATM   17  C   UNL     1     -47.100  58.582 -60.163  1.00  0.00     0.210 C 
ENDBRANCH  11  16
ENDBRANCH   7  10
ENDBRANCH   5   6
ENDBRANCH   1   5
BRANCH   2  18
HETATM   18  N   UNL     1     -43.666  56.010 -52.615  1.00  0.00    -0.166 NA
HETATM   19  C   UNL     1     -42.870  55.060 -52.979  1.00  0.00     0.157 A 
HETATM   20  C   UNL     1     -42.667  54.430 -54.361  1.00  0.00     0.277 A 
HETATM   21  C   UNL     1     -41.941  54.372 -52.088  1.00  0.00     0.028 A 
HETATM   22  O   UNL     1     -43.307  54.686 -55.355  1.00  0.00    -0.266 OA
HETATM   23  N   UNL     1     -41.650  53.510 -54.200  1.00  0.00    -0.321 N 
HETATM   24  C   UNL     1     -41.228  53.468 -52.875  1.00  0.00     0.048 A 
HETATM   25  H   UNL     1     -41.302  52.939 -54.954  1.00  0.00     0.169 HD
HETATM   26  C   UNL     1     -40.247  52.667 -52.331  1.00  0.00     0.032 A 
HETATM   27  C   UNL     1     -39.998  52.796 -50.958  1.00  0.00     0.021 A 
HETATM   28  C   UNL     1     -40.729  53.715 -50.174  1.00  0.00     0.012 A 
HETATM   29 BR   UNL     1     -40.358  53.849 -48.324  1.00  0.00    -0.051 Br
HETATM   30  C   UNL     1     -41.718  54.522 -50.735  1.00  0.00     0.035 A 
ENDBRANCH   2  18
TORSDOF 5
ENDMDL
MODEL 3
REMARK VINA RESULT:      -8.2      3.738      8.763
REMARK  5 active torsions:
REMARK  status: ('A' for Active; 'I' for Inactive)
REMARK    1  A    between atoms: O_2  and  C_3 
REMARK    2  A    between atoms: C_4  and  C_5 
REMARK       I    between atoms: C_5  and  N_6 
REMARK    3  A    between atoms: N_6  and  C_7 
REMARK    4  A    between atoms: C_7  and  C_8 
REMARK       I    between atoms: C_8  and  N_9 
REMARK    5  A    between atoms: N_9  and  N_10 
ROOT
HETATM    1  C   UNL     1     -42.874  57.361 -53.094  1.00  0.00     0.255 C 
HETATM    2  N   UNL     1     -42.167  56.780 -54.134  1.00  0.00    -0.245 N 
HETATM    3  O   UNL     1     -43.397  58.477 -53.145  1.00  0.00    -0.270 OA
HETATM    4  H   UNL     1     -41.892  55.793 -54.075  1.00  0.00     0.192 HD
ENDROOT
BRANCH   1   5
HETATM    5  C   UNL     1     -43.124  56.447 -51.892  1.00  0.00     0.227 C 
BRANCH   5   6
HETATM    6  N   UNL     1     -42.548  55.112 -51.957  1.00  0.00    -0.348 N 
HETATM    7  C   UNL     1     -41.412  54.793 -51.241  1.00  0.00     0.254 C 
HETATM    8  O   UNL     1     -40.981  55.514 -50.349  1.00  0.00    -0.268 OA
HETATM    9  H   UNL     1     -42.778  54.554 -52.768  1.00  0.00     0.163 HD
BRANCH   7  10
HETATM   10  C   UNL     1     -40.759  53.510 -51.612  1.00  0.00     0.065 A 
HETATM   11  C   UNL     1     -40.435  53.228 -52.945  1.00  0.00     0.084 A 
HETATM   12  C   UNL     1     -39.860  51.998 -53.282  1.00  0.00     0.038 A 
HETATM   13  C   UNL     1     -39.572  51.063 -52.286  1.00  0.00     0.003 A 
HETATM   14  C   UNL     1     -39.865  51.351 -50.954  1.00  0.00     0.001 A 
HETATM   15  C   UNL     1     -40.455  52.570 -50.614  1.00  0.00     0.020 A 
BRANCH  11  16
HETATM   16  O   UNL     1     -40.774  54.096 -53.949  1.00  0.00    -0.355 OA
HETATM   17  C   UNL     1     -39.966  53.867 -55.104  1.00  0.00     0.210 C 
ENDBRANCH  11  16
ENDBRANCH   7  10
ENDBRANCH   5   6
ENDBRANCH   1   5
BRANCH   2  18
HETATM   18  N   UNL     1     -42.076  57.445 -55.325  1.00  0.00    -0.166 NA
HETATM   19  C   UNL     1     -42.540  56.861 -56.379  1.00  0.00     0.157 A 
HETATM   20  C   UNL     1     -43.138  55.459 -56.537  1.00  0.00     0.277 A 
HETATM   21  C   UNL     1     -42.600  57.470 -57.704  1.00  0.00     0.028 A 
HETATM   22  O   UNL     1     -43.201  54.615 -55.672  1.00  0.00    -0.266 OA
HETATM   23  N   UNL     1     -43.535  55.375 -57.857  1.00  0.00    -0.321 N 
HETATM   24  C   UNL     1     -43.218  56.543 -58.543  1.00  0.00     0.048 A 
HETATM   25  H   UNL     1     -43.969  54.553 -58.249  1.00  0.00     0.169 HD
HETATM   26  C   UNL     1     -43.446  56.825 -59.873  1.00  0.00     0.032 A 
HETATM   27  C   UNL     1     -43.030  58.076 -60.347  1.00  0.00     0.021 A 
HETATM   28  C   UNL     1     -42.403  59.003 -59.486  1.00  0.00     0.012 A 
HETATM   29 BR   UNL     1     -41.856  60.678 -60.175  1.00  0.00    -0.051 Br
HETATM   30  C   UNL     1     -42.181  58.709 -58.141  1.00  0.00     0.035 A 
ENDBRANCH   2  18
TORSDOF 5
ENDMDL
MODEL 4
REMARK VINA RESULT:      -8.0      3.357      8.919
REMARK  5 active torsions:
REMARK  status: ('A' for Active; 'I' for Inactive)
REMARK    1  A    between atoms: O_2  and  C_3 
REMARK    2  A    between atoms: C_4  and  C_5 
REMARK       I    between atoms: C_5  and  N_6 
REMARK    3  A    between atoms: N_6  and  C_7 
REMARK    4  A    between atoms: C_7  and  C_8 
REMARK       I    between atoms: C_8  and  N_9 
REMARK    5  A    between atoms: N_9  and  N_10 
ROOT
HETATM    1  C   UNL     1     -42.739  57.551 -53.825  1.00  0.00     0.255 C 
HETATM    2  N   UNL     1     -42.125  57.657 -55.062  1.00  0.00    -0.245 N 
HETATM    3  O   UNL     1     -43.919  57.837 -53.607  1.00  0.00    -0.270 OA
HETATM    4  H   UNL     1     -41.190  57.259 -55.203  1.00  0.00     0.192 HD
ENDROOT
BRANCH   1   5
HETATM    5  C   UNL     1     -41.895  56.879 -52.740  1.00  0.00     0.227 C 
BRANCH   5   6
HETATM    6  N   UNL     1     -41.254  55.622 -53.097  1.00  0.00    -0.348 N 
HETATM    7  C   UNL     1     -41.920  54.422 -52.964  1.00  0.00     0.254 C 
HETATM    8  O   UNL     1     -43.130  54.365 -52.778  1.00  0.00    -0.268 OA
HETATM    9  H   UNL     1     -40.243  55.613 -53.112  1.00  0.00     0.163 HD
BRANCH   7  10
HETATM   10  C   UNL     1     -41.075  53.203 -53.078  1.00  0.00     0.065 A 
HETATM   11  C   UNL     1     -40.187  52.847 -52.056  1.00  0.00     0.084 A 
HETATM   12  C   UNL     1     -39.369  51.721 -52.198  1.00  0.00     0.038 A 
HETATM   13  C   UNL     1     -39.463  50.927 -53.342  1.00  0.00     0.003 A 
HETATM   14  C   UNL     1     -40.368  51.260 -54.350  1.00  0.00     0.001 A 
HETATM   15  C   UNL     1     -41.174  52.393 -54.220  1.00  0.00     0.020 A 
BRANCH  11  16
HETATM   16  O   UNL     1     -40.022  53.649 -50.958  1.00  0.00    -0.355 OA
HETATM   17  C   UNL     1     -40.403  52.955 -49.769  1.00  0.00     0.210 C 
ENDBRANCH  11  16
ENDBRANCH   7  10
ENDBRANCH   5   6
ENDBRANCH   1   5
BRANCH   2  18
HETATM   18  N   UNL     1     -42.869  58.052 -56.139  1.00  0.00    -0.166 NA
HETATM   19  C   UNL     1     -43.235  57.146 -56.984  1.00  0.00     0.157 A 
HETATM   20  C   UNL     1     -42.901  55.651 -57.021  1.00  0.00     0.277 A 
HETATM   21  C   UNL     1     -44.103  57.387 -58.131  1.00  0.00     0.028 A 
HETATM   22  O   UNL     1     -42.145  55.077 -56.270  1.00  0.00    -0.266 OA
HETATM   23  N   UNL     1     -43.605  55.143 -58.094  1.00  0.00    -0.321 N 
HETATM   24  C   UNL     1     -44.303  56.154 -58.749  1.00  0.00     0.048 A 
HETATM   25  H   UNL     1     -43.575  54.171 -58.360  1.00  0.00     0.169 HD
HETATM   26  C   UNL     1     -45.103  56.034 -59.865  1.00  0.00     0.032 A 
HETATM   27  C   UNL     1     -45.703  57.202 -60.355  1.00  0.00     0.021 A 
HETATM   28  C   UNL     1     -45.490  58.445 -59.721  1.00  0.00     0.012 A 
HETATM   29 BR   UNL     1     -46.319  59.994 -60.422  1.00  0.00    -0.051 Br
HETATM   30  C   UNL     1     -44.681  58.554 -58.590  1.00  0.00     0.035 A 
ENDBRANCH   2  18
TORSDOF 5
ENDMDL
MODEL 5
REMARK VINA RESULT:      -8.0      4.527      9.197
REMARK  5 active torsions:
REMARK  status: ('A' for Active; 'I' for Inactive)
REMARK    1  A    between atoms: O_2  and  C_3 
REMARK    2  A    between atoms: C_4  and  C_5 
REMARK       I    between atoms: C_5  and  N_6 
REMARK    3  A    between atoms: N_6  and  C_7 
REMARK    4  A    between atoms: C_7  and  C_8 
REMARK       I    between atoms: C_8  and  N_9 
REMARK    5  A    between atoms: N_9  and  N_10 
ROOT
HETATM    1  C   UNL     1     -42.358  56.010 -50.845  1.00  0.00     0.255 C 
HETATM    2  N   UNL     1     -43.654  56.146 -51.316  1.00  0.00    -0.245 N 
HETATM    3  O   UNL     1     -41.486  56.876 -50.948  1.00  0.00    -0.270 OA
HETATM    4  H   UNL     1     -44.364  55.450 -51.062  1.00  0.00     0.192 HD
ENDROOT
BRANCH   1   5
HETATM    5  C   UNL     1     -42.100  54.750 -50.015  1.00  0.00     0.227 C 
BRANCH   5   6
HETATM    6  N   UNL     1     -41.719  53.553 -50.749  1.00  0.00    -0.348 N 
HETATM    7  C   UNL     1     -40.392  53.230 -50.942  1.00  0.00     0.254 C 
HETATM    8  O   UNL     1     -39.491  53.779 -50.318  1.00  0.00    -0.268 OA
HETATM    9  H   UNL     1     -42.405  53.168 -51.384  1.00  0.00     0.163 HD
BRANCH   7  10
HETATM   10  C   UNL     1     -40.130  52.162 -51.943  1.00  0.00     0.065 A 
HETATM   11  C   UNL     1     -40.243  52.419 -53.314  1.00  0.00     0.084 A 
HETATM   12  C   UNL     1     -40.036  51.391 -54.240  1.00  0.00     0.038 A 
HETATM   13  C   UNL     1     -39.676  50.116 -53.802  1.00  0.00     0.003 A 
HETATM   14  C   UNL     1     -39.531  49.862 -52.438  1.00  0.00     0.001 A 
HETATM   15  C   UNL     1     -39.755  50.880 -51.509  1.00  0.00     0.020 A 
BRANCH  11  16
HETATM   16  O   UNL     1     -40.668  53.640 -53.767  1.00  0.00    -0.355 OA
HETATM   17  C   UNL     1     -40.203  53.870 -55.098  1.00  0.00     0.210 C 
ENDBRANCH  11  16
ENDBRANCH   7  10
ENDBRANCH   5   6
ENDBRANCH   1   5
BRANCH   2  18
HETATM   18  N   UNL     1     -44.030  57.329 -51.887  1.00  0.00    -0.166 NA
HETATM   19  C   UNL     1     -44.245  57.344 -53.160  1.00  0.00     0.157 A 
HETATM   20  C   UNL     1     -44.074  56.225 -54.193  1.00  0.00     0.277 A 
HETATM   21  C   UNL     1     -44.736  58.499 -53.904  1.00  0.00     0.028 A 
HETATM   22  O   UNL     1     -43.618  55.125 -53.976  1.00  0.00    -0.266 OA
HETATM   23  N   UNL     1     -44.509  56.760 -55.390  1.00  0.00    -0.321 N 
HETATM   24  C   UNL     1     -44.890  58.088 -55.227  1.00  0.00     0.048 A 
HETATM   25  H   UNL     1     -44.511  56.241 -56.255  1.00  0.00     0.169 HD
HETATM   26  C   UNL     1     -45.363  58.951 -56.193  1.00  0.00     0.032 A 
HETATM   27  C   UNL     1     -45.678  60.255 -55.792  1.00  0.00     0.021 A 
HETATM   28  C   UNL     1     -45.515  60.658 -54.449  1.00  0.00     0.012 A 
HETATM   29 BR   UNL     1     -45.952  62.432 -53.958  1.00  0.00    -0.051 Br
HETATM   30  C   UNL     1     -45.039  59.776 -53.479  1.00  0.00     0.035 A 
ENDBRANCH   2  18
TORSDOF 5
ENDMDL
MODEL 6
REMARK VINA RESULT:      -7.8      4.554      9.527
REMARK  5 active torsions:
REMARK  status: ('A' for Active; 'I' for Inactive)
REMARK    1  A    between atoms: O_2  and  C_3 
REMARK    2  A    between atoms: C_4  and  C_5 
REMARK       I    between atoms: C_5  and  N_6 
REMARK    3  A    between atoms: N_6  and  C_7 
REMARK    4  A    between atoms: C_7  and  C_8 
REMARK       I    between atoms: C_8  and  N_9 
REMARK    5  A    between atoms: N_9  and  N_10 
ROOT
HETATM    1  C   UNL     1     -41.387  58.692 -53.872  1.00  0.00     0.255 C 
HETATM    2  N   UNL     1     -41.992  58.657 -55.118  1.00  0.00    -0.245 N 
HETATM    3  O   UNL     1     -40.609  59.574 -53.500  1.00  0.00    -0.270 OA
HETATM    4  H   UNL     1     -42.741  57.981 -55.302  1.00  0.00     0.192 HD
ENDROOT
BRANCH   1   5
HETATM    5  C   UNL     1     -41.879  57.631 -52.884  1.00  0.00     0.227 C 
BRANCH   5   6
HETATM    6  N   UNL     1     -41.143  56.376 -52.857  1.00  0.00    -0.348 N 
HETATM    7  C   UNL     1     -41.598  55.271 -53.546  1.00  0.00     0.254 C 
HETATM    8  O   UNL     1     -42.483  55.348 -54.390  1.00  0.00    -0.268 OA
HETATM    9  H   UNL     1     -40.512  56.232 -52.080  1.00  0.00     0.163 HD
BRANCH   7  10
HETATM   10  C   UNL     1     -40.932  53.984 -53.207  1.00  0.00     0.065 A 
HETATM   11  C   UNL     1     -40.690  53.630 -51.875  1.00  0.00     0.084 A 
HETATM   12  C   UNL     1     -40.024  52.436 -51.576  1.00  0.00     0.038 A 
HETATM   13  C   UNL     1     -39.634  51.576 -52.604  1.00  0.00     0.003 A 
HETATM   14  C   UNL     1     -39.901  51.910 -53.932  1.00  0.00     0.001 A 
HETATM   15  C   UNL     1     -40.550  53.109 -54.236  1.00  0.00     0.020 A 
BRANCH  11  16
HETATM   16  O   UNL     1     -40.994  54.490 -50.853  1.00  0.00    -0.355 OA
HETATM   17  C   UNL     1     -40.024  54.391 -49.809  1.00  0.00     0.210 C 
ENDBRANCH  11  16
ENDBRANCH   7  10
ENDBRANCH   5   6
ENDBRANCH   1   5
BRANCH   2  18
HETATM   18  N   UNL     1     -41.771  59.686 -55.990  1.00  0.00    -0.166 NA
HETATM   19  C   UNL     1     -41.915  59.449 -57.252  1.00  0.00     0.157 A 
HETATM   20  C   UNL     1     -42.238  58.134 -57.969  1.00  0.00     0.277 A 
HETATM   21  C   UNL     1     -41.803  60.457 -58.301  1.00  0.00     0.028 A 
HETATM   22  O   UNL     1     -42.339  57.048 -57.444  1.00  0.00    -0.266 OA
HETATM   23  N   UNL     1     -42.344  58.461 -59.306  1.00  0.00    -0.321 N 
HETATM   24  C   UNL     1     -42.085  59.813 -59.505  1.00  0.00     0.048 A 
HETATM   25  H   UNL     1     -42.554  57.783 -60.022  1.00  0.00     0.169 HD
HETATM   26  C   UNL     1     -42.082  60.501 -60.700  1.00  0.00     0.032 A 
HETATM   27  C   UNL     1     -41.783  61.869 -60.655  1.00  0.00     0.021 A 
HETATM   28  C   UNL     1     -41.498  62.507 -59.428  1.00  0.00     0.012 A 
HETATM   29 BR   UNL     1     -41.096  64.355 -59.420  1.00  0.00    -0.051 Br
HETATM   30  C   UNL     1     -41.506  61.802 -58.225  1.00  0.00     0.035 A 
ENDBRANCH   2  18
TORSDOF 5
ENDMDL
MODEL 7
REMARK VINA RESULT:      -7.8      5.311      8.955
REMARK  5 active torsions:
REMARK  status: ('A' for Active; 'I' for Inactive)
REMARK    1  A    between atoms: O_2  and  C_3 
REMARK    2  A    between atoms: C_4  and  C_5 
REMARK       I    between atoms: C_5  and  N_6 
REMARK    3  A    between atoms: N_6  and  C_7 
REMARK    4  A    between atoms: C_7  and  C_8 
REMARK       I    between atoms: C_8  and  N_9 
REMARK    5  A    between atoms: N_9  and  N_10 
ROOT
HETATM    1  C   UNL     1     -44.329  56.499 -54.050  1.00  0.00     0.255 C 
HETATM    2  N   UNL     1     -44.123  56.585 -52.682  1.00  0.00    -0.245 N 
HETATM    3  O   UNL     1     -44.905  57.358 -54.723  1.00  0.00    -0.270 OA
HETATM    4  H   UNL     1     -43.506  55.911 -52.216  1.00  0.00     0.192 HD
ENDROOT
BRANCH   1   5
HETATM    5  C   UNL     1     -43.635  55.320 -54.735  1.00  0.00     0.227 C 
BRANCH   5   6
HETATM    6  N   UNL     1     -42.772  54.497 -53.901  1.00  0.00    -0.348 N 
HETATM    7  C   UNL     1     -41.417  54.415 -54.144  1.00  0.00     0.254 C 
HETATM    8  O   UNL     1     -40.842  55.194 -54.895  1.00  0.00    -0.268 OA
HETATM    9  H   UNL     1     -43.215  53.749 -53.384  1.00  0.00     0.163 HD
BRANCH   7  10
HETATM   10  C   UNL     1     -40.700  53.330 -53.423  1.00  0.00     0.065 A 
HETATM   11  C   UNL     1     -40.521  53.386 -52.036  1.00  0.00     0.084 A 
HETATM   12  C   UNL     1     -39.807  52.378 -51.379  1.00  0.00     0.038 A 
HETATM   13  C   UNL     1     -39.304  51.294 -52.098  1.00  0.00     0.003 A 
HETATM   14  C   UNL     1     -39.506  51.217 -53.476  1.00  0.00     0.001 A 
HETATM   15  C   UNL     1     -40.203  52.229 -54.139  1.00  0.00     0.020 A 
BRANCH  11  16
HETATM   16  O   UNL     1     -40.939  54.475 -51.317  1.00  0.00    -0.355 OA
HETATM   17  C   UNL     1     -40.325  54.490 -50.027  1.00  0.00     0.210 C 
ENDBRANCH  11  16
ENDBRANCH   7  10
ENDBRANCH   5   6
ENDBRANCH   1   5
BRANCH   2  18
HETATM   18  N   UNL     1     -44.528  57.711 -52.022  1.00  0.00    -0.166 NA
HETATM   19  C   UNL     1     -43.624  58.570 -51.683  1.00  0.00     0.157 A 
HETATM   20  C   UNL     1     -42.102  58.502 -51.842  1.00  0.00     0.277 A 
HETATM   21  C   UNL     1     -43.900  59.859 -51.057  1.00  0.00     0.028 A 
HETATM   22  O   UNL     1     -41.477  57.554 -52.262  1.00  0.00    -0.266 OA
HETATM   23  N   UNL     1     -41.629  59.712 -51.376  1.00  0.00    -0.321 N 
HETATM   24  C   UNL     1     -42.674  60.504 -50.911  1.00  0.00     0.048 A 
HETATM   25  H   UNL     1     -40.648  59.949 -51.361  1.00  0.00     0.169 HD
HETATM   26  C   UNL     1     -42.591  61.766 -50.361  1.00  0.00     0.032 A 
HETATM   27  C   UNL     1     -43.787  62.370 -49.954  1.00  0.00     0.021 A 
HETATM   28  C   UNL     1     -45.022  61.704 -50.106  1.00  0.00     0.012 A 
HETATM   29 BR   UNL     1     -46.610  62.561 -49.537  1.00  0.00    -0.051 Br
HETATM   30  C   UNL     1     -45.095  60.429 -50.666  1.00  0.00     0.035 A 
ENDBRANCH   2  18
TORSDOF 5
ENDMDL
MODEL 8
REMARK VINA RESULT:      -7.7      6.455      9.534
REMARK  5 active torsions:
REMARK  status: ('A' for Active; 'I' for Inactive)
REMARK    1  A    between atoms: O_2  and  C_3 
REMARK    2  A    between atoms: C_4  and  C_5 
REMARK       I    between atoms: C_5  and  N_6 
REMARK    3  A    between atoms: N_6  and  C_7 
REMARK    4  A    between atoms: C_7  and  C_8 
REMARK       I    between atoms: C_8  and  N_9 
REMARK    5  A    between atoms: N_9  and  N_10 
ROOT
HETATM    1  C   UNL     1     -41.957  56.400 -51.301  1.00  0.00     0.255 C 
HETATM    2  N   UNL     1     -42.515  57.463 -50.610  1.00  0.00    -0.245 N 
HETATM    3  O   UNL     1     -41.626  56.437 -52.489  1.00  0.00    -0.270 OA
HETATM    4  H   UNL     1     -42.622  57.410 -49.592  1.00  0.00     0.192 HD
ENDROOT
BRANCH   1   5
HETATM    5  C   UNL     1     -41.604  55.184 -50.440  1.00  0.00     0.227 C 
BRANCH   5   6
HETATM    6  N   UNL     1     -41.422  53.921 -51.140  1.00  0.00    -0.348 N 
HETATM    7  C   UNL     1     -40.187  53.310 -51.193  1.00  0.00     0.254 C 
HETATM    8  O   UNL     1     -39.258  53.655 -50.471  1.00  0.00    -0.268 OA
HETATM    9  H   UNL     1     -42.105  53.689 -51.849  1.00  0.00     0.163 HD
BRANCH   7  10
HETATM   10  C   UNL     1     -40.063  52.195 -52.169  1.00  0.00     0.065 A 
HETATM   11  C   UNL     1     -40.378  52.386 -53.520  1.00  0.00     0.084 A 
HETATM   12  C   UNL     1     -40.297  51.315 -54.417  1.00  0.00     0.038 A 
HETATM   13  C   UNL     1     -39.865  50.064 -53.977  1.00  0.00     0.003 A 
HETATM   14  C   UNL     1     -39.521  49.876 -52.639  1.00  0.00     0.001 A 
HETATM   15  C   UNL     1     -39.617  50.937 -51.735  1.00  0.00     0.020 A 
BRANCH  11  16
HETATM   16  O   UNL     1     -40.875  53.583 -53.963  1.00  0.00    -0.355 OA
HETATM   17  C   UNL     1     -40.142  54.040 -55.101  1.00  0.00     0.210 C 
ENDBRANCH  11  16
ENDBRANCH   7  10
ENDBRANCH   5   6
ENDBRANCH   1   5
BRANCH   2  18
HETATM   18  N   UNL     1     -42.670  58.660 -51.252  1.00  0.00    -0.166 NA
HETATM   19  C   UNL     1     -43.871  59.109 -51.410  1.00  0.00     0.157 A 
HETATM   20  C   UNL     1     -45.212  58.464 -51.043  1.00  0.00     0.277 A 
HETATM   21  C   UNL     1     -44.200  60.406 -51.991  1.00  0.00     0.028 A 
HETATM   22  O   UNL     1     -45.362  57.348 -50.598  1.00  0.00    -0.266 OA
HETATM   23  N   UNL     1     -46.172  59.402 -51.366  1.00  0.00    -0.321 N 
HETATM   24  C   UNL     1     -45.587  60.534 -51.925  1.00  0.00     0.048 A 
HETATM   25  H   UNL     1     -47.159  59.247 -51.230  1.00  0.00     0.169 HD
HETATM   26  C   UNL     1     -46.222  61.670 -52.381  1.00  0.00     0.032 A 
HETATM   27  C   UNL     1     -45.419  62.686 -52.914  1.00  0.00     0.021 A 
HETATM   28  C   UNL     1     -44.016  62.542 -52.977  1.00  0.00     0.012 A 
HETATM   29 BR   UNL     1     -42.975  63.941 -53.710  1.00  0.00    -0.051 Br
HETATM   30  C   UNL     1     -43.384  61.390 -52.510  1.00  0.00     0.035 A 
ENDBRANCH   2  18
TORSDOF 5
ENDMDL
MODEL 9
REMARK VINA RESULT:      -7.7      5.480      8.787
REMARK  5 active torsions:
REMARK  status: ('A' for Active; 'I' for Inactive)
REMARK    1  A    between atoms: O_2  and  C_3 
REMARK    2  A    between atoms: C_4  and  C_5 
REMARK       I    between atoms: C_5  and  N_6 
REMARK    3  A    between atoms: N_6  and  C_7 
REMARK    4  A    between atoms: C_7  and  C_8 
REMARK       I    between atoms: C_8  and  N_9 
REMARK    5  A    between atoms: N_9  and  N_10 
ROOT
HETATM    1  C   UNL     1     -43.462  58.238 -51.662  1.00  0.00     0.255 C 
HETATM    2  N   UNL     1     -42.136  57.923 -51.908  1.00  0.00    -0.245 N 
HETATM    3  O   UNL     1     -44.345  57.407 -51.435  1.00  0.00    -0.270 OA
HETATM    4  H   UNL     1     -41.432  58.669 -51.937  1.00  0.00     0.192 HD
ENDROOT
BRANCH   1   5
HETATM    5  C   UNL     1     -43.756  59.733 -51.516  1.00  0.00     0.227 C 
BRANCH   5   6
HETATM    6  N   UNL     1     -43.939  60.232 -50.162  1.00  0.00    -0.348 N 
HETATM    7  C   UNL     1     -45.200  60.483 -49.661  1.00  0.00     0.254 C 
HETATM    8  O   UNL     1     -46.214  60.080 -50.220  1.00  0.00    -0.268 OA
HETATM    9  H   UNL     1     -43.151  60.702 -49.737  1.00  0.00     0.163 HD
BRANCH   7  10
HETATM   10  C   UNL     1     -45.245  61.257 -48.393  1.00  0.00     0.065 A 
HETATM   11  C   UNL     1     -44.957  62.627 -48.377  1.00  0.00     0.084 A 
HETATM   12  C   UNL     1     -44.962  63.332 -47.168  1.00  0.00     0.038 A 
HETATM   13  C   UNL     1     -45.291  62.680 -45.980  1.00  0.00     0.003 A 
HETATM   14  C   UNL     1     -45.609  61.322 -45.993  1.00  0.00     0.001 A 
HETATM   15  C   UNL     1     -45.588  60.610 -47.195  1.00  0.00     0.020 A 
BRANCH  11  16
HETATM   16  O   UNL     1     -44.558  63.274 -49.517  1.00  0.00    -0.355 OA
HETATM   17  C   UNL     1     -45.625  64.064 -50.044  1.00  0.00     0.210 C 
ENDBRANCH  11  16
ENDBRANCH   7  10
ENDBRANCH   5   6
ENDBRANCH   1   5
BRANCH   2  18
HETATM   18  N   UNL     1     -41.744  56.616 -51.848  1.00  0.00    -0.166 NA
HETATM   19  C   UNL     1     -41.452  56.021 -52.957  1.00  0.00     0.157 A 
HETATM   20  C   UNL     1     -41.542  56.538 -54.397  1.00  0.00     0.277 A 
HETATM   21  C   UNL     1     -40.933  54.661 -53.055  1.00  0.00     0.028 A 
HETATM   22  O   UNL     1     -41.994  57.608 -54.736  1.00  0.00    -0.266 OA
HETATM   23  N   UNL     1     -41.043  55.520 -55.185  1.00  0.00    -0.321 N 
HETATM   24  C   UNL     1     -40.693  54.421 -54.407  1.00  0.00     0.048 A 
HETATM   25  H   UNL     1     -40.980  55.584 -56.189  1.00  0.00     0.169 HD
HETATM   26  C   UNL     1     -40.175  53.218 -54.839  1.00  0.00     0.032 A 
HETATM   27  C   UNL     1     -39.904  52.248 -53.865  1.00  0.00     0.021 A 
HETATM   28  C   UNL     1     -40.155  52.504 -52.499  1.00  0.00     0.012 A 
HETATM   29 BR   UNL     1     -39.776  51.160 -51.223  1.00  0.00    -0.051 Br
HETATM   30  C   UNL     1     -40.676  53.726 -52.074  1.00  0.00     0.035 A 
ENDBRANCH   2  18
TORSDOF 5
ENDMDL
MODEL 10
REMARK VINA RESULT:      -7.7      4.992      8.836
REMARK  5 active torsions:
REMARK  status: ('A' for Active; 'I' for Inactive)
REMARK    1  A    between atoms: O_2  and  C_3 
REMARK    2  A    between atoms: C_4  and  C_5 
REMARK       I    between atoms: C_5  and  N_6 
REMARK    3  A    between atoms: N_6  and  C_7 
REMARK    4  A    between atoms: C_7  and  C_8 
REMARK       I    between atoms: C_8  and  N_9 
REMARK    5  A    between atoms: N_9  and  N_10 
ROOT
HETATM    1  C   UNL     1     -43.620  56.044 -55.069  1.00  0.00     0.255 C 
HETATM    2  N   UNL     1     -44.183  56.118 -53.806  1.00  0.00    -0.245 N 
HETATM    3  O   UNL     1     -43.653  56.955 -55.901  1.00  0.00    -0.270 OA
HETATM    4  H   UNL     1     -43.986  55.384 -53.116  1.00  0.00     0.192 HD
ENDROOT
BRANCH   1   5
HETATM    5  C   UNL     1     -42.780  54.792 -55.332  1.00  0.00     0.227 C 
BRANCH   5   6
HETATM    6  N   UNL     1     -42.253  54.104 -54.162  1.00  0.00    -0.348 N 
HETATM    7  C   UNL     1     -40.894  53.952 -53.981  1.00  0.00     0.254 C 
HETATM    8  O   UNL     1     -40.075  54.579 -54.641  1.00  0.00    -0.268 OA
HETATM    9  H   UNL     1     -42.877  53.464 -53.688  1.00  0.00     0.163 HD
BRANCH   7  10
HETATM   10  C   UNL     1     -40.492  52.990 -52.920  1.00  0.00     0.065 A 
HETATM   11  C   UNL     1     -39.987  51.727 -53.249  1.00  0.00     0.084 A 
HETATM   12  C   UNL     1     -39.654  50.819 -52.238  1.00  0.00     0.038 A 
HETATM   13  C   UNL     1     -39.788  51.184 -50.898  1.00  0.00     0.003 A 
HETATM   14  C   UNL     1     -40.262  52.452 -50.564  1.00  0.00     0.001 A 
HETATM   15  C   UNL     1     -40.612  53.356 -51.569  1.00  0.00     0.020 A 
BRANCH  11  16
HETATM   16  O   UNL     1     -39.916  51.318 -54.554  1.00  0.00    -0.355 OA
HETATM   17  C   UNL     1     -39.758  49.900 -54.627  1.00  0.00     0.210 C 
ENDBRANCH  11  16
ENDBRANCH   7  10
ENDBRANCH   5   6
ENDBRANCH   1   5
BRANCH   2  18
HETATM   18  N   UNL     1     -44.773  57.286 -53.411  1.00  0.00    -0.166 NA
HETATM   19  C   UNL     1     -44.196  57.967 -52.478  1.00  0.00     0.157 A 
HETATM   20  C   UNL     1     -42.946  57.637 -51.656  1.00  0.00     0.277 A 
HETATM   21  C   UNL     1     -44.647  59.274 -52.008  1.00  0.00     0.028 A 
HETATM   22  O   UNL     1     -42.321  56.602 -51.705  1.00  0.00    -0.266 OA
HETATM   23  N   UNL     1     -42.734  58.738 -50.850  1.00  0.00    -0.321 N 
HETATM   24  C   UNL     1     -43.728  59.692 -51.048  1.00  0.00     0.048 A 
HETATM   25  H   UNL     1     -41.970  58.801 -50.195  1.00  0.00     0.169 HD
HETATM   26  C   UNL     1     -43.859  60.911 -50.416  1.00  0.00     0.032 A 
HETATM   27  C   UNL     1     -44.953  61.708 -50.777  1.00  0.00     0.021 A 
HETATM   28  C   UNL     1     -45.878  61.270 -51.750  1.00  0.00     0.012 A 
HETATM   29 BR   UNL     1     -47.341  62.381 -52.200  1.00  0.00    -0.051 Br
HETATM   30  C   UNL     1     -45.733  60.036 -52.385  1.00  0.00     0.035 A 
ENDBRANCH   2  18
TORSDOF 5
ENDMDL
