MODEL 1
REMARK VINA RESULT:      -9.3      0.000      0.000
REMARK  10 active torsions:
REMARK  status: ('A' for Active; 'I' for Inactive)
REMARK    1  A    between atoms: C_6  and  C_7 
REMARK    2  A    between atoms: C_7  and  O_8 
REMARK    3  A    between atoms: O_8  and  C_9 
REMARK    4  A    between atoms: C_12  and  C_13 
REMARK    5  A    between atoms: N_14  and  N_15 
REMARK       I    between atoms: N_15  and  C_16 
REMARK    6  A    between atoms: C_16  and  C_17 
REMARK    7  A    between atoms: N_20  and  C_21 
REMARK    8  A    between atoms: C_25  and  N_26 
REMARK    9  A    between atoms: C_27  and  C_28 
REMARK   10  A    between atoms: C_28  and  N_29 
ROOT
HETATM    1  C   UNL     1     -42.176  57.781 -55.352  1.00  0.00     0.170 C 
HETATM    2  N   UNL     1     -41.826  56.469 -55.461  1.00  0.00    -0.152 NA
HETATM    3  N   UNL     1     -42.192  56.046 -56.659  1.00  0.00     0.012 NA
HETATM    4  N   UNL     1     -42.795  57.062 -57.330  1.00  0.00    -0.215 N 
HETATM    5  C   UNL     1     -42.678  58.224 -56.570  1.00  0.00     0.096 C 
ENDROOT
BRANCH   1   6
HETATM    6  C   UNL     1     -41.899  58.587 -54.171  1.00  0.00     0.293 C 
HETATM    7  N   UNL     1     -42.983  58.934 -53.383  1.00  0.00    -0.242 N 
HETATM    8  H   UNL     1     -42.782  59.529 -52.587  1.00  0.00     0.192 HD
HETATM    9  O   UNL     1     -40.787  59.063 -53.957  1.00  0.00    -0.264 OA
BRANCH   7  10
HETATM   10  N   UNL     1     -44.209  58.365 -53.543  1.00  0.00    -0.184 NA
HETATM   11  C   UNL     1     -44.447  57.181 -53.057  1.00  0.00     0.150 C 
BRANCH  11  12
HETATM   12  C   UNL     1     -43.578  56.301 -52.259  1.00  0.00    -0.017 A 
HETATM   13  C   UNL     1     -43.282  55.049 -52.803  1.00  0.00     0.016 A 
HETATM   14  C   UNL     1     -42.446  54.178 -52.108  1.00  0.00     0.037 A 
HETATM   15  C   UNL     1     -41.883  54.557 -50.888  1.00  0.00     0.069 A 
HETATM   16  C   UNL     1     -42.181  55.810 -50.348  1.00  0.00     0.037 A 
HETATM   17  C   UNL     1     -43.019  56.693 -51.041  1.00  0.00     0.016 A 
BRANCH  15  18
HETATM   18  O   UNL     1     -41.075  53.617 -50.319  1.00  0.00    -0.347 OA
BRANCH  18  19
HETATM   19  C   UNL     1     -39.821  53.367 -50.955  1.00  0.00     0.214 C 
BRANCH  19  20
HETATM   20  C   UNL     1     -39.799  51.923 -51.391  1.00  0.00    -0.033 A 
HETATM   21  C   UNL     1     -39.705  51.608 -52.757  1.00  0.00     0.033 A 
HETATM   22  C   UNL     1     -39.663  50.278 -53.173  1.00  0.00     0.034 A 
HETATM   23  C   UNL     1     -39.710  49.246 -52.241  1.00  0.00     0.024 A 
HETATM   24 CL   UNL     1     -39.547  49.914 -54.851  1.00  0.00    -0.084 Cl
HETATM   25  C   UNL     1     -39.803  49.548 -50.881  1.00  0.00     0.002 A 
HETATM   26  C   UNL     1     -39.848  50.879 -50.457  1.00  0.00     0.009 A 
ENDBRANCH  19  20
ENDBRANCH  18  19
ENDBRANCH  15  18
ENDBRANCH  11  12
ENDBRANCH   7  10
ENDBRANCH   1   6
BRANCH   5  27
HETATM   27  C   UNL     1     -43.038  59.597 -56.978  1.00  0.00     0.296 C 
BRANCH  27  28
HETATM   28  N   UNL     1     -42.150  60.221 -58.050  1.00  0.00    -0.066 N 
HETATM   29  H   UNL     1     -41.359  59.569 -58.128  1.00  0.00     0.280 HD
HETATM   30  C   UNL     1     -42.779  60.274 -59.428  1.00  0.00     0.235 C 
HETATM   31  C   UNL     1     -41.736  60.697 -60.452  1.00  0.00     0.028 C 
HETATM   32  C   UNL     1     -41.080  62.019 -60.074  1.00  0.00     0.003 C 
HETATM   33  C   UNL     1     -40.497  61.957 -58.668  1.00  0.00     0.028 C 
HETATM   34  C   UNL     1     -41.542  61.541 -57.642  1.00  0.00     0.235 C 
ENDBRANCH  27  28
ENDBRANCH   5  27
BRANCH   4  35
HETATM   35  C   UNL     1     -43.374  56.874 -58.608  1.00  0.00     0.225 A 
HETATM   36  N   UNL     1     -44.696  56.951 -58.770  1.00  0.00    -0.081 NA
HETATM   37  O   UNL     1     -44.885  56.698 -60.130  1.00  0.00    -0.103 OA
HETATM   38  N   UNL     1     -43.671  56.515 -60.776  1.00  0.00    -0.083 NA
HETATM   39  C   UNL     1     -42.736  56.614 -59.833  1.00  0.00     0.201 A 
BRANCH  39  40
HETATM   40  N   UNL     1     -41.416  56.515 -60.060  1.00  0.00    -0.379 N 
HETATM   41  H   UNL     1     -40.834  57.349 -60.031  1.00  0.00     0.158 HD
HETATM   42  H   UNL     1     -41.001  55.736 -60.570  1.00  0.00     0.158 HD
ENDBRANCH  39  40
ENDBRANCH   4  35
TORSDOF 10
ENDMDL
MODEL 2
REMARK VINA RESULT:      -9.2      3.479      6.801
REMARK  10 active torsions:
REMARK  status: ('A' for Active; 'I' for Inactive)
REMARK    1  A    between atoms: C_6  and  C_7 
REMARK    2  A    between atoms: C_7  and  O_8 
REMARK    3  A    between atoms: O_8  and  C_9 
REMARK    4  A    between atoms: C_12  and  C_13 
REMARK    5  A    between atoms: N_14  and  N_15 
REMARK       I    between atoms: N_15  and  C_16 
REMARK    6  A    between atoms: C_16  and  C_17 
REMARK    7  A    between atoms: N_20  and  C_21 
REMARK    8  A    between atoms: C_25  and  N_26 
REMARK    9  A    between atoms: C_27  and  C_28 
REMARK   10  A    between atoms: C_28  and  N_29 
ROOT
HETATM    1  C   UNL     1     -43.522  60.128 -53.254  1.00  0.00     0.170 C 
HETATM    2  N   UNL     1     -44.661  60.828 -53.514  1.00  0.00    -0.152 NA
HETATM    3  N   UNL     1     -45.342  60.938 -52.386  1.00  0.00     0.012 NA
HETATM    4  N   UNL     1     -44.669  60.302 -51.391  1.00  0.00    -0.215 N 
HETATM    5  C   UNL     1     -43.434  59.889 -51.887  1.00  0.00     0.096 C 
ENDROOT
BRANCH   1   6
HETATM    6  C   UNL     1     -42.512  59.841 -54.263  1.00  0.00     0.293 C 
HETATM    7  N   UNL     1     -42.765  58.779 -55.115  1.00  0.00    -0.242 N 
HETATM    8  H   UNL     1     -42.036  58.563 -55.786  1.00  0.00     0.192 HD
HETATM    9  O   UNL     1     -41.423  60.409 -54.271  1.00  0.00    -0.264 OA
BRANCH   7  10
HETATM   10  N   UNL     1     -43.985  58.179 -55.187  1.00  0.00    -0.184 NA
HETATM   11  C   UNL     1     -44.076  56.881 -55.160  1.00  0.00     0.150 C 
BRANCH  11  12
HETATM   12  C   UNL     1     -43.020  55.868 -54.998  1.00  0.00    -0.017 A 
HETATM   13  C   UNL     1     -41.723  56.341 -54.787  1.00  0.00     0.016 A 
HETATM   14  C   UNL     1     -40.682  55.433 -54.603  1.00  0.00     0.037 A 
HETATM   15  C   UNL     1     -40.931  54.059 -54.602  1.00  0.00     0.069 A 
HETATM   16  C   UNL     1     -42.229  53.591 -54.814  1.00  0.00     0.037 A 
HETATM   17  C   UNL     1     -43.281  54.496 -54.997  1.00  0.00     0.016 A 
BRANCH  15  18
HETATM   18  O   UNL     1     -39.827  53.283 -54.400  1.00  0.00    -0.347 OA
BRANCH  18  19
HETATM   19  C   UNL     1     -39.997  51.870 -54.522  1.00  0.00     0.214 C 
BRANCH  19  20
HETATM   20  C   UNL     1     -39.928  51.272 -53.139  1.00  0.00    -0.033 A 
HETATM   21  C   UNL     1     -40.131  52.090 -52.015  1.00  0.00     0.033 A 
HETATM   22  C   UNL     1     -40.091  51.547 -50.731  1.00  0.00     0.034 A 
HETATM   23  C   UNL     1     -39.854  50.188 -50.547  1.00  0.00     0.024 A 
HETATM   24 CL   UNL     1     -40.342  52.566 -49.367  1.00  0.00    -0.084 Cl
HETATM   25  C   UNL     1     -39.651  49.366 -51.657  1.00  0.00     0.002 A 
HETATM   26  C   UNL     1     -39.688  49.904 -52.947  1.00  0.00     0.009 A 
ENDBRANCH  19  20
ENDBRANCH  18  19
ENDBRANCH  15  18
ENDBRANCH  11  12
ENDBRANCH   7  10
ENDBRANCH   1   6
BRANCH   5  27
HETATM   27  C   UNL     1     -42.312  59.310 -51.120  1.00  0.00     0.296 C 
BRANCH  27  28
HETATM   28  N   UNL     1     -42.388  57.806 -50.877  1.00  0.00    -0.066 N 
HETATM   29  H   UNL     1     -42.562  57.725 -49.866  1.00  0.00     0.280 HD
HETATM   30  C   UNL     1     -43.560  57.123 -51.554  1.00  0.00     0.235 C 
HETATM   31  C   UNL     1     -43.668  55.686 -51.064  1.00  0.00     0.028 C 
HETATM   32  C   UNL     1     -42.366  54.921 -51.270  1.00  0.00     0.003 C 
HETATM   33  C   UNL     1     -41.196  55.651 -50.622  1.00  0.00     0.028 C 
HETATM   34  C   UNL     1     -41.083  57.086 -51.117  1.00  0.00     0.235 C 
ENDBRANCH  27  28
ENDBRANCH   5  27
BRANCH   4  35
HETATM   35  C   UNL     1     -45.207  60.175 -50.088  1.00  0.00     0.225 A 
HETATM   36  N   UNL     1     -45.881  59.079 -49.737  1.00  0.00    -0.081 NA
HETATM   37  O   UNL     1     -46.259  59.323 -48.416  1.00  0.00    -0.103 OA
HETATM   38  N   UNL     1     -45.771  60.545 -47.975  1.00  0.00    -0.083 NA
HETATM   39  C   UNL     1     -45.127  61.077 -49.013  1.00  0.00     0.201 A 
BRANCH  39  40
HETATM   40  N   UNL     1     -44.491  62.259 -48.985  1.00  0.00    -0.379 N 
HETATM   41  H   UNL     1     -43.528  62.322 -49.306  1.00  0.00     0.158 HD
HETATM   42  H   UNL     1     -44.778  63.026 -48.379  1.00  0.00     0.158 HD
ENDBRANCH  39  40
ENDBRANCH   4  35
TORSDOF 10
ENDMDL
MODEL 3
REMARK VINA RESULT:      -9.1      2.197      3.951
REMARK  10 active torsions:
REMARK  status: ('A' for Active; 'I' for Inactive)
REMARK    1  A    between atoms: C_6  and  C_7 
REMARK    2  A    between atoms: C_7  and  O_8 
REMARK    3  A    between atoms: O_8  and  C_9 
REMARK    4  A    between atoms: C_12  and  C_13 
REMARK    5  A    between atoms: N_14  and  N_15 
REMARK       I    between atoms: N_15  and  C_16 
REMARK    6  A    between atoms: C_16  and  C_17 
REMARK    7  A    between atoms: N_20  and  C_21 
REMARK    8  A    between atoms: C_25  and  N_26 
REMARK    9  A    between atoms: C_27  and  C_28 
REMARK   10  A    between atoms: C_28  and  N_29 
ROOT
HETATM    1  C   UNL     1     -43.145  59.086 -56.914  1.00  0.00     0.170 C 
HETATM    2  N   UNL     1     -41.923  59.517 -56.496  1.00  0.00    -0.152 NA
HETATM    3  N   UNL     1     -41.356  60.174 -57.494  1.00  0.00     0.012 NA
HETATM    4  N   UNL     1     -42.187  60.163 -58.569  1.00  0.00    -0.215 N 
HETATM    5  C   UNL     1     -43.399  59.590 -58.185  1.00  0.00     0.096 C 
ENDROOT
BRANCH   1   6
HETATM    6  C   UNL     1     -44.068  58.349 -56.062  1.00  0.00     0.293 C 
HETATM    7  N   UNL     1     -44.206  56.995 -56.316  1.00  0.00    -0.242 N 
HETATM    8  H   UNL     1     -44.881  56.502 -55.742  1.00  0.00     0.192 HD
HETATM    9  O   UNL     1     -44.799  58.916 -55.254  1.00  0.00    -0.264 OA
BRANCH   7  10
HETATM   10  N   UNL     1     -43.362  56.321 -57.144  1.00  0.00    -0.184 NA
HETATM   11  C   UNL     1     -42.411  55.584 -56.646  1.00  0.00     0.150 C 
BRANCH  11  12
HETATM   12  C   UNL     1     -42.093  55.283 -55.240  1.00  0.00    -0.017 A 
HETATM   13  C   UNL     1     -42.496  54.036 -54.759  1.00  0.00     0.016 A 
HETATM   14  C   UNL     1     -42.204  53.680 -53.443  1.00  0.00     0.037 A 
HETATM   15  C   UNL     1     -41.490  54.548 -52.615  1.00  0.00     0.069 A 
HETATM   16  C   UNL     1     -41.089  55.794 -53.101  1.00  0.00     0.037 A 
HETATM   17  C   UNL     1     -41.376  56.159 -54.422  1.00  0.00     0.016 A 
BRANCH  15  18
HETATM   18  O   UNL     1     -41.263  54.074 -51.356  1.00  0.00    -0.347 OA
BRANCH  18  19
HETATM   19  C   UNL     1     -39.944  53.608 -51.067  1.00  0.00     0.214 C 
BRANCH  19  20
HETATM   20  C   UNL     1     -39.892  52.133 -51.382  1.00  0.00    -0.033 A 
HETATM   21  C   UNL     1     -39.638  51.709 -52.697  1.00  0.00     0.033 A 
HETATM   22  C   UNL     1     -39.566  50.349 -52.998  1.00  0.00     0.034 A 
HETATM   23  C   UNL     1     -39.741  49.396 -51.999  1.00  0.00     0.024 A 
HETATM   24 CL   UNL     1     -39.254  49.851 -54.615  1.00  0.00    -0.084 Cl
HETATM   25  C   UNL     1     -39.994  49.807 -50.689  1.00  0.00     0.002 A 
HETATM   26  C   UNL     1     -40.069  51.168 -50.381  1.00  0.00     0.009 A 
ENDBRANCH  19  20
ENDBRANCH  18  19
ENDBRANCH  15  18
ENDBRANCH  11  12
ENDBRANCH   7  10
ENDBRANCH   1   6
BRANCH   5  27
HETATM   27  C   UNL     1     -44.645  59.523 -58.975  1.00  0.00     0.296 C 
BRANCH  27  28
HETATM   28  N   UNL     1     -45.092  58.123 -59.382  1.00  0.00    -0.066 N 
HETATM   29  H   UNL     1     -45.035  57.580 -58.511  1.00  0.00     0.280 HD
HETATM   30  C   UNL     1     -46.538  58.036 -59.830  1.00  0.00     0.235 C 
HETATM   31  C   UNL     1     -46.937  56.577 -59.992  1.00  0.00     0.028 C 
HETATM   32  C   UNL     1     -46.001  55.838 -60.941  1.00  0.00     0.003 C 
HETATM   33  C   UNL     1     -44.551  55.979 -60.497  1.00  0.00     0.028 C 
HETATM   34  C   UNL     1     -44.149  57.439 -60.342  1.00  0.00     0.235 C 
ENDBRANCH  27  28
ENDBRANCH   5  27
BRANCH   4  35
HETATM   35  C   UNL     1     -41.804  60.711 -59.817  1.00  0.00     0.225 A 
HETATM   36  N   UNL     1     -42.048  60.051 -60.950  1.00  0.00    -0.081 NA
HETATM   37  O   UNL     1     -41.523  60.880 -61.942  1.00  0.00    -0.103 OA
HETATM   38  N   UNL     1     -41.009  62.047 -61.397  1.00  0.00    -0.083 NA
HETATM   39  C   UNL     1     -41.174  61.939 -60.080  1.00  0.00     0.201 A 
BRANCH  39  40
HETATM   40  N   UNL     1     -40.820  62.882 -59.191  1.00  0.00    -0.379 N 
HETATM   41  H   UNL     1     -40.586  63.818 -59.514  1.00  0.00     0.158 HD
HETATM   42  H   UNL     1     -40.459  62.659 -58.264  1.00  0.00     0.158 HD
ENDBRANCH  39  40
ENDBRANCH   4  35
TORSDOF 10
ENDMDL
MODEL 4
REMARK VINA RESULT:      -9.0      1.509      2.136
REMARK  10 active torsions:
REMARK  status: ('A' for Active; 'I' for Inactive)
REMARK    1  A    between atoms: C_6  and  C_7 
REMARK    2  A    between atoms: C_7  and  O_8 
REMARK    3  A    between atoms: O_8  and  C_9 
REMARK    4  A    between atoms: C_12  and  C_13 
REMARK    5  A    between atoms: N_14  and  N_15 
REMARK       I    between atoms: N_15  and  C_16 
REMARK    6  A    between atoms: C_16  and  C_17 
REMARK    7  A    between atoms: N_20  and  C_21 
REMARK    8  A    between atoms: C_25  and  N_26 
REMARK    9  A    between atoms: C_27  and  C_28 
REMARK   10  A    between atoms: C_28  and  N_29 
ROOT
HETATM    1  C   UNL     1     -43.084  57.625 -56.917  1.00  0.00     0.170 C 
HETATM    2  N   UNL     1     -42.533  56.381 -56.973  1.00  0.00    -0.152 NA
HETATM    3  N   UNL     1     -43.031  55.758 -58.028  1.00  0.00     0.012 NA
HETATM    4  N   UNL     1     -43.918  56.575 -58.654  1.00  0.00    -0.215 N 
HETATM    5  C   UNL     1     -43.872  57.828 -58.045  1.00  0.00     0.096 C 
ENDROOT
BRANCH   1   6
HETATM    6  C   UNL     1     -42.742  58.607 -55.897  1.00  0.00     0.293 C 
HETATM    7  N   UNL     1     -43.698  58.860 -54.929  1.00  0.00    -0.242 N 
HETATM    8  H   UNL     1     -43.464  59.575 -54.249  1.00  0.00     0.192 HD
HETATM    9  O   UNL     1     -41.721  59.286 -55.967  1.00  0.00    -0.264 OA
BRANCH   7  10
HETATM   10  N   UNL     1     -44.801  58.077 -54.774  1.00  0.00    -0.184 NA
HETATM   11  C   UNL     1     -44.704  56.927 -54.170  1.00  0.00     0.150 C 
BRANCH  11  12
HETATM   12  C   UNL     1     -43.538  56.298 -53.529  1.00  0.00    -0.017 A 
HETATM   13  C   UNL     1     -43.182  55.027 -53.985  1.00  0.00     0.016 A 
HETATM   14  C   UNL     1     -42.072  54.386 -53.435  1.00  0.00     0.037 A 
HETATM   15  C   UNL     1     -41.304  55.015 -52.455  1.00  0.00     0.069 A 
HETATM   16  C   UNL     1     -41.664  56.286 -52.002  1.00  0.00     0.037 A 
HETATM   17  C   UNL     1     -42.776  56.938 -52.550  1.00  0.00     0.016 A 
BRANCH  15  18
HETATM   18  O   UNL     1     -40.241  54.283 -52.010  1.00  0.00    -0.347 OA
BRANCH  18  19
HETATM   19  C   UNL     1     -40.454  53.464 -50.859  1.00  0.00     0.214 C 
BRANCH  19  20
HETATM   20  C   UNL     1     -40.167  52.034 -51.247  1.00  0.00    -0.033 A 
HETATM   21  C   UNL     1     -39.912  51.713 -52.590  1.00  0.00     0.033 A 
HETATM   22  C   UNL     1     -39.624  50.400 -52.960  1.00  0.00     0.034 A 
HETATM   23  C   UNL     1     -39.581  49.392 -52.001  1.00  0.00     0.024 A 
HETATM   24 CL   UNL     1     -39.315  50.028 -54.611  1.00  0.00    -0.084 Cl
HETATM   25  C   UNL     1     -39.832  49.699 -50.663  1.00  0.00     0.002 A 
HETATM   26  C   UNL     1     -40.124  51.014 -50.287  1.00  0.00     0.009 A 
ENDBRANCH  19  20
ENDBRANCH  18  19
ENDBRANCH  15  18
ENDBRANCH  11  12
ENDBRANCH   7  10
ENDBRANCH   1   6
BRANCH   5  27
HETATM   27  C   UNL     1     -44.539  59.066 -58.497  1.00  0.00     0.296 C 
BRANCH  27  28
HETATM   28  N   UNL     1     -43.776  59.886 -59.531  1.00  0.00    -0.066 N 
HETATM   29  H   UNL     1     -44.184  60.826 -59.455  1.00  0.00     0.280 HD
HETATM   30  C   UNL     1     -42.299  60.051 -59.230  1.00  0.00     0.235 C 
HETATM   31  C   UNL     1     -41.690  61.062 -60.190  1.00  0.00     0.028 C 
HETATM   32  C   UNL     1     -41.936  60.678 -61.644  1.00  0.00     0.003 C 
HETATM   33  C   UNL     1     -43.421  60.472 -61.911  1.00  0.00     0.028 C 
HETATM   34  C   UNL     1     -44.029  59.454 -60.956  1.00  0.00     0.235 C 
ENDBRANCH  27  28
ENDBRANCH   5  27
BRANCH   4  35
HETATM   35  C   UNL     1     -44.680  56.140 -59.766  1.00  0.00     0.225 A 
HETATM   36  N   UNL     1     -44.082  55.580 -60.818  1.00  0.00    -0.081 NA
HETATM   37  O   UNL     1     -45.132  55.306 -61.696  1.00  0.00    -0.103 OA
HETATM   38  N   UNL     1     -46.352  55.665 -61.142  1.00  0.00    -0.083 NA
HETATM   39  C   UNL     1     -46.072  56.190 -59.950  1.00  0.00     0.201 A 
BRANCH  39  40
HETATM   40  N   UNL     1     -46.994  56.644 -59.086  1.00  0.00    -0.379 N 
HETATM   41  H   UNL     1     -46.852  56.524 -58.086  1.00  0.00     0.158 HD
HETATM   42  H   UNL     1     -47.964  56.811 -59.351  1.00  0.00     0.158 HD
ENDBRANCH  39  40
ENDBRANCH   4  35
TORSDOF 10
ENDMDL
MODEL 5
REMARK VINA RESULT:      -8.8      2.047      3.675
REMARK  10 active torsions:
REMARK  status: ('A' for Active; 'I' for Inactive)
REMARK    1  A    between atoms: C_6  and  C_7 
REMARK    2  A    between atoms: C_7  and  O_8 
REMARK    3  A    between atoms: O_8  and  C_9 
REMARK    4  A    between atoms: C_12  and  C_13 
REMARK    5  A    between atoms: N_14  and  N_15 
REMARK       I    between atoms: N_15  and  C_16 
REMARK    6  A    between atoms: C_16  and  C_17 
REMARK    7  A    between atoms: N_20  and  C_21 
REMARK    8  A    between atoms: C_25  and  N_26 
REMARK    9  A    between atoms: C_27  and  C_28 
REMARK   10  A    between atoms: C_28  and  N_29 
ROOT
HETATM    1  C   UNL     1     -42.821  59.471 -54.692  1.00  0.00     0.170 C 
HETATM    2  N   UNL     1     -43.901  60.300 -54.649  1.00  0.00    -0.152 NA
HETATM    3  N   UNL     1     -44.549  60.190 -55.796  1.00  0.00     0.012 NA
HETATM    4  N   UNL     1     -43.894  59.312 -56.600  1.00  0.00    -0.215 N 
HETATM    5  C   UNL     1     -42.859  58.731 -55.870  1.00  0.00     0.096 C 
ENDROOT
BRANCH   1   6
HETATM    6  C   UNL     1     -41.891  59.309 -53.583  1.00  0.00     0.293 C 
HETATM    7  N   UNL     1     -42.444  59.102 -52.330  1.00  0.00    -0.242 N 
HETATM    8  H   UNL     1     -41.787  59.031 -51.561  1.00  0.00     0.192 HD
HETATM    9  O   UNL     1     -40.684  59.491 -53.717  1.00  0.00    -0.264 OA
BRANCH   7  10
HETATM   10  N   UNL     1     -43.763  58.818 -52.156  1.00  0.00    -0.184 NA
HETATM   11  C   UNL     1     -44.126  57.644 -51.725  1.00  0.00     0.150 C 
BRANCH  11  12
HETATM   12  C   UNL     1     -43.300  56.498 -51.311  1.00  0.00    -0.017 A 
HETATM   13  C   UNL     1     -42.050  56.791 -50.762  1.00  0.00     0.016 A 
HETATM   14  C   UNL     1     -41.229  55.752 -50.328  1.00  0.00     0.037 A 
HETATM   15  C   UNL     1     -41.659  54.426 -50.412  1.00  0.00     0.069 A 
HETATM   16  C   UNL     1     -42.910  54.138 -50.961  1.00  0.00     0.037 A 
HETATM   17  C   UNL     1     -43.742  55.176 -51.398  1.00  0.00     0.016 A 
BRANCH  15  18
HETATM   18  O   UNL     1     -40.765  53.509 -49.943  1.00  0.00    -0.347 OA
BRANCH  18  19
HETATM   19  C   UNL     1     -39.615  53.252 -50.750  1.00  0.00     0.214 C 
BRANCH  19  20
HETATM   20  C   UNL     1     -39.715  51.836 -51.264  1.00  0.00    -0.033 A 
HETATM   21  C   UNL     1     -39.583  51.583 -52.640  1.00  0.00     0.033 A 
HETATM   22  C   UNL     1     -39.652  50.278 -53.126  1.00  0.00     0.034 A 
HETATM   23  C   UNL     1     -39.848  49.210 -52.255  1.00  0.00     0.024 A 
HETATM   24 CL   UNL     1     -39.488  49.989 -54.814  1.00  0.00    -0.084 Cl
HETATM   25  C   UNL     1     -39.980  49.451 -50.887  1.00  0.00     0.002 A 
HETATM   26  C   UNL     1     -39.914  50.757 -50.393  1.00  0.00     0.009 A 
ENDBRANCH  19  20
ENDBRANCH  18  19
ENDBRANCH  15  18
ENDBRANCH  11  12
ENDBRANCH   7  10
ENDBRANCH   1   6
BRANCH   5  27
HETATM   27  C   UNL     1     -41.996  57.606 -56.283  1.00  0.00     0.296 C 
BRANCH  27  28
HETATM   28  N   UNL     1     -42.104  56.345 -55.433  1.00  0.00    -0.066 N 
HETATM   29  H   UNL     1     -42.596  56.657 -54.586  1.00  0.00     0.280 HD
HETATM   30  C   UNL     1     -42.970  55.258 -56.037  1.00  0.00     0.235 C 
HETATM   31  C   UNL     1     -43.191  54.151 -55.016  1.00  0.00     0.028 C 
HETATM   32  C   UNL     1     -41.873  53.602 -54.486  1.00  0.00     0.003 C 
HETATM   33  C   UNL     1     -41.000  54.718 -53.928  1.00  0.00     0.028 C 
HETATM   34  C   UNL     1     -40.773  55.821 -54.952  1.00  0.00     0.235 C 
ENDBRANCH  27  28
ENDBRANCH   5  27
BRANCH   4  35
HETATM   35  C   UNL     1     -44.308  59.065 -57.931  1.00  0.00     0.225 A 
HETATM   36  N   UNL     1     -43.628  59.578 -58.957  1.00  0.00    -0.081 NA
HETATM   37  O   UNL     1     -44.332  59.142 -60.081  1.00  0.00    -0.103 OA
HETATM   38  N   UNL     1     -45.401  58.337 -59.718  1.00  0.00    -0.083 NA
HETATM   39  C   UNL     1     -45.393  58.296 -58.386  1.00  0.00     0.201 A 
BRANCH  39  40
HETATM   40  N   UNL     1     -46.266  57.598 -57.643  1.00  0.00    -0.379 N 
HETATM   41  H   UNL     1     -46.948  58.088 -57.070  1.00  0.00     0.158 HD
HETATM   42  H   UNL     1     -46.101  56.633 -57.358  1.00  0.00     0.158 HD
ENDBRANCH  39  40
ENDBRANCH   4  35
TORSDOF 10
ENDMDL
MODEL 6
REMARK VINA RESULT:      -8.5      2.325      4.385
REMARK  10 active torsions:
REMARK  status: ('A' for Active; 'I' for Inactive)
REMARK    1  A    between atoms: C_6  and  C_7 
REMARK    2  A    between atoms: C_7  and  O_8 
REMARK    3  A    between atoms: O_8  and  C_9 
REMARK    4  A    between atoms: C_12  and  C_13 
REMARK    5  A    between atoms: N_14  and  N_15 
REMARK       I    between atoms: N_15  and  C_16 
REMARK    6  A    between atoms: C_16  and  C_17 
REMARK    7  A    between atoms: N_20  and  C_21 
REMARK    8  A    between atoms: C_25  and  N_26 
REMARK    9  A    between atoms: C_27  and  C_28 
REMARK   10  A    between atoms: C_28  and  N_29 
ROOT
HETATM    1  C   UNL     1     -45.158  59.820 -57.394  1.00  0.00     0.170 C 
HETATM    2  N   UNL     1     -45.615  61.078 -57.643  1.00  0.00    -0.152 NA
HETATM    3  N   UNL     1     -44.749  61.679 -58.441  1.00  0.00     0.012 NA
HETATM    4  N   UNL     1     -43.718  60.834 -58.704  1.00  0.00    -0.215 N 
HETATM    5  C   UNL     1     -44.018  59.587 -58.157  1.00  0.00     0.096 C 
ENDROOT
BRANCH   1   6
HETATM    6  C   UNL     1     -45.876  58.856 -56.572  1.00  0.00     0.293 C 
HETATM    7  N   UNL     1     -45.618  58.880 -55.211  1.00  0.00    -0.242 N 
HETATM    8  H   UNL     1     -46.093  58.178 -54.656  1.00  0.00     0.192 HD
HETATM    9  O   UNL     1     -46.563  57.967 -57.066  1.00  0.00    -0.264 OA
BRANCH   7  10
HETATM   10  N   UNL     1     -44.927  59.894 -54.621  1.00  0.00    -0.184 NA
HETATM   11  C   UNL     1     -44.120  59.642 -53.631  1.00  0.00     0.150 C 
BRANCH  11  12
HETATM   12  C   UNL     1     -43.749  58.353 -53.024  1.00  0.00    -0.017 A 
HETATM   13  C   UNL     1     -42.646  57.695 -53.573  1.00  0.00     0.016 A 
HETATM   14  C   UNL     1     -42.229  56.481 -53.028  1.00  0.00     0.037 A 
HETATM   15  C   UNL     1     -42.888  55.936 -51.925  1.00  0.00     0.069 A 
HETATM   16  C   UNL     1     -43.990  56.597 -51.380  1.00  0.00     0.037 A 
HETATM   17  C   UNL     1     -44.415  57.818 -51.920  1.00  0.00     0.016 A 
BRANCH  15  18
HETATM   18  O   UNL     1     -42.373  54.751 -51.485  1.00  0.00    -0.347 OA
BRANCH  18  19
HETATM   19  C   UNL     1     -40.953  54.669 -51.359  1.00  0.00     0.214 C 
BRANCH  19  20
HETATM   20  C   UNL     1     -40.497  53.405 -52.045  1.00  0.00    -0.033 A 
HETATM   21  C   UNL     1     -40.071  52.309 -51.277  1.00  0.00     0.033 A 
HETATM   22  C   UNL     1     -39.667  51.127 -51.897  1.00  0.00     0.034 A 
HETATM   23  C   UNL     1     -39.685  51.018 -53.285  1.00  0.00     0.024 A 
HETATM   24 CL   UNL     1     -39.149  49.796 -50.938  1.00  0.00    -0.084 Cl
HETATM   25  C   UNL     1     -40.106  52.100 -54.058  1.00  0.00     0.002 A 
HETATM   26  C   UNL     1     -40.511  53.289 -53.442  1.00  0.00     0.009 A 
ENDBRANCH  19  20
ENDBRANCH  18  19
ENDBRANCH  15  18
ENDBRANCH  11  12
ENDBRANCH   7  10
ENDBRANCH   1   6
BRANCH   5  27
HETATM   27  C   UNL     1     -43.268  58.328 -58.339  1.00  0.00     0.296 C 
BRANCH  27  28
HETATM   28  N   UNL     1     -44.061  57.169 -58.932  1.00  0.00    -0.066 N 
HETATM   29  H   UNL     1     -44.737  56.926 -58.196  1.00  0.00     0.280 HD
HETATM   30  C   UNL     1     -44.888  57.536 -60.148  1.00  0.00     0.235 C 
HETATM   31  C   UNL     1     -45.803  56.376 -60.515  1.00  0.00     0.028 C 
HETATM   32  C   UNL     1     -45.020  55.086 -60.727  1.00  0.00     0.003 C 
HETATM   33  C   UNL     1     -44.161  54.763 -59.512  1.00  0.00     0.028 C 
HETATM   34  C   UNL     1     -43.240  55.920 -59.148  1.00  0.00     0.235 C 
ENDBRANCH  27  28
ENDBRANCH   5  27
BRANCH   4  35
HETATM   35  C   UNL     1     -42.592  61.240 -59.459  1.00  0.00     0.225 A 
HETATM   36  N   UNL     1     -42.582  61.102 -60.786  1.00  0.00    -0.081 NA
HETATM   37  O   UNL     1     -41.328  61.585 -61.165  1.00  0.00    -0.103 OA
HETATM   38  N   UNL     1     -40.617  62.045 -60.067  1.00  0.00    -0.083 NA
HETATM   39  C   UNL     1     -41.396  61.823 -59.009  1.00  0.00     0.201 A 
BRANCH  39  40
HETATM   40  N   UNL     1     -41.072  62.151 -57.747  1.00  0.00    -0.379 N 
HETATM   41  H   UNL     1     -40.657  63.058 -57.551  1.00  0.00     0.158 HD
HETATM   42  H   UNL     1     -40.912  61.455 -57.020  1.00  0.00     0.158 HD
ENDBRANCH  39  40
ENDBRANCH   4  35
TORSDOF 10
ENDMDL
MODEL 7
REMARK VINA RESULT:      -8.3      2.757      4.251
REMARK  10 active torsions:
REMARK  status: ('A' for Active; 'I' for Inactive)
REMARK    1  A    between atoms: C_6  and  C_7 
REMARK    2  A    between atoms: C_7  and  O_8 
REMARK    3  A    between atoms: O_8  and  C_9 
REMARK    4  A    between atoms: C_12  and  C_13 
REMARK    5  A    between atoms: N_14  and  N_15 
REMARK       I    between atoms: N_15  and  C_16 
REMARK    6  A    between atoms: C_16  and  C_17 
REMARK    7  A    between atoms: N_20  and  C_21 
REMARK    8  A    between atoms: C_25  and  N_26 
REMARK    9  A    between atoms: C_27  and  C_28 
REMARK   10  A    between atoms: C_28  and  N_29 
ROOT
HETATM    1  C   UNL     1     -44.016  57.306 -59.487  1.00  0.00     0.170 C 
HETATM    2  N   UNL     1     -45.056  56.464 -59.235  1.00  0.00    -0.152 NA
HETATM    3  N   UNL     1     -46.181  57.129 -59.437  1.00  0.00     0.012 NA
HETATM    4  N   UNL     1     -45.890  58.405 -59.801  1.00  0.00    -0.215 N 
HETATM    5  C   UNL     1     -44.511  58.512 -59.974  1.00  0.00     0.096 C 
ENDROOT
BRANCH   1   6
HETATM    6  C   UNL     1     -42.620  56.904 -59.395  1.00  0.00     0.293 C 
HETATM    7  N   UNL     1     -41.857  57.513 -58.412  1.00  0.00    -0.242 N 
HETATM    8  H   UNL     1     -40.877  57.254 -58.385  1.00  0.00     0.192 HD
HETATM    9  O   UNL     1     -42.098  56.174 -60.233  1.00  0.00    -0.264 OA
BRANCH   7  10
HETATM   10  N   UNL     1     -42.413  58.263 -57.422  1.00  0.00    -0.184 NA
HETATM   11  C   UNL     1     -42.596  57.750 -56.239  1.00  0.00     0.150 C 
BRANCH  11  12
HETATM   12  C   UNL     1     -42.232  56.419 -55.726  1.00  0.00    -0.017 A 
HETATM   13  C   UNL     1     -43.140  55.385 -55.962  1.00  0.00     0.016 A 
HETATM   14  C   UNL     1     -42.844  54.096 -55.523  1.00  0.00     0.037 A 
HETATM   15  C   UNL     1     -41.637  53.828 -54.875  1.00  0.00     0.069 A 
HETATM   16  C   UNL     1     -40.732  54.864 -54.641  1.00  0.00     0.037 A 
HETATM   17  C   UNL     1     -41.020  56.162 -55.081  1.00  0.00     0.016 A 
BRANCH  15  18
HETATM   18  O   UNL     1     -41.468  52.525 -54.507  1.00  0.00    -0.347 OA
BRANCH  18  19
HETATM   19  C   UNL     1     -40.127  52.078 -54.301  1.00  0.00     0.214 C 
BRANCH  19  20
HETATM   20  C   UNL     1     -40.027  51.539 -52.895  1.00  0.00    -0.033 A 
HETATM   21  C   UNL     1     -40.269  52.388 -51.803  1.00  0.00     0.033 A 
HETATM   22  C   UNL     1     -40.201  51.898 -50.499  1.00  0.00     0.034 A 
HETATM   23  C   UNL     1     -39.897  50.561 -50.264  1.00  0.00     0.024 A 
HETATM   24 CL   UNL     1     -40.501  52.956 -49.176  1.00  0.00    -0.084 Cl
HETATM   25  C   UNL     1     -39.654  49.708 -51.342  1.00  0.00     0.002 A 
HETATM   26  C   UNL     1     -39.719  50.193 -52.651  1.00  0.00     0.009 A 
ENDBRANCH  19  20
ENDBRANCH  18  19
ENDBRANCH  15  18
ENDBRANCH  11  12
ENDBRANCH   7  10
ENDBRANCH   1   6
BRANCH   5  27
HETATM   27  C   UNL     1     -43.766  59.662 -60.525  1.00  0.00     0.296 C 
BRANCH  27  28
HETATM   28  N   UNL     1     -43.008  60.506 -59.506  1.00  0.00    -0.066 N 
HETATM   29  H   UNL     1     -42.663  59.820 -58.822  1.00  0.00     0.280 HD
HETATM   30  C   UNL     1     -41.775  61.193 -60.059  1.00  0.00     0.235 C 
HETATM   31  C   UNL     1     -40.978  61.812 -58.920  1.00  0.00     0.028 C 
HETATM   32  C   UNL     1     -41.832  62.758 -58.085  1.00  0.00     0.003 C 
HETATM   33  C   UNL     1     -43.087  62.060 -57.580  1.00  0.00     0.028 C 
HETATM   34  C   UNL     1     -43.888  61.446 -58.720  1.00  0.00     0.235 C 
ENDBRANCH  27  28
ENDBRANCH   5  27
BRANCH   4  35
HETATM   35  C   UNL     1     -46.901  59.377 -59.993  1.00  0.00     0.225 A 
HETATM   36  N   UNL     1     -47.118  59.898 -61.201  1.00  0.00    -0.081 NA
HETATM   37  O   UNL     1     -48.154  60.810 -60.994  1.00  0.00    -0.103 OA
HETATM   38  N   UNL     1     -48.576  60.794 -59.673  1.00  0.00    -0.083 NA
HETATM   39  C   UNL     1     -47.794  59.914 -59.050  1.00  0.00     0.201 A 
BRANCH  39  40
HETATM   40  N   UNL     1     -47.898  59.594 -57.750  1.00  0.00    -0.379 N 
HETATM   41  H   UNL     1     -47.293  60.044 -57.068  1.00  0.00     0.158 HD
HETATM   42  H   UNL     1     -48.304  58.716 -57.429  1.00  0.00     0.158 HD
ENDBRANCH  39  40
ENDBRANCH   4  35
TORSDOF 10
ENDMDL
MODEL 8
REMARK VINA RESULT:      -8.3      2.095      3.843
REMARK  10 active torsions:
REMARK  status: ('A' for Active; 'I' for Inactive)
REMARK    1  A    between atoms: C_6  and  C_7 
REMARK    2  A    between atoms: C_7  and  O_8 
REMARK    3  A    between atoms: O_8  and  C_9 
REMARK    4  A    between atoms: C_12  and  C_13 
REMARK    5  A    between atoms: N_14  and  N_15 
REMARK       I    between atoms: N_15  and  C_16 
REMARK    6  A    between atoms: C_16  and  C_17 
REMARK    7  A    between atoms: N_20  and  C_21 
REMARK    8  A    between atoms: C_25  and  N_26 
REMARK    9  A    between atoms: C_27  and  C_28 
REMARK   10  A    between atoms: C_28  and  N_29 
ROOT
HETATM    1  C   UNL     1     -43.056  58.108 -55.450  1.00  0.00     0.170 C 
HETATM    2  N   UNL     1     -42.028  58.516 -54.656  1.00  0.00    -0.152 NA
HETATM    3  N   UNL     1     -41.600  59.683 -55.107  1.00  0.00     0.012 NA
HETATM    4  N   UNL     1     -42.326  60.036 -56.200  1.00  0.00    -0.215 N 
HETATM    5  C   UNL     1     -43.357  59.112 -56.364  1.00  0.00     0.096 C 
ENDROOT
BRANCH   1   6
HETATM    6  C   UNL     1     -43.794  56.872 -55.230  1.00  0.00     0.293 C 
HETATM    7  N   UNL     1     -44.544  56.790 -54.069  1.00  0.00    -0.242 N 
HETATM    8  H   UNL     1     -45.021  55.909 -53.908  1.00  0.00     0.192 HD
HETATM    9  O   UNL     1     -43.650  55.892 -55.956  1.00  0.00    -0.264 OA
BRANCH   7  10
HETATM   10  N   UNL     1     -44.790  57.875 -53.284  1.00  0.00    -0.184 NA
HETATM   11  C   UNL     1     -44.291  57.938 -52.084  1.00  0.00     0.150 C 
BRANCH  11  12
HETATM   12  C   UNL     1     -43.396  57.000 -51.387  1.00  0.00    -0.017 A 
HETATM   13  C   UNL     1     -43.910  55.731 -51.110  1.00  0.00     0.016 A 
HETATM   14  C   UNL     1     -43.104  54.788 -50.473  1.00  0.00     0.037 A 
HETATM   15  C   UNL     1     -41.784  55.093 -50.138  1.00  0.00     0.069 A 
HETATM   16  C   UNL     1     -41.275  56.363 -50.418  1.00  0.00     0.037 A 
HETATM   17  C   UNL     1     -42.076  57.316 -51.059  1.00  0.00     0.016 A 
BRANCH  15  18
HETATM   18  O   UNL     1     -41.104  54.079 -49.530  1.00  0.00    -0.347 OA
BRANCH  18  19
HETATM   19  C   UNL     1     -39.788  53.801 -50.010  1.00  0.00     0.214 C 
BRANCH  19  20
HETATM   20  C   UNL     1     -39.916  53.062 -51.319  1.00  0.00    -0.033 A 
HETATM   21  C   UNL     1     -39.677  51.678 -51.365  1.00  0.00     0.033 A 
HETATM   22  C   UNL     1     -39.812  50.978 -52.563  1.00  0.00     0.034 A 
HETATM   23  C   UNL     1     -40.190  51.641 -53.727  1.00  0.00     0.024 A 
HETATM   24 CL   UNL     1     -39.516  49.284 -52.598  1.00  0.00    -0.084 Cl
HETATM   25  C   UNL     1     -40.429  53.015 -53.693  1.00  0.00     0.002 A 
HETATM   26  C   UNL     1     -40.294  53.724 -52.496  1.00  0.00     0.009 A 
ENDBRANCH  19  20
ENDBRANCH  18  19
ENDBRANCH  15  18
ENDBRANCH  11  12
ENDBRANCH   7  10
ENDBRANCH   1   6
BRANCH   5  27
HETATM   27  C   UNL     1     -44.483  59.190 -57.316  1.00  0.00     0.296 C 
BRANCH  27  28
HETATM   28  N   UNL     1     -44.325  58.373 -58.593  1.00  0.00    -0.066 N 
HETATM   29  H   UNL     1     -44.508  59.049 -59.346  1.00  0.00     0.280 HD
HETATM   30  C   UNL     1     -42.920  57.857 -58.834  1.00  0.00     0.235 C 
HETATM   31  C   UNL     1     -42.825  57.259 -60.230  1.00  0.00     0.028 C 
HETATM   32  C   UNL     1     -43.875  56.177 -60.452  1.00  0.00     0.003 C 
HETATM   33  C   UNL     1     -45.273  56.704 -60.158  1.00  0.00     0.028 C 
HETATM   34  C   UNL     1     -45.370  57.296 -58.759  1.00  0.00     0.235 C 
ENDBRANCH  27  28
ENDBRANCH   5  27
BRANCH   4  35
HETATM   35  C   UNL     1     -42.029  61.198 -56.952  1.00  0.00     0.225 A 
HETATM   36  N   UNL     1     -40.987  61.217 -57.785  1.00  0.00    -0.081 NA
HETATM   37  O   UNL     1     -41.006  62.506 -58.320  1.00  0.00    -0.103 OA
HETATM   38  N   UNL     1     -42.084  63.232 -57.834  1.00  0.00    -0.083 NA
HETATM   39  C   UNL     1     -42.712  62.425 -56.980  1.00  0.00     0.201 A 
BRANCH  39  40
HETATM   40  N   UNL     1     -43.828  62.753 -56.309  1.00  0.00    -0.379 N 
HETATM   41  H   UNL     1     -43.759  63.123 -55.364  1.00  0.00     0.158 HD
HETATM   42  H   UNL     1     -44.744  62.369 -56.539  1.00  0.00     0.158 HD
ENDBRANCH  39  40
ENDBRANCH   4  35
TORSDOF 10
ENDMDL
MODEL 9
REMARK VINA RESULT:      -8.3      2.438      4.592
REMARK  10 active torsions:
REMARK  status: ('A' for Active; 'I' for Inactive)
REMARK    1  A    between atoms: C_6  and  C_7 
REMARK    2  A    between atoms: C_7  and  O_8 
REMARK    3  A    between atoms: O_8  and  C_9 
REMARK    4  A    between atoms: C_12  and  C_13 
REMARK    5  A    between atoms: N_14  and  N_15 
REMARK       I    between atoms: N_15  and  C_16 
REMARK    6  A    between atoms: C_16  and  C_17 
REMARK    7  A    between atoms: N_20  and  C_21 
REMARK    8  A    between atoms: C_25  and  N_26 
REMARK    9  A    between atoms: C_27  and  C_28 
REMARK   10  A    between atoms: C_28  and  N_29 
ROOT
HETATM    1  C   UNL     1     -44.266  59.366 -58.591  1.00  0.00     0.170 C 
HETATM    2  N   UNL     1     -44.660  59.685 -59.855  1.00  0.00    -0.152 NA
HETATM    3  N   UNL     1     -43.729  60.454 -60.393  1.00  0.00     0.012 NA
HETATM    4  N   UNL     1     -42.737  60.659 -59.488  1.00  0.00    -0.215 N 
HETATM    5  C   UNL     1     -42.986  59.864 -58.371  1.00  0.00     0.096 C 
ENDROOT
BRANCH   1   6
HETATM    6  C   UNL     1     -45.037  58.502 -57.707  1.00  0.00     0.293 C 
HETATM    7  N   UNL     1     -44.919  57.137 -57.909  1.00  0.00    -0.242 N 
HETATM    8  H   UNL     1     -45.491  56.549 -57.314  1.00  0.00     0.192 HD
HETATM    9  O   UNL     1     -45.863  58.953 -56.918  1.00  0.00    -0.264 OA
BRANCH   7  10
HETATM   10  N   UNL     1     -43.962  56.602 -58.715  1.00  0.00    -0.184 NA
HETATM   11  C   UNL     1     -43.018  55.864 -58.205  1.00  0.00     0.150 C 
BRANCH  11  12
HETATM   12  C   UNL     1     -42.815  55.426 -56.814  1.00  0.00    -0.017 A 
HETATM   13  C   UNL     1     -42.031  56.252 -56.005  1.00  0.00     0.016 A 
HETATM   14  C   UNL     1     -41.820  55.906 -54.671  1.00  0.00     0.037 A 
HETATM   15  C   UNL     1     -42.408  54.759 -54.134  1.00  0.00     0.069 A 
HETATM   16  C   UNL     1     -43.191  53.937 -54.947  1.00  0.00     0.037 A 
HETATM   17  C   UNL     1     -43.410  54.278 -56.288  1.00  0.00     0.016 A 
BRANCH  15  18
HETATM   18  O   UNL     1     -42.130  54.543 -52.816  1.00  0.00    -0.347 OA
BRANCH  18  19
HETATM   19  C   UNL     1     -40.752  54.494 -52.443  1.00  0.00     0.214 C 
BRANCH  19  20
HETATM   20  C   UNL     1     -40.374  53.046 -52.247  1.00  0.00    -0.033 A 
HETATM   21  C   UNL     1     -40.143  52.228 -53.366  1.00  0.00     0.033 A 
HETATM   22  C   UNL     1     -39.773  50.894 -53.200  1.00  0.00     0.034 A 
HETATM   23  C   UNL     1     -39.624  50.357 -51.925  1.00  0.00     0.024 A 
HETATM   24 CL   UNL     1     -39.494  49.909 -54.583  1.00  0.00    -0.084 Cl
HETATM   25  C   UNL     1     -39.851  51.161 -50.806  1.00  0.00     0.002 A 
HETATM   26  C   UNL     1     -40.225  52.499 -50.966  1.00  0.00     0.009 A 
ENDBRANCH  19  20
ENDBRANCH  18  19
ENDBRANCH  15  18
ENDBRANCH  11  12
ENDBRANCH   7  10
ENDBRANCH   1   6
BRANCH   5  27
HETATM   27  C   UNL     1     -42.092  59.638 -57.217  1.00  0.00     0.296 C 
BRANCH  27  28
HETATM   28  N   UNL     1     -42.629  60.100 -55.867  1.00  0.00    -0.066 N 
HETATM   29  H   UNL     1     -43.493  59.555 -55.743  1.00  0.00     0.280 HD
HETATM   30  C   UNL     1     -41.744  59.744 -54.689  1.00  0.00     0.235 C 
HETATM   31  C   UNL     1     -42.475  60.044 -53.388  1.00  0.00     0.028 C 
HETATM   32  C   UNL     1     -42.948  61.492 -53.329  1.00  0.00     0.003 C 
HETATM   33  C   UNL     1     -43.796  61.839 -54.546  1.00  0.00     0.028 C 
HETATM   34  C   UNL     1     -43.062  61.546 -55.847  1.00  0.00     0.235 C 
ENDBRANCH  27  28
ENDBRANCH   5  27
BRANCH   4  35
HETATM   35  C   UNL     1     -41.648  61.523 -59.754  1.00  0.00     0.225 A 
HETATM   36  N   UNL     1     -41.008  62.133 -58.756  1.00  0.00    -0.081 NA
HETATM   37  O   UNL     1     -40.030  62.896 -59.397  1.00  0.00    -0.103 OA
HETATM   38  N   UNL     1     -40.068  62.702 -60.770  1.00  0.00    -0.083 NA
HETATM   39  C   UNL     1     -41.075  61.859 -60.993  1.00  0.00     0.201 A 
BRANCH  39  40
HETATM   40  N   UNL     1     -41.428  61.402 -62.205  1.00  0.00    -0.379 N 
HETATM   41  H   UNL     1     -41.333  60.413 -62.420  1.00  0.00     0.158 HD
HETATM   42  H   UNL     1     -41.480  62.003 -63.027  1.00  0.00     0.158 HD
ENDBRANCH  39  40
ENDBRANCH   4  35
TORSDOF 10
ENDMDL
MODEL 10
REMARK VINA RESULT:      -8.2      3.837     10.099
REMARK  10 active torsions:
REMARK  status: ('A' for Active; 'I' for Inactive)
REMARK    1  A    between atoms: C_6  and  C_7 
REMARK    2  A    between atoms: C_7  and  O_8 
REMARK    3  A    between atoms: O_8  and  C_9 
REMARK    4  A    between atoms: C_12  and  C_13 
REMARK    5  A    between atoms: N_14  and  N_15 
REMARK       I    between atoms: N_15  and  C_16 
REMARK    6  A    between atoms: C_16  and  C_17 
REMARK    7  A    between atoms: N_20  and  C_21 
REMARK    8  A    between atoms: C_25  and  N_26 
REMARK    9  A    between atoms: C_27  and  C_28 
REMARK   10  A    between atoms: C_28  and  N_29 
ROOT
HETATM    1  C   UNL     1     -40.874  54.595 -54.586  1.00  0.00     0.170 C 
HETATM    2  N   UNL     1     -40.085  54.084 -55.572  1.00  0.00    -0.152 NA
HETATM    3  N   UNL     1     -39.697  52.875 -55.202  1.00  0.00     0.012 NA
HETATM    4  N   UNL     1     -40.209  52.595 -53.975  1.00  0.00    -0.215 N 
HETATM    5  C   UNL     1     -41.079  53.622 -53.613  1.00  0.00     0.096 C 
ENDROOT
BRANCH   1   6
HETATM    6  C   UNL     1     -41.508  55.904 -54.666  1.00  0.00     0.293 C 
HETATM    7  N   UNL     1     -42.448  56.083 -55.666  1.00  0.00    -0.242 N 
HETATM    8  H   UNL     1     -42.852  57.010 -55.737  1.00  0.00     0.192 HD
HETATM    9  O   UNL     1     -41.129  56.850 -53.981  1.00  0.00    -0.264 OA
BRANCH   7  10
HETATM   10  N   UNL     1     -42.947  55.043 -56.389  1.00  0.00    -0.184 NA
HETATM   11  C   UNL     1     -43.330  55.228 -57.620  1.00  0.00     0.150 C 
BRANCH  11  12
HETATM   12  C   UNL     1     -43.265  56.441 -58.452  1.00  0.00    -0.017 A 
HETATM   13  C   UNL     1     -42.325  56.444 -59.485  1.00  0.00     0.016 A 
HETATM   14  C   UNL     1     -42.229  57.553 -60.324  1.00  0.00     0.037 A 
HETATM   15  C   UNL     1     -43.082  58.645 -60.155  1.00  0.00     0.069 A 
HETATM   16  C   UNL     1     -44.020  58.638 -59.122  1.00  0.00     0.037 A 
HETATM   17  C   UNL     1     -44.125  57.527 -58.275  1.00  0.00     0.016 A 
BRANCH  15  18
HETATM   18  O   UNL     1     -42.890  59.658 -61.050  1.00  0.00    -0.347 OA
BRANCH  18  19
HETATM   19  C   UNL     1     -43.185  60.982 -60.603  1.00  0.00     0.214 C 
BRANCH  19  20
HETATM   20  C   UNL     1     -41.883  61.652 -60.241  1.00  0.00    -0.033 A 
HETATM   21  C   UNL     1     -41.063  62.176 -61.254  1.00  0.00     0.033 A 
HETATM   22  C   UNL     1     -39.866  62.816 -60.933  1.00  0.00     0.034 A 
HETATM   23  C   UNL     1     -39.472  62.948 -59.605  1.00  0.00     0.024 A 
HETATM   24 CL   UNL     1     -38.877  63.451 -62.189  1.00  0.00    -0.084 Cl
HETATM   25  C   UNL     1     -40.279  62.431 -58.591  1.00  0.00     0.002 A 
HETATM   26  C   UNL     1     -41.479  61.786 -58.905  1.00  0.00     0.009 A 
ENDBRANCH  19  20
ENDBRANCH  18  19
ENDBRANCH  15  18
ENDBRANCH  11  12
ENDBRANCH   7  10
ENDBRANCH   1   6
BRANCH   5  27
HETATM   27  C   UNL     1     -41.981  53.658 -52.444  1.00  0.00     0.296 C 
BRANCH  27  28
HETATM   28  N   UNL     1     -41.360  54.167 -51.148  1.00  0.00    -0.066 N 
HETATM   29  H   UNL     1     -40.425  54.488 -51.429  1.00  0.00     0.280 HD
HETATM   30  C   UNL     1     -42.053  55.379 -50.559  1.00  0.00     0.235 C 
HETATM   31  C   UNL     1     -41.226  55.934 -49.408  1.00  0.00     0.028 C 
HETATM   32  C   UNL     1     -40.943  54.871 -48.354  1.00  0.00     0.003 C 
HETATM   33  C   UNL     1     -40.290  53.644 -48.977  1.00  0.00     0.028 C 
HETATM   34  C   UNL     1     -41.121  53.085 -50.123  1.00  0.00     0.235 C 
ENDBRANCH  27  28
ENDBRANCH   5  27
BRANCH   4  35
HETATM   35  C   UNL     1     -39.884  51.403 -53.284  1.00  0.00     0.225 A 
HETATM   36  N   UNL     1     -39.499  51.444 -52.007  1.00  0.00    -0.081 NA
HETATM   37  O   UNL     1     -39.254  50.109 -51.685  1.00  0.00    -0.103 OA
HETATM   38  N   UNL     1     -39.535  49.277 -52.759  1.00  0.00    -0.083 NA
HETATM   39  C   UNL     1     -39.916  50.079 -53.752  1.00  0.00     0.201 A 
BRANCH  39  40
HETATM   40  N   UNL     1     -40.296  49.652 -54.968  1.00  0.00    -0.379 N 
HETATM   41  H   UNL     1     -40.013  50.170 -55.796  1.00  0.00     0.158 HD
HETATM   42  H   UNL     1     -41.100  49.043 -55.113  1.00  0.00     0.158 HD
ENDBRANCH  39  40
ENDBRANCH   4  35
TORSDOF 10
ENDMDL
