MODEL 1
REMARK VINA RESULT:      -7.6      0.000      0.000
REMARK  8 active torsions:
REMARK  status: ('A' for Active; 'I' for Inactive)
REMARK    1  A    between atoms: C_2  and  C_3 
REMARK    2  A    between atoms: C_3  and  N_4 
REMARK    3  A    between atoms: C_7  and  C_8 
REMARK       I    between atoms: C_8  and  N_9 
REMARK    4  A    between atoms: N_9  and  C_10 
REMARK    5  A    between atoms: C_13  and  O_14 
REMARK    6  A    between atoms: O_14  and  C_15 
REMARK    7  A    between atoms: C_15  and  C_16 
REMARK       I    between atoms: C_16  and  N_17 
REMARK    8  A    between atoms: C_23  and  C_24 
ROOT
HETATM    1  C   UNL     1     -43.648  54.839 -50.977  1.00  0.00     0.259 C 
HETATM    2  N   UNL     1     -43.840  56.192 -51.158  1.00  0.00    -0.323 N 
HETATM    3  O   UNL     1     -44.359  54.299 -50.128  1.00  0.00    -0.267 OA
HETATM    4  H   UNL     1     -44.500  56.522 -50.464  1.00  0.00     0.169 HD
ENDROOT
BRANCH   2   5
HETATM    5  C   UNL     1     -43.305  57.172 -52.012  1.00  0.00     0.035 A 
HETATM    6  C   UNL     1     -43.993  57.841 -53.018  1.00  0.00     0.032 A 
HETATM    7  C   UNL     1     -43.309  58.695 -53.897  1.00  0.00     0.039 A 
HETATM    8  C   UNL     1     -41.940  58.929 -53.755  1.00  0.00     0.069 A 
HETATM    9  C   UNL     1     -41.277  58.365 -52.669  1.00  0.00     0.039 A 
HETATM   10  C   UNL     1     -41.955  57.491 -51.812  1.00  0.00     0.032 A 
BRANCH   8  11
HETATM   11  O   UNL     1     -41.379  59.699 -54.734  1.00  0.00    -0.342 OA
BRANCH  11  12
HETATM   12  C   UNL     1     -42.257  60.317 -55.672  1.00  0.00     0.278 C 
BRANCH  12  13
HETATM   13  C   UNL     1     -41.845  60.007 -57.110  1.00  0.00     0.241 C 
HETATM   14  N   UNL     1     -42.386  58.841 -57.610  1.00  0.00    -0.364 N 
HETATM   15  C   UNL     1     -41.962  58.274 -58.864  1.00  0.00     0.149 C 
HETATM   16  H   UNL     1     -43.018  58.319 -57.012  1.00  0.00     0.161 HD
HETATM   17  O   UNL     1     -41.021  60.687 -57.717  1.00  0.00    -0.271 OA
ENDBRANCH  12  13
ENDBRANCH  11  12
ENDBRANCH   8  11
ENDBRANCH   2   5
BRANCH   1  18
HETATM   18  C   UNL     1     -42.612  54.115 -51.684  1.00  0.00     0.076 A 
HETATM   19  C   UNL     1     -42.565  53.885 -53.080  1.00  0.00     0.158 A 
HETATM   20  N   UNL     1     -41.542  53.121 -53.451  1.00  0.00    -0.183 NA
HETATM   21  N   UNL     1     -40.851  52.930 -52.309  1.00  0.00    -0.268 N 
HETATM   22  C   UNL     1     -41.425  53.555 -51.217  1.00  0.00     0.052 A 
BRANCH  21  23
HETATM   23  C   UNL     1     -39.671  52.066 -52.324  1.00  0.00     0.106 C 
HETATM   24  C   UNL     1     -39.835  50.956 -51.281  1.00  0.00     0.034 C 
BRANCH  23  25
HETATM   25  C   UNL     1     -39.339  51.462 -53.705  1.00  0.00     0.022 C 
HETATM   26  C   UNL     1     -39.705  49.987 -53.807  1.00  0.00     0.007 C 
ENDBRANCH  23  25
ENDBRANCH  21  23
BRANCH  22  27
HETATM   27  C   UNL     1     -40.814  53.543 -49.811  1.00  0.00     0.038 A 
HETATM   28  C   UNL     1     -39.608  54.411 -49.532  1.00  0.00     0.011 A 
HETATM   29  C   UNL     1     -40.915  54.722 -48.878  1.00  0.00     0.011 A 
ENDBRANCH  22  27
ENDBRANCH   1  18
TORSDOF 8
ENDMDL
MODEL 2
REMARK VINA RESULT:      -7.2      3.230      5.279
REMARK  8 active torsions:
REMARK  status: ('A' for Active; 'I' for Inactive)
REMARK    1  A    between atoms: C_2  and  C_3 
REMARK    2  A    between atoms: C_3  and  N_4 
REMARK    3  A    between atoms: C_7  and  C_8 
REMARK       I    between atoms: C_8  and  N_9 
REMARK    4  A    between atoms: N_9  and  C_10 
REMARK    5  A    between atoms: C_13  and  O_14 
REMARK    6  A    between atoms: O_14  and  C_15 
REMARK    7  A    between atoms: C_15  and  C_16 
REMARK       I    between atoms: C_16  and  N_17 
REMARK    8  A    between atoms: C_23  and  C_24 
ROOT
HETATM    1  C   UNL     1     -43.319  54.962 -54.131  1.00  0.00     0.259 C 
HETATM    2  N   UNL     1     -43.692  56.288 -54.197  1.00  0.00    -0.323 N 
HETATM    3  O   UNL     1     -43.569  54.280 -55.126  1.00  0.00    -0.267 OA
HETATM    4  H   UNL     1     -44.205  56.440 -55.057  1.00  0.00     0.169 HD
ENDROOT
BRANCH   2   5
HETATM    5  C   UNL     1     -43.573  57.403 -53.349  1.00  0.00     0.035 A 
HETATM    6  C   UNL     1     -42.389  58.049 -53.012  1.00  0.00     0.032 A 
HETATM    7  C   UNL     1     -42.386  59.063 -52.041  1.00  0.00     0.039 A 
HETATM    8  C   UNL     1     -43.570  59.476 -51.428  1.00  0.00     0.069 A 
HETATM    9  C   UNL     1     -44.772  58.924 -51.859  1.00  0.00     0.039 A 
HETATM   10  C   UNL     1     -44.769  57.893 -52.806  1.00  0.00     0.032 A 
BRANCH   8  11
HETATM   11  O   UNL     1     -43.415  60.397 -50.431  1.00  0.00    -0.342 OA
BRANCH  11  12
HETATM   12  C   UNL     1     -44.519  61.255 -50.150  1.00  0.00     0.278 C 
BRANCH  12  13
HETATM   13  C   UNL     1     -45.178  60.897 -48.818  1.00  0.00     0.241 C 
HETATM   14  N   UNL     1     -44.645  61.559 -47.731  1.00  0.00    -0.364 N 
HETATM   15  C   UNL     1     -44.990  61.212 -46.377  1.00  0.00     0.149 C 
HETATM   16  H   UNL     1     -43.905  62.231 -47.905  1.00  0.00     0.161 HD
HETATM   17  O   UNL     1     -46.031  60.018 -48.725  1.00  0.00    -0.271 OA
ENDBRANCH  12  13
ENDBRANCH  11  12
ENDBRANCH   8  11
ENDBRANCH   2   5
BRANCH   1  18
HETATM   18  C   UNL     1     -42.747  54.390 -52.930  1.00  0.00     0.076 A 
HETATM   19  C   UNL     1     -43.435  54.151 -51.717  1.00  0.00     0.158 A 
HETATM   20  N   UNL     1     -42.646  53.692 -50.749  1.00  0.00    -0.183 NA
HETATM   21  N   UNL     1     -41.453  53.531 -51.355  1.00  0.00    -0.268 N 
HETATM   22  C   UNL     1     -41.470  53.888 -52.691  1.00  0.00     0.052 A 
BRANCH  21  23
HETATM   23  C   UNL     1     -40.303  53.091 -50.564  1.00  0.00     0.106 C 
HETATM   24  C   UNL     1     -40.257  53.875 -49.250  1.00  0.00     0.034 C 
BRANCH  23  25
HETATM   25  C   UNL     1     -40.263  51.574 -50.288  1.00  0.00     0.022 C 
HETATM   26  C   UNL     1     -39.556  50.792 -51.387  1.00  0.00     0.007 C 
ENDBRANCH  23  25
ENDBRANCH  21  23
BRANCH  22  27
HETATM   27  C   UNL     1     -40.262  53.751 -53.625  1.00  0.00     0.038 A 
HETATM   28  C   UNL     1     -40.213  52.587 -54.589  1.00  0.00     0.011 A 
HETATM   29  C   UNL     1     -40.362  53.979 -55.111  1.00  0.00     0.011 A 
ENDBRANCH  22  27
ENDBRANCH   1  18
TORSDOF 8
ENDMDL
MODEL 3
REMARK VINA RESULT:      -7.1      3.240      6.059
REMARK  8 active torsions:
REMARK  status: ('A' for Active; 'I' for Inactive)
REMARK    1  A    between atoms: C_2  and  C_3 
REMARK    2  A    between atoms: C_3  and  N_4 
REMARK    3  A    between atoms: C_7  and  C_8 
REMARK       I    between atoms: C_8  and  N_9 
REMARK    4  A    between atoms: N_9  and  C_10 
REMARK    5  A    between atoms: C_13  and  O_14 
REMARK    6  A    between atoms: O_14  and  C_15 
REMARK    7  A    between atoms: C_15  and  C_16 
REMARK       I    between atoms: C_16  and  N_17 
REMARK    8  A    between atoms: C_23  and  C_24 
ROOT
HETATM    1  C   UNL     1     -41.548  55.870 -51.096  1.00  0.00     0.259 C 
HETATM    2  N   UNL     1     -41.184  55.163 -52.222  1.00  0.00    -0.323 N 
HETATM    3  O   UNL     1     -40.908  55.625 -50.072  1.00  0.00    -0.267 OA
HETATM    4  H   UNL     1     -40.484  54.478 -51.964  1.00  0.00     0.169 HD
ENDROOT
BRANCH   2   5
HETATM    5  C   UNL     1     -41.593  55.144 -53.567  1.00  0.00     0.035 A 
HETATM    6  C   UNL     1     -41.357  56.143 -54.505  1.00  0.00     0.032 A 
HETATM    7  C   UNL     1     -41.942  56.071 -55.778  1.00  0.00     0.039 A 
HETATM    8  C   UNL     1     -42.731  54.981 -56.149  1.00  0.00     0.069 A 
HETATM    9  C   UNL     1     -42.859  53.919 -55.259  1.00  0.00     0.039 A 
HETATM   10  C   UNL     1     -42.299  54.006 -53.979  1.00  0.00     0.032 A 
BRANCH   8  11
HETATM   11  O   UNL     1     -43.321  55.083 -57.377  1.00  0.00    -0.342 OA
BRANCH  11  12
HETATM   12  C   UNL     1     -43.040  56.248 -58.149  1.00  0.00     0.278 C 
BRANCH  12  13
HETATM   13  C   UNL     1     -43.835  56.256 -59.454  1.00  0.00     0.241 C 
HETATM   14  N   UNL     1     -45.191  56.068 -59.287  1.00  0.00    -0.364 N 
HETATM   15  C   UNL     1     -46.078  55.844 -60.399  1.00  0.00     0.149 C 
HETATM   16  H   UNL     1     -45.541  55.975 -58.339  1.00  0.00     0.161 HD
HETATM   17  O   UNL     1     -43.289  56.319 -60.553  1.00  0.00    -0.271 OA
ENDBRANCH  12  13
ENDBRANCH  11  12
ENDBRANCH   8  11
ENDBRANCH   2   5
BRANCH   1  18
HETATM   18  C   UNL     1     -42.673  56.782 -51.100  1.00  0.00     0.076 A 
HETATM   19  C   UNL     1     -44.024  56.434 -50.856  1.00  0.00     0.158 A 
HETATM   20  N   UNL     1     -44.863  57.456 -51.002  1.00  0.00    -0.183 NA
HETATM   21  N   UNL     1     -44.052  58.506 -51.244  1.00  0.00    -0.268 N 
HETATM   22  C   UNL     1     -42.712  58.165 -51.260  1.00  0.00     0.052 A 
BRANCH  21  23
HETATM   23  C   UNL     1     -44.643  59.815 -51.522  1.00  0.00     0.106 C 
HETATM   24  C   UNL     1     -45.546  59.716 -52.756  1.00  0.00     0.034 C 
BRANCH  23  25
HETATM   25  C   UNL     1     -45.415  60.432 -50.338  1.00  0.00     0.022 C 
HETATM   26  C   UNL     1     -44.508  61.169 -49.361  1.00  0.00     0.007 C 
ENDBRANCH  23  25
ENDBRANCH  21  23
BRANCH  22  27
HETATM   27  C   UNL     1     -41.578  59.177 -51.457  1.00  0.00     0.038 A 
HETATM   28  C   UNL     1     -41.059  59.935 -50.256  1.00  0.00     0.011 A 
HETATM   29  C   UNL     1     -40.183  58.936 -50.940  1.00  0.00     0.011 A 
ENDBRANCH  22  27
ENDBRANCH   1  18
TORSDOF 8
ENDMDL
MODEL 4
REMARK VINA RESULT:      -7.1      2.737      4.004
REMARK  8 active torsions:
REMARK  status: ('A' for Active; 'I' for Inactive)
REMARK    1  A    between atoms: C_2  and  C_3 
REMARK    2  A    between atoms: C_3  and  N_4 
REMARK    3  A    between atoms: C_7  and  C_8 
REMARK       I    between atoms: C_8  and  N_9 
REMARK    4  A    between atoms: N_9  and  C_10 
REMARK    5  A    between atoms: C_13  and  O_14 
REMARK    6  A    between atoms: O_14  and  C_15 
REMARK    7  A    between atoms: C_15  and  C_16 
REMARK       I    between atoms: C_16  and  N_17 
REMARK    8  A    between atoms: C_23  and  C_24 
ROOT
HETATM    1  C   UNL     1     -44.672  57.424 -51.289  1.00  0.00     0.259 C 
HETATM    2  N   UNL     1     -44.888  57.855 -52.581  1.00  0.00    -0.323 N 
HETATM    3  O   UNL     1     -45.281  58.032 -50.407  1.00  0.00    -0.267 OA
HETATM    4  H   UNL     1     -45.466  58.686 -52.554  1.00  0.00     0.169 HD
ENDROOT
BRANCH   2   5
HETATM    5  C   UNL     1     -44.456  57.449 -53.855  1.00  0.00     0.035 A 
HETATM    6  C   UNL     1     -44.037  56.170 -54.205  1.00  0.00     0.032 A 
HETATM    7  C   UNL     1     -43.492  55.926 -55.475  1.00  0.00     0.039 A 
HETATM    8  C   UNL     1     -43.400  56.942 -56.427  1.00  0.00     0.069 A 
HETATM    9  C   UNL     1     -43.940  58.188 -56.126  1.00  0.00     0.039 A 
HETATM   10  C   UNL     1     -44.456  58.438 -54.848  1.00  0.00     0.032 A 
BRANCH   8  11
HETATM   11  O   UNL     1     -42.760  56.597 -57.584  1.00  0.00    -0.342 OA
BRANCH  11  12
HETATM   12  C   UNL     1     -43.255  55.468 -58.300  1.00  0.00     0.278 C 
BRANCH  12  13
HETATM   13  C   UNL     1     -44.101  55.895 -59.499  1.00  0.00     0.241 C 
HETATM   14  N   UNL     1     -45.459  55.899 -59.256  1.00  0.00    -0.364 N 
HETATM   15  C   UNL     1     -46.427  56.075 -60.307  1.00  0.00     0.149 C 
HETATM   16  H   UNL     1     -45.771  55.656 -58.321  1.00  0.00     0.161 HD
HETATM   17  O   UNL     1     -43.610  56.110 -60.604  1.00  0.00    -0.271 OA
ENDBRANCH  12  13
ENDBRANCH  11  12
ENDBRANCH   8  11
ENDBRANCH   2   5
BRANCH   1  18
HETATM   18  C   UNL     1     -43.720  56.376 -50.984  1.00  0.00     0.076 A 
HETATM   19  C   UNL     1     -44.035  55.023 -50.716  1.00  0.00     0.158 A 
HETATM   20  N   UNL     1     -42.973  54.293 -50.386  1.00  0.00    -0.183 NA
HETATM   21  N   UNL     1     -41.938  55.145 -50.536  1.00  0.00    -0.268 N 
HETATM   22  C   UNL     1     -42.329  56.406 -50.949  1.00  0.00     0.052 A 
BRANCH  21  23
HETATM   23  C   UNL     1     -40.588  54.696 -50.194  1.00  0.00     0.106 C 
HETATM   24  C   UNL     1     -40.525  54.360 -48.701  1.00  0.00     0.034 C 
BRANCH  23  25
HETATM   25  C   UNL     1     -40.078  53.508 -51.035  1.00  0.00     0.022 C 
HETATM   26  C   UNL     1     -40.404  53.650 -52.516  1.00  0.00     0.007 C 
ENDBRANCH  23  25
ENDBRANCH  21  23
BRANCH  22  27
HETATM   27  C   UNL     1     -41.348  57.545 -51.247  1.00  0.00     0.038 A 
HETATM   28  C   UNL     1     -40.979  57.834 -52.685  1.00  0.00     0.011 A 
HETATM   29  C   UNL     1     -41.779  58.828 -51.909  1.00  0.00     0.011 A 
ENDBRANCH  22  27
ENDBRANCH   1  18
TORSDOF 8
ENDMDL
MODEL 5
REMARK VINA RESULT:      -7.0      4.146      6.957
REMARK  8 active torsions:
REMARK  status: ('A' for Active; 'I' for Inactive)
REMARK    1  A    between atoms: C_2  and  C_3 
REMARK    2  A    between atoms: C_3  and  N_4 
REMARK    3  A    between atoms: C_7  and  C_8 
REMARK       I    between atoms: C_8  and  N_9 
REMARK    4  A    between atoms: N_9  and  C_10 
REMARK    5  A    between atoms: C_13  and  O_14 
REMARK    6  A    between atoms: O_14  and  C_15 
REMARK    7  A    between atoms: C_15  and  C_16 
REMARK       I    between atoms: C_16  and  N_17 
REMARK    8  A    between atoms: C_23  and  C_24 
ROOT
HETATM    1  C   UNL     1     -41.225  59.173 -52.546  1.00  0.00     0.259 C 
HETATM    2  N   UNL     1     -42.121  60.160 -52.192  1.00  0.00    -0.323 N 
HETATM    3  O   UNL     1     -40.401  59.475 -53.410  1.00  0.00    -0.267 OA
HETATM    4  H   UNL     1     -41.985  60.957 -52.802  1.00  0.00     0.169 HD
ENDROOT
BRANCH   2   5
HETATM    5  C   UNL     1     -43.168  60.272 -51.261  1.00  0.00     0.035 A 
HETATM    6  C   UNL     1     -44.333  59.514 -51.247  1.00  0.00     0.032 A 
HETATM    7  C   UNL     1     -45.368  59.821 -50.350  1.00  0.00     0.039 A 
HETATM    8  C   UNL     1     -45.235  60.857 -49.424  1.00  0.00     0.069 A 
HETATM    9  C   UNL     1     -44.019  61.529 -49.346  1.00  0.00     0.039 A 
HETATM   10  C   UNL     1     -43.000  61.241 -50.262  1.00  0.00     0.032 A 
BRANCH   8  11
HETATM   11  O   UNL     1     -46.350  61.115 -48.678  1.00  0.00    -0.342 OA
BRANCH  11  12
HETATM   12  C   UNL     1     -46.162  61.693 -47.389  1.00  0.00     0.278 C 
BRANCH  12  13
HETATM   13  C   UNL     1     -45.825  60.629 -46.345  1.00  0.00     0.241 C 
HETATM   14  N   UNL     1     -46.776  59.637 -46.228  1.00  0.00    -0.364 N 
HETATM   15  C   UNL     1     -46.742  58.662 -45.169  1.00  0.00     0.149 C 
HETATM   16  H   UNL     1     -47.578  59.677 -46.847  1.00  0.00     0.161 HD
HETATM   17  O   UNL     1     -44.846  60.720 -45.609  1.00  0.00    -0.271 OA
ENDBRANCH  12  13
ENDBRANCH  11  12
ENDBRANCH   8  11
ENDBRANCH   2   5
BRANCH   1  18
HETATM   18  C   UNL     1     -41.305  57.837 -51.993  1.00  0.00     0.076 A 
HETATM   19  C   UNL     1     -40.830  57.436 -50.722  1.00  0.00     0.158 A 
HETATM   20  N   UNL     1     -40.960  56.131 -50.501  1.00  0.00    -0.183 NA
HETATM   21  N   UNL     1     -41.617  55.684 -51.591  1.00  0.00    -0.268 N 
HETATM   22  C   UNL     1     -41.899  56.685 -52.503  1.00  0.00     0.052 A 
BRANCH  21  23
HETATM   23  C   UNL     1     -41.884  54.252 -51.727  1.00  0.00     0.106 C 
HETATM   24  C   UNL     1     -41.013  53.473 -50.737  1.00  0.00     0.034 C 
BRANCH  23  25
HETATM   25  C   UNL     1     -43.367  53.862 -51.562  1.00  0.00     0.022 C 
HETATM   26  C   UNL     1     -44.044  54.586 -50.406  1.00  0.00     0.007 C 
ENDBRANCH  23  25
ENDBRANCH  21  23
BRANCH  22  27
HETATM   27  C   UNL     1     -42.685  56.459 -53.799  1.00  0.00     0.038 A 
HETATM   28  C   UNL     1     -44.173  56.725 -53.807  1.00  0.00     0.011 A 
HETATM   29  C   UNL     1     -43.258  57.597 -54.604  1.00  0.00     0.011 A 
ENDBRANCH  22  27
ENDBRANCH   1  18
TORSDOF 8
ENDMDL
MODEL 6
REMARK VINA RESULT:      -6.9      1.862      2.164
REMARK  8 active torsions:
REMARK  status: ('A' for Active; 'I' for Inactive)
REMARK    1  A    between atoms: C_2  and  C_3 
REMARK    2  A    between atoms: C_3  and  N_4 
REMARK    3  A    between atoms: C_7  and  C_8 
REMARK       I    between atoms: C_8  and  N_9 
REMARK    4  A    between atoms: N_9  and  C_10 
REMARK    5  A    between atoms: C_13  and  O_14 
REMARK    6  A    between atoms: O_14  and  C_15 
REMARK    7  A    between atoms: C_15  and  C_16 
REMARK       I    between atoms: C_16  and  N_17 
REMARK    8  A    between atoms: C_23  and  C_24 
ROOT
HETATM    1  C   UNL     1     -43.707  54.827 -50.852  1.00  0.00     0.259 C 
HETATM    2  N   UNL     1     -43.847  56.199 -50.870  1.00  0.00    -0.323 N 
HETATM    3  O   UNL     1     -44.457  54.217 -50.089  1.00  0.00    -0.267 OA
HETATM    4  H   UNL     1     -44.511  56.468 -50.154  1.00  0.00     0.169 HD
ENDROOT
BRANCH   2   5
HETATM    5  C   UNL     1     -43.257  57.255 -51.587  1.00  0.00     0.035 A 
HETATM    6  C   UNL     1     -42.126  57.967 -51.206  1.00  0.00     0.032 A 
HETATM    7  C   UNL     1     -41.719  59.095 -51.936  1.00  0.00     0.039 A 
HETATM    8  C   UNL     1     -42.407  59.498 -53.081  1.00  0.00     0.069 A 
HETATM    9  C   UNL     1     -43.458  58.710 -53.539  1.00  0.00     0.039 A 
HETATM   10  C   UNL     1     -43.881  57.603 -52.793  1.00  0.00     0.032 A 
BRANCH   8  11
HETATM   11  O   UNL     1     -41.970  60.666 -53.639  1.00  0.00    -0.342 OA
BRANCH  11  12
HETATM   12  C   UNL     1     -42.852  61.785 -53.603  1.00  0.00     0.278 C 
BRANCH  12  13
HETATM   13  C   UNL     1     -43.322  62.170 -55.005  1.00  0.00     0.241 C 
HETATM   14  N   UNL     1     -42.898  63.415 -55.418  1.00  0.00    -0.364 N 
HETATM   15  C   UNL     1     -43.398  64.038 -56.616  1.00  0.00     0.149 C 
HETATM   16  H   UNL     1     -42.301  63.942 -54.789  1.00  0.00     0.161 HD
HETATM   17  O   UNL     1     -44.097  61.468 -55.651  1.00  0.00    -0.271 OA
ENDBRANCH  12  13
ENDBRANCH  11  12
ENDBRANCH   8  11
ENDBRANCH   2   5
BRANCH   1  18
HETATM   18  C   UNL     1     -42.680  54.156 -51.622  1.00  0.00     0.076 A 
HETATM   19  C   UNL     1     -42.672  53.992 -53.028  1.00  0.00     0.158 A 
HETATM   20  N   UNL     1     -41.647  53.265 -53.465  1.00  0.00    -0.183 NA
HETATM   21  N   UNL     1     -40.921  53.032 -52.353  1.00  0.00    -0.268 N 
HETATM   22  C   UNL     1     -41.472  53.595 -51.216  1.00  0.00     0.052 A 
BRANCH  21  23
HETATM   23  C   UNL     1     -39.727  52.191 -52.443  1.00  0.00     0.106 C 
HETATM   24  C   UNL     1     -39.808  51.075 -51.397  1.00  0.00     0.034 C 
BRANCH  23  25
HETATM   25  C   UNL     1     -39.468  51.598 -53.843  1.00  0.00     0.022 C 
HETATM   26  C   UNL     1     -39.823  50.120 -53.934  1.00  0.00     0.007 C 
ENDBRANCH  23  25
ENDBRANCH  21  23
BRANCH  22  27
HETATM   27  C   UNL     1     -40.819  53.529 -49.831  1.00  0.00     0.038 A 
HETATM   28  C   UNL     1     -39.611  54.393 -49.550  1.00  0.00     0.011 A 
HETATM   29  C   UNL     1     -40.899  54.666 -48.846  1.00  0.00     0.011 A 
ENDBRANCH  22  27
ENDBRANCH   1  18
TORSDOF 8
ENDMDL
MODEL 7
REMARK VINA RESULT:      -6.9      1.495      2.805
REMARK  8 active torsions:
REMARK  status: ('A' for Active; 'I' for Inactive)
REMARK    1  A    between atoms: C_2  and  C_3 
REMARK    2  A    between atoms: C_3  and  N_4 
REMARK    3  A    between atoms: C_7  and  C_8 
REMARK       I    between atoms: C_8  and  N_9 
REMARK    4  A    between atoms: N_9  and  C_10 
REMARK    5  A    between atoms: C_13  and  O_14 
REMARK    6  A    between atoms: O_14  and  C_15 
REMARK    7  A    between atoms: C_15  and  C_16 
REMARK       I    between atoms: C_16  and  N_17 
REMARK    8  A    between atoms: C_23  and  C_24 
ROOT
HETATM    1  C   UNL     1     -43.607  55.335 -50.950  1.00  0.00     0.259 C 
HETATM    2  N   UNL     1     -43.792  56.675 -51.219  1.00  0.00    -0.323 N 
HETATM    3  O   UNL     1     -44.287  54.868 -50.035  1.00  0.00    -0.267 OA
HETATM    4  H   UNL     1     -44.417  57.063 -50.523  1.00  0.00     0.169 HD
ENDROOT
BRANCH   2   5
HETATM    5  C   UNL     1     -43.283  57.585 -52.161  1.00  0.00     0.035 A 
HETATM    6  C   UNL     1     -44.027  58.285 -53.103  1.00  0.00     0.032 A 
HETATM    7  C   UNL     1     -43.383  59.056 -54.084  1.00  0.00     0.039 A 
HETATM    8  C   UNL     1     -41.993  59.174 -54.110  1.00  0.00     0.069 A 
HETATM    9  C   UNL     1     -41.255  58.583 -53.090  1.00  0.00     0.039 A 
HETATM   10  C   UNL     1     -41.896  57.791 -52.130  1.00  0.00     0.032 A 
BRANCH   8  11
HETATM   11  O   UNL     1     -41.490  59.869 -55.173  1.00  0.00    -0.342 OA
BRANCH  11  12
HETATM   12  C   UNL     1     -42.184  59.768 -56.415  1.00  0.00     0.278 C 
BRANCH  12  13
HETATM   13  C   UNL     1     -41.858  60.946 -57.333  1.00  0.00     0.241 C 
HETATM   14  N   UNL     1     -42.289  62.166 -56.855  1.00  0.00    -0.364 N 
HETATM   15  C   UNL     1     -42.257  63.360 -57.659  1.00  0.00     0.149 C 
HETATM   16  H   UNL     1     -42.743  62.184 -55.948  1.00  0.00     0.161 HD
HETATM   17  O   UNL     1     -41.353  60.792 -58.442  1.00  0.00    -0.271 OA
ENDBRANCH  12  13
ENDBRANCH  11  12
ENDBRANCH   8  11
ENDBRANCH   2   5
BRANCH   1  18
HETATM   18  C   UNL     1     -42.610  54.549 -51.645  1.00  0.00     0.076 A 
HETATM   19  C   UNL     1     -41.470  53.948 -51.059  1.00  0.00     0.158 A 
HETATM   20  N   UNL     1     -40.678  53.351 -51.945  1.00  0.00    -0.183 NA
HETATM   21  N   UNL     1     -41.349  53.470 -53.108  1.00  0.00    -0.268 N 
HETATM   22  C   UNL     1     -42.552  54.140 -52.975  1.00  0.00     0.052 A 
BRANCH  21  23
HETATM   23  C   UNL     1     -40.737  52.971 -54.340  1.00  0.00     0.106 C 
HETATM   24  C   UNL     1     -39.938  54.096 -55.005  1.00  0.00     0.034 C 
BRANCH  23  25
HETATM   25  C   UNL     1     -39.853  51.721 -54.153  1.00  0.00     0.022 C 
HETATM   26  C   UNL     1     -40.616  50.420 -54.370  1.00  0.00     0.007 C 
ENDBRANCH  23  25
ENDBRANCH  21  23
BRANCH  22  27
HETATM   27  C   UNL     1     -43.534  54.363 -54.130  1.00  0.00     0.038 A 
HETATM   28  C   UNL     1     -43.253  55.465 -55.126  1.00  0.00     0.011 A 
HETATM   29  C   UNL     1     -43.186  54.037 -55.560  1.00  0.00     0.011 A 
ENDBRANCH  22  27
ENDBRANCH   1  18
TORSDOF 8
ENDMDL
MODEL 8
REMARK VINA RESULT:      -6.8      2.638      7.325
REMARK  8 active torsions:
REMARK  status: ('A' for Active; 'I' for Inactive)
REMARK    1  A    between atoms: C_2  and  C_3 
REMARK    2  A    between atoms: C_3  and  N_4 
REMARK    3  A    between atoms: C_7  and  C_8 
REMARK       I    between atoms: C_8  and  N_9 
REMARK    4  A    between atoms: N_9  and  C_10 
REMARK    5  A    between atoms: C_13  and  O_14 
REMARK    6  A    between atoms: O_14  and  C_15 
REMARK    7  A    between atoms: C_15  and  C_16 
REMARK       I    between atoms: C_16  and  N_17 
REMARK    8  A    between atoms: C_23  and  C_24 
ROOT
HETATM    1  C   UNL     1     -44.655  57.507 -51.341  1.00  0.00     0.259 C 
HETATM    2  N   UNL     1     -44.019  56.471 -50.692  1.00  0.00    -0.323 N 
HETATM    3  O   UNL     1     -45.599  58.024 -50.742  1.00  0.00    -0.267 OA
HETATM    4  H   UNL     1     -44.527  56.259 -49.841  1.00  0.00     0.169 HD
ENDROOT
BRANCH   2   5
HETATM    5  C   UNL     1     -42.914  55.647 -50.966  1.00  0.00     0.035 A 
HETATM    6  C   UNL     1     -42.863  54.645 -51.929  1.00  0.00     0.032 A 
HETATM    7  C   UNL     1     -41.749  53.795 -52.009  1.00  0.00     0.039 A 
HETATM    8  C   UNL     1     -40.653  53.962 -51.161  1.00  0.00     0.069 A 
HETATM    9  C   UNL     1     -40.646  55.045 -50.287  1.00  0.00     0.039 A 
HETATM   10  C   UNL     1     -41.770  55.873 -50.189  1.00  0.00     0.032 A 
BRANCH   8  11
HETATM   11  O   UNL     1     -39.682  53.008 -51.274  1.00  0.00    -0.342 OA
BRANCH  11  12
HETATM   12  C   UNL     1     -39.959  51.717 -50.736  1.00  0.00     0.278 C 
BRANCH  12  13
HETATM   13  C   UNL     1     -39.629  50.613 -51.740  1.00  0.00     0.241 C 
HETATM   14  N   UNL     1     -39.647  51.025 -53.056  1.00  0.00    -0.364 N 
HETATM   15  C   UNL     1     -39.562  50.097 -54.153  1.00  0.00     0.149 C 
HETATM   16  H   UNL     1     -39.841  52.004 -53.240  1.00  0.00     0.161 HD
HETATM   17  O   UNL     1     -39.470  49.443 -51.398  1.00  0.00    -0.271 OA
ENDBRANCH  12  13
ENDBRANCH  11  12
ENDBRANCH   8  11
ENDBRANCH   2   5
BRANCH   1  18
HETATM   18  C   UNL     1     -44.287  57.905 -52.684  1.00  0.00     0.076 A 
HETATM   19  C   UNL     1     -45.001  57.594 -53.866  1.00  0.00     0.158 A 
HETATM   20  N   UNL     1     -44.394  58.017 -54.972  1.00  0.00    -0.183 NA
HETATM   21  N   UNL     1     -43.326  58.698 -54.512  1.00  0.00    -0.268 N 
HETATM   22  C   UNL     1     -43.242  58.709 -53.131  1.00  0.00     0.052 A 
BRANCH  21  23
HETATM   23  C   UNL     1     -42.374  59.264 -55.468  1.00  0.00     0.106 C 
HETATM   24  C   UNL     1     -42.407  58.450 -56.765  1.00  0.00     0.034 C 
BRANCH  23  25
HETATM   25  C   UNL     1     -42.585  60.763 -55.768  1.00  0.00     0.022 C 
HETATM   26  C   UNL     1     -43.147  61.013 -57.162  1.00  0.00     0.007 C 
ENDBRANCH  23  25
ENDBRANCH  21  23
BRANCH  22  27
HETATM   27  C   UNL     1     -42.156  59.458 -52.351  1.00  0.00     0.038 A 
HETATM   28  C   UNL     1     -42.503  60.778 -51.701  1.00  0.00     0.011 A 
HETATM   29  C   UNL     1     -42.189  59.592 -50.850  1.00  0.00     0.011 A 
ENDBRANCH  22  27
ENDBRANCH   1  18
TORSDOF 8
ENDMDL
MODEL 9
REMARK VINA RESULT:      -6.7     15.258     17.696
REMARK  8 active torsions:
REMARK  status: ('A' for Active; 'I' for Inactive)
REMARK    1  A    between atoms: C_2  and  C_3 
REMARK    2  A    between atoms: C_3  and  N_4 
REMARK    3  A    between atoms: C_7  and  C_8 
REMARK       I    between atoms: C_8  and  N_9 
REMARK    4  A    between atoms: N_9  and  C_10 
REMARK    5  A    between atoms: C_13  and  O_14 
REMARK    6  A    between atoms: O_14  and  C_15 
REMARK    7  A    between atoms: C_15  and  C_16 
REMARK       I    between atoms: C_16  and  N_17 
REMARK    8  A    between atoms: C_23  and  C_24 
ROOT
HETATM    1  C   UNL     1     -35.809  42.149 -54.069  1.00  0.00     0.259 C 
HETATM    2  N   UNL     1     -36.763  42.408 -55.030  1.00  0.00    -0.323 N 
HETATM    3  O   UNL     1     -35.743  42.955 -53.141  1.00  0.00    -0.267 OA
HETATM    4  H   UNL     1     -37.192  43.304 -54.830  1.00  0.00     0.169 HD
ENDROOT
BRANCH   2   5
HETATM    5  C   UNL     1     -37.206  41.764 -56.199  1.00  0.00     0.035 A 
HETATM    6  C   UNL     1     -38.126  40.724 -56.258  1.00  0.00     0.032 A 
HETATM    7  C   UNL     1     -38.378  40.068 -57.473  1.00  0.00     0.039 A 
HETATM    8  C   UNL     1     -37.750  40.471 -58.652  1.00  0.00     0.069 A 
HETATM    9  C   UNL     1     -36.931  41.596 -58.620  1.00  0.00     0.039 A 
HETATM   10  C   UNL     1     -36.658  42.229 -57.402  1.00  0.00     0.032 A 
BRANCH   8  11
HETATM   11  O   UNL     1     -38.005  39.688 -59.742  1.00  0.00    -0.342 OA
BRANCH  11  12
HETATM   12  C   UNL     1     -37.384  40.049 -60.974  1.00  0.00     0.278 C 
BRANCH  12  13
HETATM   13  C   UNL     1     -36.956  38.813 -61.765  1.00  0.00     0.241 C 
HETATM   14  N   UNL     1     -37.128  38.932 -63.128  1.00  0.00    -0.364 N 
HETATM   15  C   UNL     1     -36.976  37.813 -64.021  1.00  0.00     0.149 C 
HETATM   16  H   UNL     1     -37.484  39.813 -63.483  1.00  0.00     0.161 HD
HETATM   17  O   UNL     1     -36.594  37.776 -61.215  1.00  0.00    -0.271 OA
ENDBRANCH  12  13
ENDBRANCH  11  12
ENDBRANCH   8  11
ENDBRANCH   2   5
BRANCH   1  18
HETATM   18  C   UNL     1     -34.885  41.041 -54.193  1.00  0.00     0.076 A 
HETATM   19  C   UNL     1     -33.801  40.961 -55.100  1.00  0.00     0.158 A 
HETATM   20  N   UNL     1     -33.164  39.795 -55.055  1.00  0.00    -0.183 NA
HETATM   21  N   UNL     1     -33.765  39.139 -54.042  1.00  0.00    -0.268 N 
HETATM   22  C   UNL     1     -34.779  39.868 -53.448  1.00  0.00     0.052 A 
BRANCH  21  23
HETATM   23  C   UNL     1     -33.357  37.767 -53.737  1.00  0.00     0.106 C 
HETATM   24  C   UNL     1     -33.386  36.929 -55.019  1.00  0.00     0.034 C 
BRANCH  23  25
HETATM   25  C   UNL     1     -31.982  37.649 -53.048  1.00  0.00     0.022 C 
HETATM   26  C   UNL     1     -31.878  38.497 -51.787  1.00  0.00     0.007 C 
ENDBRANCH  23  25
ENDBRANCH  21  23
BRANCH  22  27
HETATM   27  C   UNL     1     -35.585  39.378 -52.240  1.00  0.00     0.038 A 
HETATM   28  C   UNL     1     -35.236  39.905 -50.867  1.00  0.00     0.011 A 
HETATM   29  C   UNL     1     -36.542  40.272 -51.493  1.00  0.00     0.011 A 
ENDBRANCH  22  27
ENDBRANCH   1  18
TORSDOF 8
ENDMDL
MODEL 10
REMARK VINA RESULT:      -6.6      4.237      7.048
REMARK  8 active torsions:
REMARK  status: ('A' for Active; 'I' for Inactive)
REMARK    1  A    between atoms: C_2  and  C_3 
REMARK    2  A    between atoms: C_3  and  N_4 
REMARK    3  A    between atoms: C_7  and  C_8 
REMARK       I    between atoms: C_8  and  N_9 
REMARK    4  A    between atoms: N_9  and  C_10 
REMARK    5  A    between atoms: C_13  and  O_14 
REMARK    6  A    between atoms: O_14  and  C_15 
REMARK    7  A    between atoms: C_15  and  C_16 
REMARK       I    between atoms: C_16  and  N_17 
REMARK    8  A    between atoms: C_23  and  C_24 
ROOT
HETATM    1  C   UNL     1     -42.013  59.556 -53.423  1.00  0.00     0.259 C 
HETATM    2  N   UNL     1     -42.540  60.742 -52.956  1.00  0.00    -0.323 N 
HETATM    3  O   UNL     1     -41.284  59.641 -54.412  1.00  0.00    -0.267 OA
HETATM    4  H   UNL     1     -42.288  61.485 -53.596  1.00  0.00     0.169 HD
ENDROOT
BRANCH   2   5
HETATM    5  C   UNL     1     -43.357  61.115 -51.874  1.00  0.00     0.035 A 
HETATM    6  C   UNL     1     -42.980  61.926 -50.810  1.00  0.00     0.032 A 
HETATM    7  C   UNL     1     -43.843  62.108 -49.718  1.00  0.00     0.039 A 
HETATM    8  C   UNL     1     -45.109  61.522 -49.694  1.00  0.00     0.069 A 
HETATM    9  C   UNL     1     -45.539  60.820 -50.816  1.00  0.00     0.039 A 
HETATM   10  C   UNL     1     -44.666  60.615 -51.891  1.00  0.00     0.032 A 
BRANCH   8  11
HETATM   11  O   UNL     1     -45.807  61.694 -48.533  1.00  0.00    -0.342 OA
BRANCH  11  12
HETATM   12  C   UNL     1     -45.280  61.094 -47.352  1.00  0.00     0.278 C 
BRANCH  12  13
HETATM   13  C   UNL     1     -46.393  60.525 -46.472  1.00  0.00     0.241 C 
HETATM   14  N   UNL     1     -46.058  59.349 -45.834  1.00  0.00    -0.364 N 
HETATM   15  C   UNL     1     -47.030  58.556 -45.127  1.00  0.00     0.149 C 
HETATM   16  H   UNL     1     -45.120  58.988 -45.973  1.00  0.00     0.161 HD
HETATM   17  O   UNL     1     -47.515  61.024 -46.430  1.00  0.00    -0.271 OA
ENDBRANCH  12  13
ENDBRANCH  11  12
ENDBRANCH   8  11
ENDBRANCH   2   5
BRANCH   1  18
HETATM   18  C   UNL     1     -42.368  58.281 -52.836  1.00  0.00     0.076 A 
HETATM   19  C   UNL     1     -43.310  57.362 -53.356  1.00  0.00     0.158 A 
HETATM   20  N   UNL     1     -43.500  56.305 -52.571  1.00  0.00    -0.183 NA
HETATM   21  N   UNL     1     -42.604  56.477 -51.577  1.00  0.00    -0.268 N 
HETATM   22  C   UNL     1     -41.854  57.631 -51.717  1.00  0.00     0.052 A 
BRANCH  21  23
HETATM   23  C   UNL     1     -42.569  55.518 -50.473  1.00  0.00     0.106 C 
HETATM   24  C   UNL     1     -43.850  54.678 -50.485  1.00  0.00     0.034 C 
BRANCH  23  25
HETATM   25  C   UNL     1     -41.326  54.604 -50.461  1.00  0.00     0.022 C 
HETATM   26  C   UNL     1     -40.617  54.590 -49.113  1.00  0.00     0.007 C 
ENDBRANCH  23  25
ENDBRANCH  21  23
BRANCH  22  27
HETATM   27  C   UNL     1     -40.730  58.036 -50.757  1.00  0.00     0.038 A 
HETATM   28  C   UNL     1     -39.834  59.196 -51.129  1.00  0.00     0.011 A 
HETATM   29  C   UNL     1     -40.766  59.320 -49.968  1.00  0.00     0.011 A 
ENDBRANCH  22  27
ENDBRANCH   1  18
TORSDOF 8
ENDMDL
