MODEL 1
REMARK VINA RESULT:      -7.9      0.000      0.000
REMARK  3 active torsions:
REMARK  status: ('A' for Active; 'I' for Inactive)
REMARK    1  A    between atoms: C_7  and  C_8 
REMARK    2  A    between atoms: N_9  and  C_11 
REMARK    3  A    between atoms: C_11  and  C_12 
ROOT
HETATM    1  C   UNL     1     -43.061  56.323 -52.589  1.00  0.00     0.238 C 
HETATM    2  N   UNL     1     -42.318  57.646 -52.648  1.00  0.00    -0.056 N 
HETATM    3  H   UNL     1     -41.705  57.640 -51.827  1.00  0.00     0.281 HD
HETATM    4  C   UNL     1     -43.224  58.846 -52.493  1.00  0.00     0.236 C 
HETATM    5  C   UNL     1     -43.996  58.760 -51.190  1.00  0.00     0.028 C 
HETATM    6  C   UNL     1     -44.826  57.489 -51.148  1.00  0.00     0.004 C 
HETATM    7  C   UNL     1     -43.931  56.272 -51.316  1.00  0.00     0.040 C 
ENDROOT
BRANCH   2   8
HETATM    8  C   UNL     1     -41.372  57.799 -53.835  1.00  0.00     0.294 C 
BRANCH   8   9
HETATM    9  C   UNL     1     -41.967  58.406 -55.045  1.00  0.00     0.061 A 
HETATM   10  N   UNL     1     -42.476  57.707 -56.122  1.00  0.00    -0.305 N 
HETATM   11  C   UNL     1     -42.981  58.639 -56.993  1.00  0.00     0.151 A 
HETATM   12  C   UNL     1     -42.566  56.360 -56.435  1.00  0.00     0.118 A 
HETATM   13  C   UNL     1     -43.638  58.187 -58.190  1.00  0.00     0.167 A 
HETATM   14  N   UNL     1     -42.770  59.871 -56.596  1.00  0.00    -0.239 NA
HETATM   15  N   UNL     1     -43.751  56.914 -58.460  1.00  0.00    -0.268 NA
HETATM   16  C   UNL     1     -43.187  56.012 -57.577  1.00  0.00     0.134 A 
HETATM   17  C   UNL     1     -42.091  59.737 -55.417  1.00  0.00     0.146 A 
ENDBRANCH   8   9
ENDBRANCH   2   8
BRANCH   1  18
HETATM   18  C   UNL     1     -42.126  55.154 -52.560  1.00  0.00     0.041 A 
HETATM   19  N   UNL     1     -42.006  54.293 -53.632  1.00  0.00    -0.357 N 
HETATM   20  C   UNL     1     -41.118  53.284 -53.341  1.00  0.00     0.042 A 
HETATM   21  H   UNL     1     -42.500  54.358 -54.514  1.00  0.00     0.166 HD
HETATM   22  C   UNL     1     -40.679  53.480 -52.034  1.00  0.00    -0.008 A 
HETATM   23  C   UNL     1     -40.691  52.205 -54.124  1.00  0.00     0.030 A 
HETATM   24  C   UNL     1     -39.775  52.559 -51.472  1.00  0.00     0.014 A 
HETATM   25  C   UNL     1     -41.324  54.649 -51.550  1.00  0.00     0.040 A 
HETATM   26  C   UNL     1     -39.339  51.475 -52.241  1.00  0.00     0.001 A 
HETATM   27  C   UNL     1     -39.792  51.303 -53.548  1.00  0.00     0.002 A 
ENDBRANCH   1  18
TORSDOF 3
ENDMDL
MODEL 2
REMARK VINA RESULT:      -7.8      1.849      4.609
REMARK  3 active torsions:
REMARK  status: ('A' for Active; 'I' for Inactive)
REMARK    1  A    between atoms: C_7  and  C_8 
REMARK    2  A    between atoms: N_9  and  C_11 
REMARK    3  A    between atoms: C_11  and  C_12 
ROOT
HETATM    1  C   UNL     1     -42.131  56.247 -54.672  1.00  0.00     0.238 C 
HETATM    2  N   UNL     1     -43.550  56.447 -54.168  1.00  0.00    -0.056 N 
HETATM    3  H   UNL     1     -44.074  55.644 -54.530  1.00  0.00     0.281 HD
HETATM    4  C   UNL     1     -44.215  57.679 -54.738  1.00  0.00     0.236 C 
HETATM    5  C   UNL     1     -44.223  57.622 -56.255  1.00  0.00     0.028 C 
HETATM    6  C   UNL     1     -42.805  57.519 -56.788  1.00  0.00     0.004 C 
HETATM    7  C   UNL     1     -42.116  56.292 -56.213  1.00  0.00     0.040 C 
ENDROOT
BRANCH   2   8
HETATM    8  C   UNL     1     -43.711  56.365 -52.654  1.00  0.00     0.294 C 
BRANCH   8   9
HETATM    9  C   UNL     1     -43.659  57.658 -51.940  1.00  0.00     0.061 A 
HETATM   10  N   UNL     1     -42.513  58.257 -51.455  1.00  0.00    -0.305 N 
HETATM   11  C   UNL     1     -42.894  59.462 -50.919  1.00  0.00     0.151 A 
HETATM   12  C   UNL     1     -41.177  57.891 -51.430  1.00  0.00     0.118 A 
HETATM   13  C   UNL     1     -41.884  60.338 -50.390  1.00  0.00     0.167 A 
HETATM   14  N   UNL     1     -44.192  59.644 -50.957  1.00  0.00    -0.239 NA
HETATM   15  N   UNL     1     -40.622  60.002 -50.404  1.00  0.00    -0.268 NA
HETATM   16  C   UNL     1     -40.288  58.758 -50.911  1.00  0.00     0.134 A 
HETATM   17  C   UNL     1     -44.680  58.507 -51.535  1.00  0.00     0.146 A 
ENDBRANCH   8   9
ENDBRANCH   2   8
BRANCH   1  18
HETATM   18  C   UNL     1     -41.563  54.931 -54.239  1.00  0.00     0.041 A 
HETATM   19  N   UNL     1     -41.026  54.749 -52.981  1.00  0.00    -0.357 N 
HETATM   20  C   UNL     1     -40.536  53.471 -52.847  1.00  0.00     0.042 A 
HETATM   21  H   UNL     1     -40.972  55.443 -52.244  1.00  0.00     0.166 HD
HETATM   22  C   UNL     1     -40.731  52.821 -54.063  1.00  0.00    -0.008 A 
HETATM   23  C   UNL     1     -39.918  52.852 -51.754  1.00  0.00     0.030 A 
HETATM   24  C   UNL     1     -40.287  51.493 -54.206  1.00  0.00     0.014 A 
HETATM   25  C   UNL     1     -41.366  53.747 -54.933  1.00  0.00     0.040 A 
HETATM   26  C   UNL     1     -39.665  50.861 -53.124  1.00  0.00     0.001 A 
HETATM   27  C   UNL     1     -39.486  51.533 -51.917  1.00  0.00     0.002 A 
ENDBRANCH   1  18
TORSDOF 3
ENDMDL
MODEL 3
REMARK VINA RESULT:      -7.7      0.771      1.768
REMARK  3 active torsions:
REMARK  status: ('A' for Active; 'I' for Inactive)
REMARK    1  A    between atoms: C_7  and  C_8 
REMARK    2  A    between atoms: N_9  and  C_11 
REMARK    3  A    between atoms: C_11  and  C_12 
ROOT
HETATM    1  C   UNL     1     -43.058  56.061 -52.684  1.00  0.00     0.238 C 
HETATM    2  N   UNL     1     -42.353  57.379 -52.955  1.00  0.00    -0.056 N 
HETATM    3  H   UNL     1     -41.648  57.457 -52.215  1.00  0.00     0.281 HD
HETATM    4  C   UNL     1     -43.259  58.579 -52.807  1.00  0.00     0.236 C 
HETATM    5  C   UNL     1     -43.871  58.612 -51.419  1.00  0.00     0.028 C 
HETATM    6  C   UNL     1     -44.664  57.344 -51.160  1.00  0.00     0.004 C 
HETATM    7  C   UNL     1     -43.771  56.124 -51.318  1.00  0.00     0.040 C 
ENDROOT
BRANCH   2   8
HETATM    8  C   UNL     1     -41.557  57.425 -54.255  1.00  0.00     0.294 C 
BRANCH   8   9
HETATM    9  C   UNL     1     -42.364  57.542 -55.488  1.00  0.00     0.061 A 
HETATM   10  N   UNL     1     -42.540  58.700 -56.220  1.00  0.00    -0.305 N 
HETATM   11  C   UNL     1     -43.301  58.364 -57.313  1.00  0.00     0.151 A 
HETATM   12  C   UNL     1     -42.113  60.009 -56.063  1.00  0.00     0.118 A 
HETATM   13  C   UNL     1     -43.592  59.373 -58.294  1.00  0.00     0.167 A 
HETATM   14  N   UNL     1     -43.683  57.109 -57.296  1.00  0.00    -0.239 NA
HETATM   15  N   UNL     1     -43.155  60.596 -58.157  1.00  0.00    -0.268 NA
HETATM   16  C   UNL     1     -42.431  60.902 -57.018  1.00  0.00     0.134 A 
HETATM   17  C   UNL     1     -43.155  56.607 -56.140  1.00  0.00     0.146 A 
ENDBRANCH   8   9
ENDBRANCH   2   8
BRANCH   1  18
HETATM   18  C   UNL     1     -42.103  54.908 -52.657  1.00  0.00     0.041 A 
HETATM   19  N   UNL     1     -41.946  54.068 -53.741  1.00  0.00    -0.357 N 
HETATM   20  C   UNL     1     -41.046  53.070 -53.451  1.00  0.00     0.042 A 
HETATM   21  H   UNL     1     -42.424  54.141 -54.632  1.00  0.00     0.166 HD
HETATM   22  C   UNL     1     -40.636  53.250 -52.131  1.00  0.00    -0.008 A 
HETATM   23  C   UNL     1     -40.584  52.013 -54.244  1.00  0.00     0.030 A 
HETATM   24  C   UNL     1     -39.727  52.336 -51.568  1.00  0.00     0.014 A 
HETATM   25  C   UNL     1     -41.312  54.399 -51.640  1.00  0.00     0.040 A 
HETATM   26  C   UNL     1     -39.257  51.273 -52.347  1.00  0.00     0.001 A 
HETATM   27  C   UNL     1     -39.681  51.117 -53.665  1.00  0.00     0.002 A 
ENDBRANCH   1  18
TORSDOF 3
ENDMDL
MODEL 4
REMARK VINA RESULT:      -7.7      1.850      6.583
REMARK  3 active torsions:
REMARK  status: ('A' for Active; 'I' for Inactive)
REMARK    1  A    between atoms: C_7  and  C_8 
REMARK    2  A    between atoms: N_9  and  C_11 
REMARK    3  A    between atoms: C_11  and  C_12 
ROOT
HETATM    1  C   UNL     1     -42.526  56.554 -53.503  1.00  0.00     0.238 C 
HETATM    2  N   UNL     1     -42.187  55.222 -52.857  1.00  0.00    -0.056 N 
HETATM    3  H   UNL     1     -42.915  54.578 -53.183  1.00  0.00     0.281 HD
HETATM    4  C   UNL     1     -42.289  55.249 -51.349  1.00  0.00     0.236 C 
HETATM    5  C   UNL     1     -43.680  55.677 -50.921  1.00  0.00     0.028 C 
HETATM    6  C   UNL     1     -44.006  57.053 -51.476  1.00  0.00     0.004 C 
HETATM    7  C   UNL     1     -43.895  57.047 -52.992  1.00  0.00     0.040 C 
ENDROOT
BRANCH   2   8
HETATM    8  C   UNL     1     -40.878  54.595 -53.326  1.00  0.00     0.294 C 
BRANCH   8   9
HETATM    9  C   UNL     1     -40.418  53.429 -52.542  1.00  0.00     0.061 A 
HETATM   10  N   UNL     1     -40.271  52.146 -53.031  1.00  0.00    -0.305 N 
HETATM   11  C   UNL     1     -39.769  51.387 -52.003  1.00  0.00     0.151 A 
HETATM   12  C   UNL     1     -40.509  51.555 -54.262  1.00  0.00     0.118 A 
HETATM   13  C   UNL     1     -39.454  50.006 -52.248  1.00  0.00     0.167 A 
HETATM   14  N   UNL     1     -39.654  52.063 -50.885  1.00  0.00    -0.239 NA
HETATM   15  N   UNL     1     -39.647  49.466 -53.422  1.00  0.00    -0.268 NA
HETATM   16  C   UNL     1     -40.199  50.255 -54.415  1.00  0.00     0.134 A 
HETATM   17  C   UNL     1     -40.108  53.314 -51.195  1.00  0.00     0.146 A 
ENDBRANCH   8   9
ENDBRANCH   2   8
BRANCH   1  18
HETATM   18  C   UNL     1     -42.596  56.452 -54.995  1.00  0.00     0.041 A 
HETATM   19  N   UNL     1     -42.243  57.506 -55.814  1.00  0.00    -0.357 N 
HETATM   20  C   UNL     1     -42.434  57.175 -57.134  1.00  0.00     0.042 A 
HETATM   21  H   UNL     1     -41.904  58.413 -55.514  1.00  0.00     0.166 HD
HETATM   22  C   UNL     1     -42.958  55.885 -57.169  1.00  0.00    -0.008 A 
HETATM   23  C   UNL     1     -42.207  57.925 -58.295  1.00  0.00     0.030 A 
HETATM   24  C   UNL     1     -43.275  55.310 -58.413  1.00  0.00     0.014 A 
HETATM   25  C   UNL     1     -43.064  55.444 -55.823  1.00  0.00     0.040 A 
HETATM   26  C   UNL     1     -43.056  56.046 -59.582  1.00  0.00     0.001 A 
HETATM   27  C   UNL     1     -42.529  57.335 -59.520  1.00  0.00     0.002 A 
ENDBRANCH   1  18
TORSDOF 3
ENDMDL
MODEL 5
REMARK VINA RESULT:      -7.6      1.753      6.590
REMARK  3 active torsions:
REMARK  status: ('A' for Active; 'I' for Inactive)
REMARK    1  A    between atoms: C_7  and  C_8 
REMARK    2  A    between atoms: N_9  and  C_11 
REMARK    3  A    between atoms: C_11  and  C_12 
ROOT
HETATM    1  C   UNL     1     -41.695  57.077 -54.451  1.00  0.00     0.238 C 
HETATM    2  N   UNL     1     -42.430  56.478 -53.265  1.00  0.00    -0.056 N 
HETATM    3  H   UNL     1     -43.309  57.003 -53.208  1.00  0.00     0.281 HD
HETATM    4  C   UNL     1     -41.718  56.699 -51.950  1.00  0.00     0.236 C 
HETATM    5  C   UNL     1     -41.499  58.182 -51.710  1.00  0.00     0.028 C 
HETATM    6  C   UNL     1     -40.680  58.785 -52.838  1.00  0.00     0.004 C 
HETATM    7  C   UNL     1     -41.376  58.559 -54.171  1.00  0.00     0.040 C 
ENDROOT
BRANCH   2   8
HETATM    8  C   UNL     1     -42.858  55.025 -53.441  1.00  0.00     0.294 C 
BRANCH   8   9
HETATM    9  C   UNL     1     -41.754  54.054 -53.592  1.00  0.00     0.061 A 
HETATM   10  N   UNL     1     -41.162  53.351 -52.561  1.00  0.00    -0.305 N 
HETATM   11  C   UNL     1     -40.230  52.521 -53.134  1.00  0.00     0.151 A 
HETATM   12  C   UNL     1     -41.337  53.334 -51.187  1.00  0.00     0.118 A 
HETATM   13  C   UNL     1     -39.495  51.616 -52.292  1.00  0.00     0.167 A 
HETATM   14  N   UNL     1     -40.131  52.691 -54.430  1.00  0.00    -0.239 NA
HETATM   15  N   UNL     1     -39.693  51.580 -51.002  1.00  0.00    -0.268 NA
HETATM   16  C   UNL     1     -40.608  52.467 -50.462  1.00  0.00     0.134 A 
HETATM   17  C   UNL     1     -41.030  53.679 -54.715  1.00  0.00     0.146 A 
ENDBRANCH   8   9
ENDBRANCH   2   8
BRANCH   1  18
HETATM   18  C   UNL     1     -42.505  57.005 -55.708  1.00  0.00     0.041 A 
HETATM   19  N   UNL     1     -42.110  56.238 -56.785  1.00  0.00    -0.357 N 
HETATM   20  C   UNL     1     -42.999  56.375 -57.826  1.00  0.00     0.042 A 
HETATM   21  H   UNL     1     -41.280  55.659 -56.839  1.00  0.00     0.166 HD
HETATM   22  C   UNL     1     -43.977  57.281 -57.421  1.00  0.00    -0.008 A 
HETATM   23  C   UNL     1     -42.999  55.785 -59.095  1.00  0.00     0.030 A 
HETATM   24  C   UNL     1     -45.003  57.625 -58.321  1.00  0.00     0.014 A 
HETATM   25  C   UNL     1     -43.653  57.678 -56.097  1.00  0.00     0.040 A 
HETATM   26  C   UNL     1     -45.017  57.046 -59.594  1.00  0.00     0.001 A 
HETATM   27  C   UNL     1     -44.028  56.140 -59.973  1.00  0.00     0.002 A 
ENDBRANCH   1  18
TORSDOF 3
ENDMDL
MODEL 6
REMARK VINA RESULT:      -7.5      1.751      5.979
REMARK  3 active torsions:
REMARK  status: ('A' for Active; 'I' for Inactive)
REMARK    1  A    between atoms: C_7  and  C_8 
REMARK    2  A    between atoms: N_9  and  C_11 
REMARK    3  A    between atoms: C_11  and  C_12 
ROOT
HETATM    1  C   UNL     1     -42.104  54.079 -54.477  1.00  0.00     0.238 C 
HETATM    2  N   UNL     1     -42.186  54.692 -53.089  1.00  0.00    -0.056 N 
HETATM    3  H   UNL     1     -41.507  55.460 -53.101  1.00  0.00     0.281 HD
HETATM    4  C   UNL     1     -41.741  53.748 -51.995  1.00  0.00     0.236 C 
HETATM    5  C   UNL     1     -40.323  53.271 -52.253  1.00  0.00     0.028 C 
HETATM    6  C   UNL     1     -40.237  52.567 -53.596  1.00  0.00     0.004 C 
HETATM    7  C   UNL     1     -40.694  53.498 -54.707  1.00  0.00     0.040 C 
ENDROOT
BRANCH   2   8
HETATM    8  C   UNL     1     -43.517  55.357 -52.758  1.00  0.00     0.294 C 
BRANCH   8   9
HETATM    9  C   UNL     1     -43.490  56.834 -52.700  1.00  0.00     0.061 A 
HETATM   10  N   UNL     1     -42.628  57.587 -51.929  1.00  0.00    -0.305 N 
HETATM   11  C   UNL     1     -42.893  58.904 -52.212  1.00  0.00     0.151 A 
HETATM   12  C   UNL     1     -41.632  57.273 -51.018  1.00  0.00     0.118 A 
HETATM   13  C   UNL     1     -42.092  59.924 -51.591  1.00  0.00     0.167 A 
HETATM   14  N   UNL     1     -43.899  59.050 -53.041  1.00  0.00    -0.239 NA
HETATM   15  N   UNL     1     -41.130  59.617 -50.762  1.00  0.00    -0.268 NA
HETATM   16  C   UNL     1     -40.928  58.280 -50.470  1.00  0.00     0.134 A 
HETATM   17  C   UNL     1     -44.312  57.775 -53.304  1.00  0.00     0.146 A 
ENDBRANCH   8   9
ENDBRANCH   2   8
BRANCH   1  18
HETATM   18  C   UNL     1     -42.373  55.086 -55.552  1.00  0.00     0.041 A 
HETATM   19  N   UNL     1     -43.142  54.783 -56.656  1.00  0.00    -0.357 N 
HETATM   20  C   UNL     1     -43.203  55.858 -57.511  1.00  0.00     0.042 A 
HETATM   21  H   UNL     1     -43.597  53.897 -56.848  1.00  0.00     0.166 HD
HETATM   22  C   UNL     1     -42.424  56.873 -56.959  1.00  0.00    -0.008 A 
HETATM   23  C   UNL     1     -43.867  56.002 -58.735  1.00  0.00     0.030 A 
HETATM   24  C   UNL     1     -42.291  58.088 -57.656  1.00  0.00     0.014 A 
HETATM   25  C   UNL     1     -41.900  56.375 -55.736  1.00  0.00     0.040 A 
HETATM   26  C   UNL     1     -42.946  58.247 -58.882  1.00  0.00     0.001 A 
HETATM   27  C   UNL     1     -43.723  57.217 -59.411  1.00  0.00     0.002 A 
ENDBRANCH   1  18
TORSDOF 3
ENDMDL
MODEL 7
REMARK VINA RESULT:      -7.5      1.737      5.647
REMARK  3 active torsions:
REMARK  status: ('A' for Active; 'I' for Inactive)
REMARK    1  A    between atoms: C_7  and  C_8 
REMARK    2  A    between atoms: N_9  and  C_11 
REMARK    3  A    between atoms: C_11  and  C_12 
ROOT
HETATM    1  C   UNL     1     -42.080  53.953 -54.456  1.00  0.00     0.238 C 
HETATM    2  N   UNL     1     -42.154  54.550 -53.062  1.00  0.00    -0.056 N 
HETATM    3  H   UNL     1     -41.470  55.314 -53.065  1.00  0.00     0.281 HD
HETATM    4  C   UNL     1     -41.713  53.591 -51.980  1.00  0.00     0.236 C 
HETATM    5  C   UNL     1     -40.300  53.107 -52.245  1.00  0.00     0.028 C 
HETATM    6  C   UNL     1     -40.221  52.418 -53.597  1.00  0.00     0.004 C 
HETATM    7  C   UNL     1     -40.674  53.365 -54.696  1.00  0.00     0.040 C 
ENDROOT
BRANCH   2   8
HETATM    8  C   UNL     1     -43.481  55.220 -52.720  1.00  0.00     0.294 C 
BRANCH   8   9
HETATM    9  C   UNL     1     -43.392  56.649 -52.350  1.00  0.00     0.061 A 
HETATM   10  N   UNL     1     -43.982  57.690 -53.040  1.00  0.00    -0.305 N 
HETATM   11  C   UNL     1     -43.706  58.835 -52.335  1.00  0.00     0.151 A 
HETATM   12  C   UNL     1     -44.738  57.767 -54.198  1.00  0.00     0.118 A 
HETATM   13  C   UNL     1     -44.256  60.083 -52.793  1.00  0.00     0.167 A 
HETATM   14  N   UNL     1     -42.931  58.618 -51.299  1.00  0.00    -0.239 NA
HETATM   15  N   UNL     1     -44.998  60.141 -53.866  1.00  0.00    -0.268 NA
HETATM   16  C   UNL     1     -45.212  58.970 -54.571  1.00  0.00     0.134 A 
HETATM   17  C   UNL     1     -42.684  57.275 -51.334  1.00  0.00     0.146 A 
ENDBRANCH   8   9
ENDBRANCH   2   8
BRANCH   1  18
HETATM   18  C   UNL     1     -42.344  54.974 -55.519  1.00  0.00     0.041 A 
HETATM   19  N   UNL     1     -43.120  54.689 -56.624  1.00  0.00    -0.357 N 
HETATM   20  C   UNL     1     -43.175  55.775 -57.466  1.00  0.00     0.042 A 
HETATM   21  H   UNL     1     -43.582  53.810 -56.824  1.00  0.00     0.166 HD
HETATM   22  C   UNL     1     -42.385  56.777 -56.906  1.00  0.00    -0.008 A 
HETATM   23  C   UNL     1     -43.842  55.937 -58.687  1.00  0.00     0.030 A 
HETATM   24  C   UNL     1     -42.245  57.998 -57.590  1.00  0.00     0.014 A 
HETATM   25  C   UNL     1     -41.861  56.261 -55.691  1.00  0.00     0.040 A 
HETATM   26  C   UNL     1     -42.903  58.176 -58.812  1.00  0.00     0.001 A 
HETATM   27  C   UNL     1     -43.690  57.159 -59.349  1.00  0.00     0.002 A 
ENDBRANCH   1  18
TORSDOF 3
ENDMDL
MODEL 8
REMARK VINA RESULT:      -7.4      1.866      6.538
REMARK  3 active torsions:
REMARK  status: ('A' for Active; 'I' for Inactive)
REMARK    1  A    between atoms: C_7  and  C_8 
REMARK    2  A    between atoms: N_9  and  C_11 
REMARK    3  A    between atoms: C_11  and  C_12 
ROOT
HETATM    1  C   UNL     1     -43.064  57.140 -55.226  1.00  0.00     0.238 C 
HETATM    2  N   UNL     1     -42.752  55.663 -55.390  1.00  0.00    -0.056 N 
HETATM    3  H   UNL     1     -41.729  55.615 -55.450  1.00  0.00     0.281 HD
HETATM    4  C   UNL     1     -43.279  55.083 -56.683  1.00  0.00     0.236 C 
HETATM    5  C   UNL     1     -42.728  55.850 -57.871  1.00  0.00     0.028 C 
HETATM    6  C   UNL     1     -43.112  57.316 -57.779  1.00  0.00     0.004 C 
HETATM    7  C   UNL     1     -42.600  57.912 -56.477  1.00  0.00     0.040 C 
ENDROOT
BRANCH   2   8
HETATM    8  C   UNL     1     -43.110  54.792 -54.190  1.00  0.00     0.294 C 
BRANCH   8   9
HETATM    9  C   UNL     1     -41.998  53.993 -53.633  1.00  0.00     0.061 A 
HETATM   10  N   UNL     1     -41.415  54.191 -52.396  1.00  0.00    -0.305 N 
HETATM   11  C   UNL     1     -40.471  53.205 -52.244  1.00  0.00     0.151 A 
HETATM   12  C   UNL     1     -41.608  55.112 -51.380  1.00  0.00     0.118 A 
HETATM   13  C   UNL     1     -39.741  53.126 -51.008  1.00  0.00     0.167 A 
HETATM   14  N   UNL     1     -40.356  52.447 -53.308  1.00  0.00    -0.239 NA
HETATM   15  N   UNL     1     -39.956  53.977 -50.040  1.00  0.00    -0.268 NA
HETATM   16  C   UNL     1     -40.883  54.982 -50.255  1.00  0.00     0.134 A 
HETATM   17  C   UNL     1     -41.258  52.964 -54.195  1.00  0.00     0.146 A 
ENDBRANCH   8   9
ENDBRANCH   2   8
BRANCH   1  18
HETATM   18  C   UNL     1     -42.378  57.730 -54.033  1.00  0.00     0.041 A 
HETATM   19  N   UNL     1     -43.076  58.400 -53.050  1.00  0.00    -0.357 N 
HETATM   20  C   UNL     1     -42.216  58.880 -52.090  1.00  0.00     0.042 A 
HETATM   21  H   UNL     1     -44.078  58.550 -53.020  1.00  0.00     0.166 HD
HETATM   22  C   UNL     1     -40.923  58.538 -52.482  1.00  0.00    -0.008 A 
HETATM   23  C   UNL     1     -42.481  59.606 -50.923  1.00  0.00     0.030 A 
HETATM   24  C   UNL     1     -39.839  58.939 -51.681  1.00  0.00     0.014 A 
HETATM   25  C   UNL     1     -41.035  57.826 -53.706  1.00  0.00     0.040 A 
HETATM   26  C   UNL     1     -40.086  59.667 -50.512  1.00  0.00     0.001 A 
HETATM   27  C   UNL     1     -41.389  59.993 -50.141  1.00  0.00     0.002 A 
ENDBRANCH   1  18
TORSDOF 3
ENDMDL
MODEL 9
REMARK VINA RESULT:      -7.3      1.823      2.655
REMARK  3 active torsions:
REMARK  status: ('A' for Active; 'I' for Inactive)
REMARK    1  A    between atoms: C_7  and  C_8 
REMARK    2  A    between atoms: N_9  and  C_11 
REMARK    3  A    between atoms: C_11  and  C_12 
ROOT
HETATM    1  C   UNL     1     -43.159  58.402 -53.340  1.00  0.00     0.238 C 
HETATM    2  N   UNL     1     -43.194  59.357 -54.521  1.00  0.00    -0.056 N 
HETATM    3  H   UNL     1     -42.212  59.483 -54.786  1.00  0.00     0.281 HD
HETATM    4  C   UNL     1     -43.716  60.729 -54.160  1.00  0.00     0.236 C 
HETATM    5  C   UNL     1     -42.883  61.336 -53.046  1.00  0.00     0.028 C 
HETATM    6  C   UNL     1     -42.912  60.444 -51.817  1.00  0.00     0.004 C 
HETATM    7  C   UNL     1     -42.402  59.054 -52.165  1.00  0.00     0.040 C 
ENDROOT
BRANCH   2   8
HETATM    8  C   UNL     1     -43.866  58.805 -55.774  1.00  0.00     0.294 C 
BRANCH   8   9
HETATM    9  C   UNL     1     -43.069  58.904 -57.015  1.00  0.00     0.061 A 
HETATM   10  N   UNL     1     -42.893  57.888 -57.934  1.00  0.00    -0.305 N 
HETATM   11  C   UNL     1     -42.144  58.410 -58.959  1.00  0.00     0.151 A 
HETATM   12  C   UNL     1     -43.312  56.569 -57.997  1.00  0.00     0.118 A 
HETATM   13  C   UNL     1     -41.856  57.582 -60.100  1.00  0.00     0.167 A 
HETATM   14  N   UNL     1     -41.768  59.646 -58.734  1.00  0.00    -0.239 NA
HETATM   15  N   UNL     1     -42.286  56.351 -60.168  1.00  0.00    -0.268 NA
HETATM   16  C   UNL     1     -42.998  55.852 -59.092  1.00  0.00     0.134 A 
HETATM   17  C   UNL     1     -42.288  59.941 -57.505  1.00  0.00     0.146 A 
ENDBRANCH   8   9
ENDBRANCH   2   8
BRANCH   1  18
HETATM   18  C   UNL     1     -42.471  57.116 -53.679  1.00  0.00     0.041 A 
HETATM   19  N   UNL     1     -42.841  55.919 -53.101  1.00  0.00    -0.357 N 
HETATM   20  C   UNL     1     -42.033  54.899 -53.545  1.00  0.00     0.042 A 
HETATM   21  H   UNL     1     -43.588  55.781 -52.429  1.00  0.00     0.166 HD
HETATM   22  C   UNL     1     -41.093  55.459 -54.408  1.00  0.00    -0.008 A 
HETATM   23  C   UNL     1     -42.048  53.534 -53.233  1.00  0.00     0.030 A 
HETATM   24  C   UNL     1     -40.117  54.627 -54.986  1.00  0.00     0.014 A 
HETATM   25  C   UNL     1     -41.370  56.850 -54.477  1.00  0.00     0.040 A 
HETATM   26  C   UNL     1     -40.117  53.261 -54.683  1.00  0.00     0.001 A 
HETATM   27  C   UNL     1     -41.070  52.726 -53.819  1.00  0.00     0.002 A 
ENDBRANCH   1  18
TORSDOF 3
ENDMDL
MODEL 10
REMARK VINA RESULT:      -7.2      1.768      5.830
REMARK  3 active torsions:
REMARK  status: ('A' for Active; 'I' for Inactive)
REMARK    1  A    between atoms: C_7  and  C_8 
REMARK    2  A    between atoms: N_9  and  C_11 
REMARK    3  A    between atoms: C_11  and  C_12 
ROOT
HETATM    1  C   UNL     1     -41.718  53.486 -53.784  1.00  0.00     0.238 C 
HETATM    2  N   UNL     1     -41.513  54.123 -52.420  1.00  0.00    -0.056 N 
HETATM    3  H   UNL     1     -40.779  54.824 -52.565  1.00  0.00     0.281 HD
HETATM    4  C   UNL     1     -40.979  53.157 -51.387  1.00  0.00     0.236 C 
HETATM    5  C   UNL     1     -39.673  52.545 -51.859  1.00  0.00     0.028 C 
HETATM    6  C   UNL     1     -39.875  51.817 -53.177  1.00  0.00     0.004 C 
HETATM    7  C   UNL     1     -40.424  52.772 -54.225  1.00  0.00     0.040 C 
ENDROOT
BRANCH   2   8
HETATM    8  C   UNL     1     -42.705  54.915 -51.895  1.00  0.00     0.294 C 
BRANCH   8   9
HETATM    9  C   UNL     1     -42.424  56.321 -51.537  1.00  0.00     0.061 A 
HETATM   10  N   UNL     1     -43.151  57.415 -51.965  1.00  0.00    -0.305 N 
HETATM   11  C   UNL     1     -42.598  58.516 -51.361  1.00  0.00     0.151 A 
HETATM   12  C   UNL     1     -44.240  57.573 -52.807  1.00  0.00     0.118 A 
HETATM   13  C   UNL     1     -43.200  59.804 -51.578  1.00  0.00     0.167 A 
HETATM   14  N   UNL     1     -41.539  58.223 -50.645  1.00  0.00    -0.239 NA
HETATM   15  N   UNL     1     -44.250  59.939 -52.344  1.00  0.00    -0.268 NA
HETATM   16  C   UNL     1     -44.745  58.809 -52.970  1.00  0.00     0.134 A 
HETATM   17  C   UNL     1     -41.389  56.873 -50.796  1.00  0.00     0.146 A 
ENDBRANCH   8   9
ENDBRANCH   2   8
BRANCH   1  18
HETATM   18  C   UNL     1     -42.070  54.499 -54.829  1.00  0.00     0.041 A 
HETATM   19  N   UNL     1     -41.660  55.813 -54.735  1.00  0.00    -0.357 N 
HETATM   20  C   UNL     1     -42.145  56.546 -55.793  1.00  0.00     0.042 A 
HETATM   21  H   UNL     1     -41.095  56.216 -53.996  1.00  0.00     0.166 HD
HETATM   22  C   UNL     1     -42.918  55.688 -56.573  1.00  0.00    -0.008 A 
HETATM   23  C   UNL     1     -41.978  57.900 -56.105  1.00  0.00     0.030 A 
HETATM   24  C   UNL     1     -43.562  56.199 -57.716  1.00  0.00     0.014 A 
HETATM   25  C   UNL     1     -42.873  54.410 -55.955  1.00  0.00     0.040 A 
HETATM   26  C   UNL     1     -43.407  57.551 -58.040  1.00  0.00     0.001 A 
HETATM   27  C   UNL     1     -42.625  58.386 -57.244  1.00  0.00     0.002 A 
ENDBRANCH   1  18
TORSDOF 3
ENDMDL
