MODEL 1
REMARK VINA RESULT:      -8.8      0.000      0.000
REMARK  4 active torsions:
REMARK  status: ('A' for Active; 'I' for Inactive)
REMARK    1  A    between atoms: C_8  and  N_9 
REMARK       I    between atoms: N_9  and  C_10 
REMARK       I    between atoms: C_10  and  N_11 
REMARK    2  A    between atoms: N_11  and  C_12 
REMARK    3  A    between atoms: C_15  and  O_16 
REMARK    4  A    between atoms: O_16  and  C_17 
ROOT
HETATM    1  C   UNL     1     -42.400  54.648 -55.447  1.00  0.00     0.054 A 
HETATM    2  C   UNL     1     -42.983  54.427 -54.202  1.00  0.00     0.149 A 
HETATM    3  N   UNL     1     -42.287  54.123 -53.076  1.00  0.00    -0.235 NA
HETATM    4  C   UNL     1     -40.945  54.040 -53.188  1.00  0.00     0.169 A 
HETATM    5  C   UNL     1     -40.266  54.257 -54.377  1.00  0.00     0.060 A 
HETATM    6  C   UNL     1     -41.007  54.564 -55.519  1.00  0.00     0.035 A 
ENDROOT
BRANCH   1   7
HETATM    7  N   UNL     1     -43.101  54.940 -56.637  1.00  0.00    -0.307 N 
HETATM    8  C   UNL     1     -43.151  56.162 -57.291  1.00  0.00     0.325 C 
HETATM    9  N   UNL     1     -43.960  56.084 -58.409  1.00  0.00    -0.305 N 
HETATM   10  O   UNL     1     -42.556  57.164 -56.921  1.00  0.00    -0.247 OA
HETATM   11  H   UNL     1     -44.136  55.168 -58.788  1.00  0.00     0.171 HD
HETATM   12  H   UNL     1     -43.710  54.216 -56.986  1.00  0.00     0.170 HD
BRANCH   9  13
HETATM   13  C   UNL     1     -44.385  57.144 -59.197  1.00  0.00     0.086 A 
HETATM   14  C   UNL     1     -43.534  57.782 -60.081  1.00  0.00     0.052 A 
HETATM   15  C   UNL     1     -42.103  57.585 -60.417  1.00  0.00     0.072 C 
HETATM   16  N   UNL     1     -44.278  58.757 -60.679  1.00  0.00    -0.280 N 
HETATM   17  H   UNL     1     -43.985  59.433 -61.377  1.00  0.00     0.189 HD
HETATM   18  N   UNL     1     -45.552  58.787 -60.280  1.00  0.00    -0.177 NA
HETATM   19  C   UNL     1     -45.640  57.800 -59.374  1.00  0.00     0.079 A 
HETATM   20  C   UNL     1     -46.967  57.537 -58.761  1.00  0.00     0.075 C 
ENDBRANCH   9  13
ENDBRANCH   1   7
BRANCH   4  21
HETATM   21  O   UNL     1     -40.159  53.715 -52.086  1.00  0.00    -0.292 OA
BRANCH  21  22
HETATM   22  C   UNL     1     -40.084  52.384 -51.757  1.00  0.00     0.080 A 
HETATM   23  C   UNL     1     -39.676  51.479 -52.734  1.00  0.00     0.079 A 
HETATM   24  C   UNL     1     -39.551  50.137 -52.396  1.00  0.00     0.119 A 
HETATM   25  F   UNL     1     -39.168  49.255 -53.330  1.00  0.00    -0.206 F 
HETATM   26  C   UNL     1     -39.809  49.692 -51.102  1.00  0.00     0.042 A 
HETATM   27  C   UNL     1     -40.196  50.607 -50.123  1.00  0.00     0.006 A 
HETATM   28  C   UNL     1     -40.325  51.958 -50.448  1.00  0.00     0.037 A 
ENDBRANCH  21  22
ENDBRANCH   4  21
TORSDOF 4
ENDMDL
MODEL 2
REMARK VINA RESULT:      -8.7      0.434      1.677
REMARK  4 active torsions:
REMARK  status: ('A' for Active; 'I' for Inactive)
REMARK    1  A    between atoms: C_8  and  N_9 
REMARK       I    between atoms: N_9  and  C_10 
REMARK       I    between atoms: C_10  and  N_11 
REMARK    2  A    between atoms: N_11  and  C_12 
REMARK    3  A    between atoms: C_15  and  O_16 
REMARK    4  A    between atoms: O_16  and  C_17 
ROOT
HETATM    1  C   UNL     1     -42.536  54.767 -55.445  1.00  0.00     0.054 A 
HETATM    2  C   UNL     1     -43.073  54.515 -54.186  1.00  0.00     0.149 A 
HETATM    3  N   UNL     1     -42.342  54.128 -53.108  1.00  0.00    -0.235 NA
HETATM    4  C   UNL     1     -41.012  53.991 -53.285  1.00  0.00     0.169 A 
HETATM    5  C   UNL     1     -40.377  54.233 -54.493  1.00  0.00     0.060 A 
HETATM    6  C   UNL     1     -41.153  54.625 -55.585  1.00  0.00     0.035 A 
ENDROOT
BRANCH   1   7
HETATM    7  N   UNL     1     -43.275  55.144 -56.588  1.00  0.00    -0.307 N 
HETATM    8  C   UNL     1     -43.180  56.345 -57.277  1.00  0.00     0.325 C 
HETATM    9  N   UNL     1     -44.079  56.377 -58.327  1.00  0.00    -0.305 N 
HETATM   10  O   UNL     1     -42.405  57.244 -56.987  1.00  0.00    -0.247 OA
HETATM   11  H   UNL     1     -44.429  55.494 -58.660  1.00  0.00     0.171 HD
HETATM   12  H   UNL     1     -44.018  54.522 -56.865  1.00  0.00     0.170 HD
BRANCH   9  13
HETATM   13  C   UNL     1     -44.390  57.475 -59.115  1.00  0.00     0.086 A 
HETATM   14  C   UNL     1     -45.644  58.056 -59.094  1.00  0.00     0.052 A 
HETATM   15  C   UNL     1     -46.886  57.737 -58.349  1.00  0.00     0.072 C 
HETATM   16  N   UNL     1     -45.591  59.096 -59.976  1.00  0.00    -0.280 N 
HETATM   17  H   UNL     1     -46.328  59.744 -60.231  1.00  0.00     0.189 HD
HETATM   18  N   UNL     1     -44.395  59.259 -60.547  1.00  0.00    -0.177 NA
HETATM   19  C   UNL     1     -43.641  58.278 -60.027  1.00  0.00     0.079 A 
HETATM   20  C   UNL     1     -42.213  58.210 -60.432  1.00  0.00     0.075 C 
ENDBRANCH   9  13
ENDBRANCH   1   7
BRANCH   4  21
HETATM   21  O   UNL     1     -40.194  53.581 -52.236  1.00  0.00    -0.292 OA
BRANCH  21  22
HETATM   22  C   UNL     1     -40.040  52.227 -52.072  1.00  0.00     0.080 A 
HETATM   23  C   UNL     1     -39.775  51.446 -53.195  1.00  0.00     0.079 A 
HETATM   24  C   UNL     1     -39.569  50.081 -53.030  1.00  0.00     0.119 A 
HETATM   25  F   UNL     1     -39.322  49.319 -54.104  1.00  0.00    -0.206 F 
HETATM   26  C   UNL     1     -39.608  49.493 -51.770  1.00  0.00     0.042 A 
HETATM   27  C   UNL     1     -39.853  50.284 -50.647  1.00  0.00     0.006 A 
HETATM   28  C   UNL     1     -40.060  51.656 -50.796  1.00  0.00     0.037 A 
ENDBRANCH  21  22
ENDBRANCH   4  21
TORSDOF 4
ENDMDL
MODEL 3
REMARK VINA RESULT:      -7.4      3.647      9.573
REMARK  4 active torsions:
REMARK  status: ('A' for Active; 'I' for Inactive)
REMARK    1  A    between atoms: C_8  and  N_9 
REMARK       I    between atoms: N_9  and  C_10 
REMARK       I    between atoms: C_10  and  N_11 
REMARK    2  A    between atoms: N_11  and  C_12 
REMARK    3  A    between atoms: C_15  and  O_16 
REMARK    4  A    between atoms: O_16  and  C_17 
ROOT
HETATM    1  C   UNL     1     -41.708  55.645 -55.484  1.00  0.00     0.054 A 
HETATM    2  C   UNL     1     -41.844  56.879 -54.854  1.00  0.00     0.149 A 
HETATM    3  N   UNL     1     -42.651  57.878 -55.297  1.00  0.00    -0.235 NA
HETATM    4  C   UNL     1     -43.364  57.639 -56.417  1.00  0.00     0.169 A 
HETATM    5  C   UNL     1     -43.312  56.441 -57.110  1.00  0.00     0.060 A 
HETATM    6  C   UNL     1     -42.472  55.433 -56.635  1.00  0.00     0.035 A 
ENDROOT
BRANCH   1   7
HETATM    7  N   UNL     1     -40.857  54.601 -55.060  1.00  0.00    -0.307 N 
HETATM    8  C   UNL     1     -41.139  53.643 -54.097  1.00  0.00     0.325 C 
HETATM    9  N   UNL     1     -40.059  52.798 -53.920  1.00  0.00    -0.305 N 
HETATM   10  O   UNL     1     -42.198  53.567 -53.492  1.00  0.00    -0.247 OA
HETATM   11  H   UNL     1     -39.384  52.751 -54.666  1.00  0.00     0.171 HD
HETATM   12  H   UNL     1     -39.915  54.619 -55.418  1.00  0.00     0.170 HD
BRANCH   9  13
HETATM   13  C   UNL     1     -39.911  51.844 -52.924  1.00  0.00     0.086 A 
HETATM   14  C   UNL     1     -39.718  50.506 -53.219  1.00  0.00     0.052 A 
HETATM   15  C   UNL     1     -39.635  49.762 -54.498  1.00  0.00     0.072 C 
HETATM   16  N   UNL     1     -39.612  49.869 -52.016  1.00  0.00    -0.280 N 
HETATM   17  H   UNL     1     -39.476  48.880 -51.838  1.00  0.00     0.189 HD
HETATM   18  N   UNL     1     -39.689  50.687 -50.963  1.00  0.00    -0.177 NA
HETATM   19  C   UNL     1     -39.866  51.904 -51.499  1.00  0.00     0.079 A 
HETATM   20  C   UNL     1     -39.944  53.065 -50.575  1.00  0.00     0.075 C 
ENDBRANCH   9  13
ENDBRANCH   1   7
BRANCH   4  21
HETATM   21  O   UNL     1     -44.202  58.617 -56.947  1.00  0.00    -0.292 OA
BRANCH  21  22
HETATM   22  C   UNL     1     -43.865  59.106 -58.185  1.00  0.00     0.080 A 
HETATM   23  C   UNL     1     -42.700  59.859 -58.309  1.00  0.00     0.079 A 
HETATM   24  C   UNL     1     -42.327  60.317 -59.567  1.00  0.00     0.119 A 
HETATM   25  F   UNL     1     -41.212  61.049 -59.697  1.00  0.00    -0.206 F 
HETATM   26  C   UNL     1     -43.086  60.023 -60.696  1.00  0.00     0.042 A 
HETATM   27  C   UNL     1     -44.241  59.251 -60.568  1.00  0.00     0.006 A 
HETATM   28  C   UNL     1     -44.627  58.783 -59.312  1.00  0.00     0.037 A 
ENDBRANCH  21  22
ENDBRANCH   4  21
TORSDOF 4
ENDMDL
MODEL 4
REMARK VINA RESULT:      -7.4     14.497     17.917
REMARK  4 active torsions:
REMARK  status: ('A' for Active; 'I' for Inactive)
REMARK    1  A    between atoms: C_8  and  N_9 
REMARK       I    between atoms: N_9  and  C_10 
REMARK       I    between atoms: C_10  and  N_11 
REMARK    2  A    between atoms: N_11  and  C_12 
REMARK    3  A    between atoms: C_15  and  O_16 
REMARK    4  A    between atoms: O_16  and  C_17 
ROOT
HETATM    1  C   UNL     1     -35.517  41.739 -54.906  1.00  0.00     0.054 A 
HETATM    2  C   UNL     1     -36.837  42.114 -55.141  1.00  0.00     0.149 A 
HETATM    3  N   UNL     1     -37.385  42.244 -56.377  1.00  0.00    -0.235 NA
HETATM    4  C   UNL     1     -36.587  41.983 -57.433  1.00  0.00     0.169 A 
HETATM    5  C   UNL     1     -35.264  41.588 -57.307  1.00  0.00     0.060 A 
HETATM    6  C   UNL     1     -34.726  41.467 -56.025  1.00  0.00     0.035 A 
ENDROOT
BRANCH   1   7
HETATM    7  N   UNL     1     -34.915  41.622 -53.634  1.00  0.00    -0.307 N 
HETATM    8  C   UNL     1     -34.923  40.503 -52.814  1.00  0.00     0.325 C 
HETATM    9  N   UNL     1     -34.260  40.763 -51.628  1.00  0.00    -0.305 N 
HETATM   10  O   UNL     1     -35.446  39.439 -53.108  1.00  0.00    -0.247 OA
HETATM   11  H   UNL     1     -33.614  41.535 -51.622  1.00  0.00     0.171 HD
HETATM   12  H   UNL     1     -34.535  42.468 -53.239  1.00  0.00     0.170 HD
BRANCH   9  13
HETATM   13  C   UNL     1     -34.223  39.947 -50.507  1.00  0.00     0.086 A 
HETATM   14  C   UNL     1     -33.028  39.538 -49.943  1.00  0.00     0.052 A 
HETATM   15  C   UNL     1     -31.611  39.784 -50.303  1.00  0.00     0.072 C 
HETATM   16  N   UNL     1     -33.367  38.762 -48.872  1.00  0.00    -0.280 N 
HETATM   17  H   UNL     1     -32.752  38.281 -48.225  1.00  0.00     0.189 HD
HETATM   18  N   UNL     1     -34.683  38.658 -48.674  1.00  0.00    -0.177 NA
HETATM   19  C   UNL     1     -35.227  39.384 -49.664  1.00  0.00     0.079 A 
HETATM   20  C   UNL     1     -36.706  39.510 -49.700  1.00  0.00     0.075 C 
ENDBRANCH   9  13
ENDBRANCH   1   7
BRANCH   4  21
HETATM   21  O   UNL     1     -37.066  42.110 -58.733  1.00  0.00    -0.292 OA
BRANCH  21  22
HETATM   22  C   UNL     1     -37.555  40.970 -59.321  1.00  0.00     0.080 A 
HETATM   23  C   UNL     1     -37.189  40.688 -60.635  1.00  0.00     0.079 A 
HETATM   24  C   UNL     1     -37.640  39.511 -61.220  1.00  0.00     0.119 A 
HETATM   25  F   UNL     1     -37.302  39.234 -62.487  1.00  0.00    -0.206 F 
HETATM   26  C   UNL     1     -38.432  38.611 -60.512  1.00  0.00     0.042 A 
HETATM   27  C   UNL     1     -38.777  38.889 -59.190  1.00  0.00     0.006 A 
HETATM   28  C   UNL     1     -38.330  40.066 -58.588  1.00  0.00     0.037 A 
ENDBRANCH  21  22
ENDBRANCH   4  21
TORSDOF 4
ENDMDL
MODEL 5
REMARK VINA RESULT:      -7.3      2.619      3.433
REMARK  4 active torsions:
REMARK  status: ('A' for Active; 'I' for Inactive)
REMARK    1  A    between atoms: C_8  and  N_9 
REMARK       I    between atoms: N_9  and  C_10 
REMARK       I    between atoms: C_10  and  N_11 
REMARK    2  A    between atoms: N_11  and  C_12 
REMARK    3  A    between atoms: C_15  and  O_16 
REMARK    4  A    between atoms: O_16  and  C_17 
ROOT
HETATM    1  C   UNL     1     -42.401  56.054 -55.763  1.00  0.00     0.054 A 
HETATM    2  C   UNL     1     -42.901  54.759 -55.653  1.00  0.00     0.149 A 
HETATM    3  N   UNL     1     -43.151  54.135 -54.473  1.00  0.00    -0.235 NA
HETATM    4  C   UNL     1     -42.897  54.830 -53.345  1.00  0.00     0.169 A 
HETATM    5  C   UNL     1     -42.414  56.129 -53.345  1.00  0.00     0.060 A 
HETATM    6  C   UNL     1     -42.163  56.745 -54.572  1.00  0.00     0.035 A 
ENDROOT
BRANCH   1   7
HETATM    7  N   UNL     1     -42.109  56.716 -56.975  1.00  0.00    -0.307 N 
HETATM    8  C   UNL     1     -42.879  57.692 -57.592  1.00  0.00     0.325 C 
HETATM    9  N   UNL     1     -42.298  58.092 -58.782  1.00  0.00    -0.305 N 
HETATM   10  O   UNL     1     -43.926  58.130 -57.139  1.00  0.00    -0.247 OA
HETATM   11  H   UNL     1     -41.314  57.908 -58.898  1.00  0.00     0.171 HD
HETATM   12  H   UNL     1     -41.318  56.370 -57.495  1.00  0.00     0.170 HD
BRANCH   9  13
HETATM   13  C   UNL     1     -42.868  58.910 -59.746  1.00  0.00     0.086 A 
HETATM   14  C   UNL     1     -43.969  58.512 -60.481  1.00  0.00     0.052 A 
HETATM   15  C   UNL     1     -44.773  57.266 -60.492  1.00  0.00     0.072 C 
HETATM   16  N   UNL     1     -44.255  59.551 -61.319  1.00  0.00    -0.280 N 
HETATM   17  H   UNL     1     -44.993  59.615 -62.012  1.00  0.00     0.189 HD
HETATM   18  N   UNL     1     -43.449  60.604 -61.168  1.00  0.00    -0.177 NA
HETATM   19  C   UNL     1     -42.594  60.234 -60.203  1.00  0.00     0.079 A 
HETATM   20  C   UNL     1     -41.577  61.222 -59.759  1.00  0.00     0.075 C 
ENDBRANCH   9  13
ENDBRANCH   1   7
BRANCH   4  21
HETATM   21  O   UNL     1     -43.108  54.257 -52.094  1.00  0.00    -0.292 OA
BRANCH  21  22
HETATM   22  C   UNL     1     -42.007  54.132 -51.284  1.00  0.00     0.080 A 
HETATM   23  C   UNL     1     -42.067  54.655 -49.994  1.00  0.00     0.079 A 
HETATM   24  C   UNL     1     -40.975  54.490 -49.151  1.00  0.00     0.119 A 
HETATM   25  F   UNL     1     -41.018  54.996 -47.911  1.00  0.00    -0.206 F 
HETATM   26  C   UNL     1     -39.840  53.801 -49.568  1.00  0.00     0.042 A 
HETATM   27  C   UNL     1     -39.794  53.262 -50.854  1.00  0.00     0.006 A 
HETATM   28  C   UNL     1     -40.884  53.418 -51.711  1.00  0.00     0.037 A 
ENDBRANCH  21  22
ENDBRANCH   4  21
TORSDOF 4
ENDMDL
MODEL 6
REMARK VINA RESULT:      -7.2      4.295      4.904
REMARK  4 active torsions:
REMARK  status: ('A' for Active; 'I' for Inactive)
REMARK    1  A    between atoms: C_8  and  N_9 
REMARK       I    between atoms: N_9  and  C_10 
REMARK       I    between atoms: C_10  and  N_11 
REMARK    2  A    between atoms: N_11  and  C_12 
REMARK    3  A    between atoms: C_15  and  O_16 
REMARK    4  A    between atoms: O_16  and  C_17 
ROOT
HETATM    1  C   UNL     1     -43.227  56.181 -54.567  1.00  0.00     0.054 A 
HETATM    2  C   UNL     1     -43.518  54.826 -54.426  1.00  0.00     0.149 A 
HETATM    3  N   UNL     1     -42.591  53.835 -54.492  1.00  0.00    -0.235 NA
HETATM    4  C   UNL     1     -41.311  54.205 -54.702  1.00  0.00     0.169 A 
HETATM    5  C   UNL     1     -40.914  55.526 -54.839  1.00  0.00     0.060 A 
HETATM    6  C   UNL     1     -41.888  56.524 -54.771  1.00  0.00     0.035 A 
ENDROOT
BRANCH   1   7
HETATM    7  N   UNL     1     -44.173  57.227 -54.529  1.00  0.00    -0.307 N 
HETATM    8  C   UNL     1     -44.203  58.285 -53.631  1.00  0.00     0.325 C 
HETATM    9  N   UNL     1     -45.292  59.101 -53.875  1.00  0.00    -0.305 N 
HETATM   10  O   UNL     1     -43.376  58.461 -52.749  1.00  0.00    -0.247 OA
HETATM   11  H   UNL     1     -45.711  59.048 -54.789  1.00  0.00     0.171 HD
HETATM   12  H   UNL     1     -44.964  57.138 -55.148  1.00  0.00     0.170 HD
BRANCH   9  13
HETATM   13  C   UNL     1     -45.741  60.141 -53.075  1.00  0.00     0.086 A 
HETATM   14  C   UNL     1     -46.086  61.371 -53.604  1.00  0.00     0.052 A 
HETATM   15  C   UNL     1     -46.077  61.908 -54.986  1.00  0.00     0.072 C 
HETATM   16  N   UNL     1     -46.479  62.138 -52.545  1.00  0.00    -0.280 N 
HETATM   17  H   UNL     1     -46.791  63.103 -52.548  1.00  0.00     0.189 HD
HETATM   18  N   UNL     1     -46.447  61.498 -51.373  1.00  0.00    -0.177 NA
HETATM   19  C   UNL     1     -46.003  60.268 -51.677  1.00  0.00     0.079 A 
HETATM   20  C   UNL     1     -45.896  59.277 -50.577  1.00  0.00     0.075 C 
ENDBRANCH   9  13
ENDBRANCH   1   7
BRANCH   4  21
HETATM   21  O   UNL     1     -40.303  53.251 -54.800  1.00  0.00    -0.292 OA
BRANCH  21  22
HETATM   22  C   UNL     1     -40.117  52.440 -53.708  1.00  0.00     0.080 A 
HETATM   23  C   UNL     1     -39.814  51.097 -53.920  1.00  0.00     0.079 A 
HETATM   24  C   UNL     1     -39.577  50.280 -52.821  1.00  0.00     0.119 A 
HETATM   25  F   UNL     1     -39.292  48.985 -53.012  1.00  0.00    -0.206 F 
HETATM   26  C   UNL     1     -39.622  50.785 -51.525  1.00  0.00     0.042 A 
HETATM   27  C   UNL     1     -39.906  52.136 -51.320  1.00  0.00     0.006 A 
HETATM   28  C   UNL     1     -40.144  52.968 -52.414  1.00  0.00     0.037 A 
ENDBRANCH  21  22
ENDBRANCH   4  21
TORSDOF 4
ENDMDL
MODEL 7
REMARK VINA RESULT:      -7.1     14.695     18.873
REMARK  4 active torsions:
REMARK  status: ('A' for Active; 'I' for Inactive)
REMARK    1  A    between atoms: C_8  and  N_9 
REMARK       I    between atoms: N_9  and  C_10 
REMARK       I    between atoms: C_10  and  N_11 
REMARK    2  A    between atoms: N_11  and  C_12 
REMARK    3  A    between atoms: C_15  and  O_16 
REMARK    4  A    between atoms: O_16  and  C_17 
ROOT
HETATM    1  C   UNL     1     -35.858  39.804 -50.747  1.00  0.00     0.054 A 
HETATM    2  C   UNL     1     -36.870  39.800 -51.703  1.00  0.00     0.149 A 
HETATM    3  N   UNL     1     -36.982  40.717 -52.699  1.00  0.00    -0.235 NA
HETATM    4  C   UNL     1     -36.041  41.682 -52.754  1.00  0.00     0.169 A 
HETATM    5  C   UNL     1     -34.985  41.766 -51.860  1.00  0.00     0.060 A 
HETATM    6  C   UNL     1     -34.896  40.813 -50.845  1.00  0.00     0.035 A 
ENDROOT
BRANCH   1   7
HETATM    7  N   UNL     1     -35.732  38.879 -49.687  1.00  0.00    -0.307 N 
HETATM    8  C   UNL     1     -36.476  38.856 -48.516  1.00  0.00     0.325 C 
HETATM    9  N   UNL     1     -36.057  37.828 -47.692  1.00  0.00    -0.305 N 
HETATM   10  O   UNL     1     -37.375  39.643 -48.257  1.00  0.00    -0.247 OA
HETATM   11  H   UNL     1     -35.548  37.072 -48.122  1.00  0.00     0.171 HD
HETATM   12  H   UNL     1     -34.956  38.239 -49.741  1.00  0.00     0.170 HD
BRANCH   9  13
HETATM   13  C   UNL     1     -36.443  37.612 -46.378  1.00  0.00     0.086 A 
HETATM   14  C   UNL     1     -35.538  37.664 -45.334  1.00  0.00     0.052 A 
HETATM   15  C   UNL     1     -34.077  37.913 -45.283  1.00  0.00     0.072 C 
HETATM   16  N   UNL     1     -36.257  37.410 -44.202  1.00  0.00    -0.280 N 
HETATM   17  H   UNL     1     -35.925  37.356 -43.245  1.00  0.00     0.189 HD
HETATM   18  N   UNL     1     -37.561  37.227 -44.420  1.00  0.00    -0.177 NA
HETATM   19  C   UNL     1     -37.698  37.353 -45.749  1.00  0.00     0.079 A 
HETATM   20  C   UNL     1     -39.065  37.248 -46.319  1.00  0.00     0.075 C 
ENDBRANCH   9  13
ENDBRANCH   1   7
BRANCH   4  21
HETATM   21  O   UNL     1     -36.093  42.670 -53.733  1.00  0.00    -0.292 OA
BRANCH  21  22
HETATM   22  C   UNL     1     -35.949  42.254 -55.033  1.00  0.00     0.080 A 
HETATM   23  C   UNL     1     -37.065  42.278 -55.867  1.00  0.00     0.079 A 
HETATM   24  C   UNL     1     -36.917  41.904 -57.197  1.00  0.00     0.119 A 
HETATM   25  F   UNL     1     -37.984  41.915 -58.007  1.00  0.00    -0.206 F 
HETATM   26  C   UNL     1     -35.677  41.526 -57.706  1.00  0.00     0.042 A 
HETATM   27  C   UNL     1     -34.560  41.525 -56.871  1.00  0.00     0.006 A 
HETATM   28  C   UNL     1     -34.693  41.899 -55.534  1.00  0.00     0.037 A 
ENDBRANCH  21  22
ENDBRANCH   4  21
TORSDOF 4
ENDMDL
MODEL 8
REMARK VINA RESULT:      -7.1      2.363      2.956
REMARK  4 active torsions:
REMARK  status: ('A' for Active; 'I' for Inactive)
REMARK    1  A    between atoms: C_8  and  N_9 
REMARK       I    between atoms: N_9  and  C_10 
REMARK       I    between atoms: C_10  and  N_11 
REMARK    2  A    between atoms: N_11  and  C_12 
REMARK    3  A    between atoms: C_15  and  O_16 
REMARK    4  A    between atoms: O_16  and  C_17 
ROOT
HETATM    1  C   UNL     1     -42.898  55.488 -54.895  1.00  0.00     0.054 A 
HETATM    2  C   UNL     1     -41.627  55.937 -54.545  1.00  0.00     0.149 A 
HETATM    3  N   UNL     1     -40.561  55.121 -54.334  1.00  0.00    -0.235 NA
HETATM    4  C   UNL     1     -40.764  53.795 -54.482  1.00  0.00     0.169 A 
HETATM    5  C   UNL     1     -41.985  53.249 -54.842  1.00  0.00     0.060 A 
HETATM    6  C   UNL     1     -43.064  54.110 -55.050  1.00  0.00     0.035 A 
ENDROOT
BRANCH   1   7
HETATM    7  N   UNL     1     -44.027  56.311 -55.095  1.00  0.00    -0.307 N 
HETATM    8  C   UNL     1     -44.232  57.196 -56.144  1.00  0.00     0.325 C 
HETATM    9  N   UNL     1     -45.438  57.856 -55.997  1.00  0.00    -0.305 N 
HETATM   10  O   UNL     1     -43.447  57.362 -57.066  1.00  0.00    -0.247 OA
HETATM   11  H   UNL     1     -46.127  57.429 -55.399  1.00  0.00     0.171 HD
HETATM   12  H   UNL     1     -44.702  56.335 -54.347  1.00  0.00     0.170 HD
BRANCH   9  13
HETATM   13  C   UNL     1     -45.888  58.931 -56.748  1.00  0.00     0.086 A 
HETATM   14  C   UNL     1     -46.479  58.759 -57.987  1.00  0.00     0.052 A 
HETATM   15  C   UNL     1     -46.769  57.555 -58.802  1.00  0.00     0.072 C 
HETATM   16  N   UNL     1     -46.796  60.011 -58.428  1.00  0.00    -0.280 N 
HETATM   17  H   UNL     1     -47.233  60.277 -59.304  1.00  0.00     0.189 HD
HETATM   18  N   UNL     1     -46.487  60.982 -57.566  1.00  0.00    -0.177 NA
HETATM   19  C   UNL     1     -45.935  60.340 -56.525  1.00  0.00     0.079 A 
HETATM   20  C   UNL     1     -45.516  61.150 -55.352  1.00  0.00     0.075 C 
ENDBRANCH   9  13
ENDBRANCH   1   7
BRANCH   4  21
HETATM   21  O   UNL     1     -39.729  52.890 -54.265  1.00  0.00    -0.292 OA
BRANCH  21  22
HETATM   22  C   UNL     1     -39.785  52.161 -53.103  1.00  0.00     0.080 A 
HETATM   23  C   UNL     1     -40.112  52.819 -51.920  1.00  0.00     0.079 A 
HETATM   24  C   UNL     1     -40.219  52.080 -50.748  1.00  0.00     0.119 A 
HETATM   25  F   UNL     1     -40.525  52.703 -49.602  1.00  0.00    -0.206 F 
HETATM   26  C   UNL     1     -40.020  50.702 -50.744  1.00  0.00     0.042 A 
HETATM   27  C   UNL     1     -39.713  50.046 -51.936  1.00  0.00     0.006 A 
HETATM   28  C   UNL     1     -39.605  50.775 -53.121  1.00  0.00     0.037 A 
ENDBRANCH  21  22
ENDBRANCH   4  21
TORSDOF 4
ENDMDL
MODEL 9
REMARK VINA RESULT:      -7.1      3.319      9.506
REMARK  4 active torsions:
REMARK  status: ('A' for Active; 'I' for Inactive)
REMARK    1  A    between atoms: C_8  and  N_9 
REMARK       I    between atoms: N_9  and  C_10 
REMARK       I    between atoms: C_10  and  N_11 
REMARK    2  A    between atoms: N_11  and  C_12 
REMARK    3  A    between atoms: C_15  and  O_16 
REMARK    4  A    between atoms: O_16  and  C_17 
ROOT
HETATM    1  C   UNL     1     -42.022  55.574 -55.911  1.00  0.00     0.054 A 
HETATM    2  C   UNL     1     -42.802  55.459 -57.058  1.00  0.00     0.149 A 
HETATM    3  N   UNL     1     -43.700  56.393 -57.468  1.00  0.00    -0.235 NA
HETATM    4  C   UNL     1     -43.826  57.499 -56.705  1.00  0.00     0.169 A 
HETATM    5  C   UNL     1     -43.086  57.717 -55.554  1.00  0.00     0.060 A 
HETATM    6  C   UNL     1     -42.174  56.739 -55.155  1.00  0.00     0.035 A 
ENDROOT
BRANCH   1   7
HETATM    7  N   UNL     1     -41.101  54.608 -55.449  1.00  0.00    -0.307 N 
HETATM    8  C   UNL     1     -41.320  53.664 -54.456  1.00  0.00     0.325 C 
HETATM    9  N   UNL     1     -40.183  52.905 -54.247  1.00  0.00    -0.305 N 
HETATM   10  O   UNL     1     -42.375  53.530 -53.855  1.00  0.00    -0.247 OA
HETATM   11  H   UNL     1     -39.501  52.884 -54.988  1.00  0.00     0.171 HD
HETATM   12  H   UNL     1     -40.160  54.683 -55.802  1.00  0.00     0.170 HD
BRANCH   9  13
HETATM   13  C   UNL     1     -39.974  51.996 -53.220  1.00  0.00     0.086 A 
HETATM   14  C   UNL     1     -39.801  50.646 -53.466  1.00  0.00     0.052 A 
HETATM   15  C   UNL     1     -39.798  49.844 -54.712  1.00  0.00     0.072 C 
HETATM   16  N   UNL     1     -39.620  50.064 -52.244  1.00  0.00    -0.280 N 
HETATM   17  H   UNL     1     -39.474  49.083 -52.030  1.00  0.00     0.189 HD
HETATM   18  N   UNL     1     -39.630  50.928 -51.227  1.00  0.00    -0.177 NA
HETATM   19  C   UNL     1     -39.840  52.121 -51.805  1.00  0.00     0.079 A 
HETATM   20  C   UNL     1     -39.859  53.322 -50.932  1.00  0.00     0.075 C 
ENDBRANCH   9  13
ENDBRANCH   1   7
BRANCH   4  21
HETATM   21  O   UNL     1     -44.737  58.495 -57.045  1.00  0.00    -0.292 OA
BRANCH  21  22
HETATM   22  C   UNL     1     -45.337  58.384 -58.275  1.00  0.00     0.080 A 
HETATM   23  C   UNL     1     -46.194  57.310 -58.503  1.00  0.00     0.079 A 
HETATM   24  C   UNL     1     -46.843  57.218 -59.728  1.00  0.00     0.119 A 
HETATM   25  F   UNL     1     -47.664  56.185 -59.962  1.00  0.00    -0.206 F 
HETATM   26  C   UNL     1     -46.662  58.183 -60.715  1.00  0.00     0.042 A 
HETATM   27  C   UNL     1     -45.818  59.267 -60.472  1.00  0.00     0.006 A 
HETATM   28  C   UNL     1     -45.161  59.374 -59.246  1.00  0.00     0.037 A 
ENDBRANCH  21  22
ENDBRANCH   4  21
TORSDOF 4
ENDMDL
MODEL 10
REMARK VINA RESULT:      -7.1      2.542      3.100
REMARK  4 active torsions:
REMARK  status: ('A' for Active; 'I' for Inactive)
REMARK    1  A    between atoms: C_8  and  N_9 
REMARK       I    between atoms: N_9  and  C_10 
REMARK       I    between atoms: C_10  and  N_11 
REMARK    2  A    between atoms: N_11  and  C_12 
REMARK    3  A    between atoms: C_15  and  O_16 
REMARK    4  A    between atoms: O_16  and  C_17 
ROOT
HETATM    1  C   UNL     1     -43.151  55.936 -55.285  1.00  0.00     0.054 A 
HETATM    2  C   UNL     1     -42.139  56.617 -54.613  1.00  0.00     0.149 A 
HETATM    3  N   UNL     1     -41.233  56.023 -53.794  1.00  0.00    -0.235 NA
HETATM    4  C   UNL     1     -41.330  54.687 -53.637  1.00  0.00     0.169 A 
HETATM    5  C   UNL     1     -42.290  53.915 -54.272  1.00  0.00     0.060 A 
HETATM    6  C   UNL     1     -43.211  54.552 -55.106  1.00  0.00     0.035 A 
ENDROOT
BRANCH   1   7
HETATM    7  N   UNL     1     -44.121  56.531 -56.121  1.00  0.00    -0.307 N 
HETATM    8  C   UNL     1     -43.933  56.974 -57.422  1.00  0.00     0.325 C 
HETATM    9  N   UNL     1     -45.097  57.531 -57.920  1.00  0.00    -0.305 N 
HETATM   10  O   UNL     1     -42.880  56.880 -58.035  1.00  0.00    -0.247 OA
HETATM   11  H   UNL     1     -45.959  57.277 -57.467  1.00  0.00     0.171 HD
HETATM   12  H   UNL     1     -45.006  56.751 -55.692  1.00  0.00     0.170 HD
BRANCH   9  13
HETATM   13  C   UNL     1     -45.234  58.232 -59.109  1.00  0.00     0.086 A 
HETATM   14  C   UNL     1     -46.051  57.783 -60.130  1.00  0.00     0.052 A 
HETATM   15  C   UNL     1     -46.907  56.582 -60.277  1.00  0.00     0.072 C 
HETATM   16  N   UNL     1     -45.947  58.709 -61.128  1.00  0.00    -0.280 N 
HETATM   17  H   UNL     1     -46.397  58.708 -62.037  1.00  0.00     0.189 HD
HETATM   18  N   UNL     1     -45.152  59.739 -60.828  1.00  0.00    -0.177 NA
HETATM   19  C   UNL     1     -44.710  59.470 -59.590  1.00  0.00     0.079 A 
HETATM   20  C   UNL     1     -43.822  60.466 -58.937  1.00  0.00     0.075 C 
ENDBRANCH   9  13
ENDBRANCH   1   7
BRANCH   4  21
HETATM   21  O   UNL     1     -40.452  54.004 -52.801  1.00  0.00    -0.292 OA
BRANCH  21  22
HETATM   22  C   UNL     1     -40.683  54.110 -51.452  1.00  0.00     0.080 A 
HETATM   23  C   UNL     1     -39.599  54.015 -50.581  1.00  0.00     0.079 A 
HETATM   24  C   UNL     1     -39.818  54.170 -49.218  1.00  0.00     0.119 A 
HETATM   25  F   UNL     1     -38.785  54.073 -48.370  1.00  0.00    -0.206 F 
HETATM   26  C   UNL     1     -41.090  54.432 -48.716  1.00  0.00     0.042 A 
HETATM   27  C   UNL     1     -42.167  54.547 -49.595  1.00  0.00     0.006 A 
HETATM   28  C   UNL     1     -41.963  54.396 -50.967  1.00  0.00     0.037 A 
ENDBRANCH  21  22
ENDBRANCH   4  21
TORSDOF 4
ENDMDL
