MODEL 1
REMARK VINA RESULT:      -7.4      0.000      0.000
REMARK  2 active torsions:
REMARK  status: ('A' for Active; 'I' for Inactive)
REMARK    1  A    between atoms: C_8  and  S_9 
REMARK    2  A    between atoms: S_9  and  C_10 
ROOT
HETATM    1  C   UNL     1     -40.232  51.873 -54.446  1.00  0.00     0.002 A 
HETATM    2  C   UNL     1     -40.819  53.030 -53.933  1.00  0.00     0.034 A 
HETATM    3  C   UNL     1     -40.750  53.336 -52.579  1.00  0.00     0.087 A 
HETATM    4  C   UNL     1     -40.061  52.450 -51.709  1.00  0.00     0.087 A 
HETATM    5  N   UNL     1     -39.950  52.708 -50.393  1.00  0.00    -0.232 NA
HETATM    6  C   UNL     1     -40.511  53.850 -49.945  1.00  0.00     0.164 A 
HETATM    7 CL   UNL     1     -40.279  54.119 -48.268  1.00  0.00    -0.059 Cl
HETATM    8  C   UNL     1     -41.195  54.710 -50.790  1.00  0.00     0.165 A 
HETATM    9  N   UNL     1     -41.336  54.464 -52.117  1.00  0.00    -0.234 NA
HETATM   10  C   UNL     1     -39.487  51.299 -52.231  1.00  0.00     0.034 A 
HETATM   11  C   UNL     1     -39.567  51.002 -53.592  1.00  0.00     0.002 A 
ENDROOT
BRANCH   8  12
HETATM   12  S   UNL     1     -41.950  56.251 -50.262  1.00  0.00     0.078 S 
HETATM   13  O   UNL     1     -43.421  56.108 -50.554  1.00  0.00    -0.251 OA
BRANCH  12  14
HETATM   14  C   UNL     1     -41.319  57.430 -51.533  1.00  0.00     0.112 C 
HETATM   15  C   UNL     1     -42.479  58.250 -52.113  1.00  0.00     0.250 C 
HETATM   16  N   UNL     1     -43.026  59.187 -51.072  1.00  0.00    -0.074 N 
HETATM   17  H   UNL     1     -43.371  58.602 -50.279  1.00  0.00     0.277 HD
HETATM   18  H   UNL     1     -43.857  59.676 -51.427  1.00  0.00     0.277 HD
HETATM   19  C   UNL     1     -42.032  60.160 -50.545  1.00  0.00     0.232 C 
HETATM   20  C   UNL     1     -40.855  59.405 -49.944  1.00  0.00     0.029 C 
HETATM   21  C   UNL     1     -40.269  58.362 -50.902  1.00  0.00     0.021 C 
ENDBRANCH  12  14
ENDBRANCH   8  12
TORSDOF 2
ENDMDL
MODEL 2
REMARK VINA RESULT:      -7.3      1.410      1.520
REMARK  2 active torsions:
REMARK  status: ('A' for Active; 'I' for Inactive)
REMARK    1  A    between atoms: C_8  and  S_9 
REMARK    2  A    between atoms: S_9  and  C_10 
ROOT
HETATM    1  C   UNL     1     -39.982  50.694 -54.305  1.00  0.00     0.002 A 
HETATM    2  C   UNL     1     -40.382  52.012 -54.081  1.00  0.00     0.034 A 
HETATM    3  C   UNL     1     -40.415  52.550 -52.799  1.00  0.00     0.087 A 
HETATM    4  C   UNL     1     -40.025  51.735 -51.704  1.00  0.00     0.087 A 
HETATM    5  N   UNL     1     -40.021  52.212 -50.444  1.00  0.00    -0.232 NA
HETATM    6  C   UNL     1     -40.392  53.498 -50.278  1.00  0.00     0.164 A 
HETATM    7 CL   UNL     1     -40.311  54.032 -48.651  1.00  0.00    -0.059 Cl
HETATM    8  C   UNL     1     -40.785  54.291 -51.345  1.00  0.00     0.165 A 
HETATM    9  N   UNL     1     -40.814  53.829 -52.620  1.00  0.00    -0.234 NA
HETATM   10  C   UNL     1     -39.634  50.424 -51.939  1.00  0.00     0.034 A 
HETATM   11  C   UNL     1     -39.610  49.896 -53.230  1.00  0.00     0.002 A 
ENDROOT
BRANCH   8  12
HETATM   12  S   UNL     1     -41.274  56.012 -51.194  1.00  0.00     0.078 S 
HETATM   13  O   UNL     1     -42.527  56.009 -50.358  1.00  0.00    -0.251 OA
BRANCH  12  14
HETATM   14  C   UNL     1     -41.841  56.390 -52.909  1.00  0.00     0.112 C 
HETATM   15  C   UNL     1     -43.248  56.999 -52.876  1.00  0.00     0.250 C 
HETATM   16  N   UNL     1     -43.208  58.370 -52.258  1.00  0.00    -0.074 N 
HETATM   17  H   UNL     1     -42.850  58.260 -51.283  1.00  0.00     0.277 HD
HETATM   18  H   UNL     1     -44.158  58.747 -52.154  1.00  0.00     0.277 HD
HETATM   19  C   UNL     1     -42.336  59.337 -52.976  1.00  0.00     0.232 C 
HETATM   20  C   UNL     1     -40.917  58.792 -53.034  1.00  0.00     0.029 C 
HETATM   21  C   UNL     1     -40.853  57.362 -53.579  1.00  0.00     0.021 C 
ENDBRANCH  12  14
ENDBRANCH   8  12
TORSDOF 2
ENDMDL
MODEL 3
REMARK VINA RESULT:      -7.3      2.721      3.370
REMARK  2 active torsions:
REMARK  status: ('A' for Active; 'I' for Inactive)
REMARK    1  A    between atoms: C_8  and  S_9 
REMARK    2  A    between atoms: S_9  and  C_10 
ROOT
HETATM    1  C   UNL     1     -39.506  49.867 -51.232  1.00  0.00     0.002 A 
HETATM    2  C   UNL     1     -39.879  51.190 -50.988  1.00  0.00     0.034 A 
HETATM    3  C   UNL     1     -40.165  52.064 -52.030  1.00  0.00     0.087 A 
HETATM    4  C   UNL     1     -40.079  51.591 -53.366  1.00  0.00     0.087 A 
HETATM    5  N   UNL     1     -40.362  52.391 -54.411  1.00  0.00    -0.232 NA
HETATM    6  C   UNL     1     -40.742  53.654 -54.126  1.00  0.00     0.164 A 
HETATM    7 CL   UNL     1     -41.128  54.584 -55.514  1.00  0.00    -0.059 Cl
HETATM    8  C   UNL     1     -40.814  54.122 -52.823  1.00  0.00     0.165 A 
HETATM    9  N   UNL     1     -40.517  53.340 -51.755  1.00  0.00    -0.234 NA
HETATM   10  C   UNL     1     -39.702  50.275 -53.596  1.00  0.00     0.034 A 
HETATM   11  C   UNL     1     -39.414  49.410 -52.540  1.00  0.00     0.002 A 
ENDROOT
BRANCH   8  12
HETATM   12  S   UNL     1     -41.326  55.784 -52.378  1.00  0.00     0.078 S 
HETATM   13  O   UNL     1     -40.957  55.951 -50.927  1.00  0.00    -0.251 OA
BRANCH  12  14
HETATM   14  C   UNL     1     -43.164  55.622 -52.390  1.00  0.00     0.112 C 
HETATM   15  C   UNL     1     -43.732  55.955 -51.004  1.00  0.00     0.250 C 
HETATM   16  N   UNL     1     -43.555  57.418 -50.707  1.00  0.00    -0.074 N 
HETATM   17  H   UNL     1     -42.530  57.617 -50.723  1.00  0.00     0.277 HD
HETATM   18  H   UNL     1     -43.854  57.631 -49.747  1.00  0.00     0.277 HD
HETATM   19  C   UNL     1     -44.229  58.323 -51.676  1.00  0.00     0.232 C 
HETATM   20  C   UNL     1     -43.699  58.048 -53.076  1.00  0.00     0.029 C 
HETATM   21  C   UNL     1     -43.761  56.564 -53.451  1.00  0.00     0.021 C 
ENDBRANCH  12  14
ENDBRANCH   8  12
TORSDOF 2
ENDMDL
MODEL 4
REMARK VINA RESULT:      -7.0      1.701      1.889
REMARK  2 active torsions:
REMARK  status: ('A' for Active; 'I' for Inactive)
REMARK    1  A    between atoms: C_8  and  S_9 
REMARK    2  A    between atoms: S_9  and  C_10 
ROOT
HETATM    1  C   UNL     1     -39.845  50.914 -54.098  1.00  0.00     0.002 A 
HETATM    2  C   UNL     1     -40.409  52.191 -54.118  1.00  0.00     0.034 A 
HETATM    3  C   UNL     1     -40.581  52.922 -52.949  1.00  0.00     0.087 A 
HETATM    4  C   UNL     1     -40.165  52.354 -51.716  1.00  0.00     0.087 A 
HETATM    5  N   UNL     1     -40.293  53.027 -50.557  1.00  0.00    -0.232 NA
HETATM    6  C   UNL     1     -40.820  54.267 -50.627  1.00  0.00     0.164 A 
HETATM    7 CL   UNL     1     -40.900  55.065 -49.112  1.00  0.00    -0.059 Cl
HETATM    8  C   UNL     1     -41.238  54.818 -51.828  1.00  0.00     0.165 A 
HETATM    9  N   UNL     1     -41.137  54.154 -53.006  1.00  0.00    -0.234 NA
HETATM   10  C   UNL     1     -39.611  51.081 -51.709  1.00  0.00     0.034 A 
HETATM   11  C   UNL     1     -39.448  50.356 -52.890  1.00  0.00     0.002 A 
ENDROOT
BRANCH   8  12
HETATM   12  S   UNL     1     -41.933  56.466 -51.990  1.00  0.00     0.078 S 
HETATM   13  O   UNL     1     -43.369  56.267 -52.401  1.00  0.00    -0.251 OA
BRANCH  12  14
HETATM   14  C   UNL     1     -41.080  57.081 -53.507  1.00  0.00     0.112 C 
HETATM   15  C   UNL     1     -42.086  57.218 -54.658  1.00  0.00     0.250 C 
HETATM   16  N   UNL     1     -43.052  58.335 -54.376  1.00  0.00    -0.074 N 
HETATM   17  H   UNL     1     -43.557  58.092 -53.494  1.00  0.00     0.277 HD
HETATM   18  H   UNL     1     -43.779  58.375 -55.100  1.00  0.00     0.277 HD
HETATM   19  C   UNL     1     -42.411  59.666 -54.203  1.00  0.00     0.232 C 
HETATM   20  C   UNL     1     -41.405  59.599 -53.064  1.00  0.00     0.029 C 
HETATM   21  C   UNL     1     -40.416  58.439 -53.215  1.00  0.00     0.021 C 
ENDBRANCH  12  14
ENDBRANCH   8  12
TORSDOF 2
ENDMDL
MODEL 5
REMARK VINA RESULT:      -6.9      1.981      2.597
REMARK  2 active torsions:
REMARK  status: ('A' for Active; 'I' for Inactive)
REMARK    1  A    between atoms: C_8  and  S_9 
REMARK    2  A    between atoms: S_9  and  C_10 
ROOT
HETATM    1  C   UNL     1     -39.316  51.521 -52.245  1.00  0.00     0.002 A 
HETATM    2  C   UNL     1     -39.839  52.609 -51.545  1.00  0.00     0.034 A 
HETATM    3  C   UNL     1     -40.778  53.456 -52.123  1.00  0.00     0.087 A 
HETATM    4  C   UNL     1     -41.212  53.195 -53.450  1.00  0.00     0.087 A 
HETATM    5  N   UNL     1     -42.131  53.973 -54.050  1.00  0.00    -0.232 NA
HETATM    6  C   UNL     1     -42.628  54.999 -53.328  1.00  0.00     0.164 A 
HETATM    7 CL   UNL     1     -43.826  55.905 -54.154  1.00  0.00    -0.059 Cl
HETATM    8  C   UNL     1     -42.196  55.262 -52.037  1.00  0.00     0.165 A 
HETATM    9  N   UNL     1     -41.258  54.504 -51.417  1.00  0.00    -0.234 NA
HETATM   10  C   UNL     1     -40.679  52.112 -54.137  1.00  0.00     0.034 A 
HETATM   11  C   UNL     1     -39.735  51.274 -53.546  1.00  0.00     0.002 A 
ENDROOT
BRANCH   8  12
HETATM   12  S   UNL     1     -42.826  56.600 -51.019  1.00  0.00     0.078 S 
HETATM   13  O   UNL     1     -44.327  56.480 -51.068  1.00  0.00    -0.251 OA
BRANCH  12  14
HETATM   14  C   UNL     1     -42.427  58.075 -52.054  1.00  0.00     0.112 C 
HETATM   15  C   UNL     1     -43.014  59.341 -51.415  1.00  0.00     0.250 C 
HETATM   16  N   UNL     1     -42.293  59.661 -50.135  1.00  0.00    -0.074 N 
HETATM   17  H   UNL     1     -42.427  58.849 -49.492  1.00  0.00     0.277 HD
HETATM   18  H   UNL     1     -42.736  60.456 -49.660  1.00  0.00     0.277 HD
HETATM   19  C   UNL     1     -40.834  59.898 -50.301  1.00  0.00     0.232 C 
HETATM   20  C   UNL     1     -40.189  58.669 -50.923  1.00  0.00     0.029 C 
HETATM   21  C   UNL     1     -40.901  58.209 -52.200  1.00  0.00     0.021 C 
ENDBRANCH  12  14
ENDBRANCH   8  12
TORSDOF 2
ENDMDL
MODEL 6
REMARK VINA RESULT:      -6.6      3.152      3.763
REMARK  2 active torsions:
REMARK  status: ('A' for Active; 'I' for Inactive)
REMARK    1  A    between atoms: C_8  and  S_9 
REMARK    2  A    between atoms: S_9  and  C_10 
ROOT
HETATM    1  C   UNL     1     -39.889  51.338 -53.849  1.00  0.00     0.002 A 
HETATM    2  C   UNL     1     -40.721  52.362 -54.304  1.00  0.00     0.034 A 
HETATM    3  C   UNL     1     -41.077  53.423 -53.479  1.00  0.00     0.087 A 
HETATM    4  C   UNL     1     -40.573  53.460 -52.152  1.00  0.00     0.087 A 
HETATM    5  N   UNL     1     -40.872  54.473 -51.318  1.00  0.00    -0.232 NA
HETATM    6  C   UNL     1     -41.658  55.454 -51.808  1.00  0.00     0.164 A 
HETATM    7 CL   UNL     1     -41.946  56.724 -50.694  1.00  0.00    -0.059 Cl
HETATM    8  C   UNL     1     -42.162  55.414 -53.099  1.00  0.00     0.165 A 
HETATM    9  N   UNL     1     -41.889  54.395 -53.952  1.00  0.00    -0.234 NA
HETATM   10  C   UNL     1     -39.751  52.432 -51.711  1.00  0.00     0.034 A 
HETATM   11  C   UNL     1     -39.406  51.371 -52.548  1.00  0.00     0.002 A 
ENDROOT
BRANCH   8  12
HETATM   12  S   UNL     1     -43.200  56.692 -53.814  1.00  0.00     0.078 S 
HETATM   13  O   UNL     1     -44.451  55.991 -54.277  1.00  0.00    -0.251 OA
BRANCH  12  14
HETATM   14  C   UNL     1     -42.277  57.099 -55.359  1.00  0.00     0.112 C 
HETATM   15  C   UNL     1     -42.981  56.478 -56.573  1.00  0.00     0.250 C 
HETATM   16  N   UNL     1     -44.299  57.159 -56.815  1.00  0.00    -0.074 N 
HETATM   17  H   UNL     1     -44.883  57.019 -55.960  1.00  0.00     0.277 HD
HETATM   18  H   UNL     1     -44.814  56.692 -57.572  1.00  0.00     0.277 HD
HETATM   19  C   UNL     1     -44.191  58.619 -57.081  1.00  0.00     0.232 C 
HETATM   20  C   UNL     1     -43.507  59.297 -55.903  1.00  0.00     0.029 C 
HETATM   21  C   UNL     1     -42.183  58.627 -55.521  1.00  0.00     0.021 C 
ENDBRANCH  12  14
ENDBRANCH   8  12
TORSDOF 2
ENDMDL
MODEL 7
REMARK VINA RESULT:      -6.6      3.109      4.015
REMARK  2 active torsions:
REMARK  status: ('A' for Active; 'I' for Inactive)
REMARK    1  A    between atoms: C_8  and  S_9 
REMARK    2  A    between atoms: S_9  and  C_10 
ROOT
HETATM    1  C   UNL     1     -39.490  49.677 -53.397  1.00  0.00     0.002 A 
HETATM    2  C   UNL     1     -39.823  50.848 -54.080  1.00  0.00     0.034 A 
HETATM    3  C   UNL     1     -40.122  52.022 -53.399  1.00  0.00     0.087 A 
HETATM    4  C   UNL     1     -40.078  52.021 -51.980  1.00  0.00     0.087 A 
HETATM    5  N   UNL     1     -40.342  53.135 -51.271  1.00  0.00    -0.232 NA
HETATM    6  C   UNL     1     -40.634  54.249 -51.974  1.00  0.00     0.164 A 
HETATM    7 CL   UNL     1     -40.908  55.628 -50.992  1.00  0.00    -0.059 Cl
HETATM    8  C   UNL     1     -40.690  54.249 -53.359  1.00  0.00     0.165 A 
HETATM    9  N   UNL     1     -40.446  53.135 -54.094  1.00  0.00    -0.234 NA
HETATM   10  C   UNL     1     -39.751  50.849 -51.312  1.00  0.00     0.034 A 
HETATM   11  C   UNL     1     -39.458  49.677 -52.009  1.00  0.00     0.002 A 
ENDROOT
BRANCH   8  12
HETATM   12  S   UNL     1     -41.059  55.699 -54.352  1.00  0.00     0.078 S 
HETATM   13  O   UNL     1     -40.894  56.879 -53.430  1.00  0.00    -0.251 OA
BRANCH  12  14
HETATM   14  C   UNL     1     -42.880  55.529 -54.595  1.00  0.00     0.112 C 
HETATM   15  C   UNL     1     -43.538  56.915 -54.635  1.00  0.00     0.250 C 
HETATM   16  N   UNL     1     -43.129  57.649 -55.883  1.00  0.00    -0.074 N 
HETATM   17  H   UNL     1     -42.090  57.753 -55.855  1.00  0.00     0.277 HD
HETATM   18  H   UNL     1     -43.495  58.609 -55.874  1.00  0.00     0.277 HD
HETATM   19  C   UNL     1     -43.502  56.958 -57.146  1.00  0.00     0.232 C 
HETATM   20  C   UNL     1     -42.870  55.575 -57.172  1.00  0.00     0.029 C 
HETATM   21  C   UNL     1     -43.161  54.767 -55.902  1.00  0.00     0.021 C 
ENDBRANCH  12  14
ENDBRANCH   8  12
TORSDOF 2
ENDMDL
MODEL 8
REMARK VINA RESULT:      -6.5      2.887      3.637
REMARK  2 active torsions:
REMARK  status: ('A' for Active; 'I' for Inactive)
REMARK    1  A    between atoms: C_8  and  S_9 
REMARK    2  A    between atoms: S_9  and  C_10 
ROOT
HETATM    1  C   UNL     1     -39.730  52.165 -51.924  1.00  0.00     0.002 A 
HETATM    2  C   UNL     1     -40.294  53.437 -51.809  1.00  0.00     0.034 A 
HETATM    3  C   UNL     1     -40.824  54.095 -52.913  1.00  0.00     0.087 A 
HETATM    4  C   UNL     1     -40.794  53.448 -54.177  1.00  0.00     0.087 A 
HETATM    5  N   UNL     1     -41.309  54.033 -55.274  1.00  0.00    -0.232 NA
HETATM    6  C   UNL     1     -41.865  55.252 -55.111  1.00  0.00     0.164 A 
HETATM    7 CL   UNL     1     -42.538  55.897 -56.550  1.00  0.00    -0.059 Cl
HETATM    8  C   UNL     1     -41.884  55.890 -53.881  1.00  0.00     0.165 A 
HETATM    9  N   UNL     1     -41.356  55.329 -52.765  1.00  0.00    -0.234 NA
HETATM   10  C   UNL     1     -40.226  52.185 -54.278  1.00  0.00     0.034 A 
HETATM   11  C   UNL     1     -39.693  51.539 -53.163  1.00  0.00     0.002 A 
ENDROOT
BRANCH   8  12
HETATM   12  S   UNL     1     -42.621  57.503 -53.595  1.00  0.00     0.078 S 
HETATM   13  O   UNL     1     -41.554  58.507 -53.945  1.00  0.00    -0.251 OA
BRANCH  12  14
HETATM   14  C   UNL     1     -42.731  57.539 -51.754  1.00  0.00     0.112 C 
HETATM   15  C   UNL     1     -41.964  58.749 -51.204  1.00  0.00     0.250 C 
HETATM   16  N   UNL     1     -42.666  60.025 -51.579  1.00  0.00    -0.074 N 
HETATM   17  H   UNL     1     -42.692  60.070 -52.622  1.00  0.00     0.277 HD
HETATM   18  H   UNL     1     -42.112  60.840 -51.289  1.00  0.00     0.277 HD
HETATM   19  C   UNL     1     -44.058  60.128 -51.065  1.00  0.00     0.232 C 
HETATM   20  C   UNL     1     -44.877  58.957 -51.585  1.00  0.00     0.029 C 
HETATM   21  C   UNL     1     -44.208  57.603 -51.323  1.00  0.00     0.021 C 
ENDBRANCH  12  14
ENDBRANCH   8  12
TORSDOF 2
ENDMDL
MODEL 9
REMARK VINA RESULT:      -6.5      2.253      2.998
REMARK  2 active torsions:
REMARK  status: ('A' for Active; 'I' for Inactive)
REMARK    1  A    between atoms: C_8  and  S_9 
REMARK    2  A    between atoms: S_9  and  C_10 
ROOT
HETATM    1  C   UNL     1     -39.665  51.195 -53.641  1.00  0.00     0.002 A 
HETATM    2  C   UNL     1     -40.204  52.396 -54.106  1.00  0.00     0.034 A 
HETATM    3  C   UNL     1     -40.571  53.410 -53.230  1.00  0.00     0.087 A 
HETATM    4  C   UNL     1     -40.384  53.214 -51.836  1.00  0.00     0.087 A 
HETATM    5  N   UNL     1     -40.706  54.171 -50.946  1.00  0.00    -0.232 NA
HETATM    6  C   UNL     1     -41.200  55.324 -51.442  1.00  0.00     0.164 A 
HETATM    7 CL   UNL     1     -41.537  56.500 -50.241  1.00  0.00    -0.059 Cl
HETATM    8  C   UNL     1     -41.396  55.513 -52.801  1.00  0.00     0.165 A 
HETATM    9  N   UNL     1     -41.096  54.558 -53.716  1.00  0.00    -0.234 NA
HETATM   10  C   UNL     1     -39.852  52.014 -51.386  1.00  0.00     0.034 A 
HETATM   11  C   UNL     1     -39.492  51.002 -52.277  1.00  0.00     0.002 A 
ENDROOT
BRANCH   8  12
HETATM   12  S   UNL     1     -42.035  57.026 -53.526  1.00  0.00     0.078 S 
HETATM   13  O   UNL     1     -41.383  58.151 -52.765  1.00  0.00    -0.251 OA
BRANCH  12  14
HETATM   14  C   UNL     1     -43.787  57.005 -52.945  1.00  0.00     0.112 C 
HETATM   15  C   UNL     1     -44.086  58.267 -52.125  1.00  0.00     0.250 C 
HETATM   16  N   UNL     1     -44.072  59.480 -53.014  1.00  0.00    -0.074 N 
HETATM   17  H   UNL     1     -43.116  59.549 -53.430  1.00  0.00     0.277 HD
HETATM   18  H   UNL     1     -44.185  60.337 -52.457  1.00  0.00     0.277 HD
HETATM   19  C   UNL     1     -45.067  59.439 -54.118  1.00  0.00     0.232 C 
HETATM   20  C   UNL     1     -44.817  58.209 -54.978  1.00  0.00     0.029 C 
HETATM   21  C   UNL     1     -44.734  56.918 -54.156  1.00  0.00     0.021 C 
ENDBRANCH  12  14
ENDBRANCH   8  12
TORSDOF 2
ENDMDL
MODEL 10
REMARK VINA RESULT:      -6.5      2.325      2.659
REMARK  2 active torsions:
REMARK  status: ('A' for Active; 'I' for Inactive)
REMARK    1  A    between atoms: C_8  and  S_9 
REMARK    2  A    between atoms: S_9  and  C_10 
ROOT
HETATM    1  C   UNL     1     -39.950  54.250 -55.124  1.00  0.00     0.002 A 
HETATM    2  C   UNL     1     -40.572  55.372 -54.573  1.00  0.00     0.034 A 
HETATM    3  C   UNL     1     -41.502  55.252 -53.548  1.00  0.00     0.087 A 
HETATM    4  C   UNL     1     -41.815  53.958 -53.052  1.00  0.00     0.087 A 
HETATM    5  N   UNL     1     -42.696  53.788 -52.049  1.00  0.00    -0.232 NA
HETATM    6  C   UNL     1     -43.253  54.902 -51.531  1.00  0.00     0.164 A 
HETATM    7 CL   UNL     1     -44.323  54.592 -50.228  1.00  0.00    -0.059 Cl
HETATM    8  C   UNL     1     -42.959  56.164 -52.021  1.00  0.00     0.165 A 
HETATM    9  N   UNL     1     -42.089  56.361 -53.043  1.00  0.00    -0.234 NA
HETATM   10  C   UNL     1     -41.194  52.850 -53.612  1.00  0.00     0.034 A 
HETATM   11  C   UNL     1     -40.265  52.985 -54.644  1.00  0.00     0.002 A 
ENDROOT
BRANCH   8  12
HETATM   12  S   UNL     1     -43.654  57.685 -51.367  1.00  0.00     0.078 S 
HETATM   13  O   UNL     1     -45.042  57.783 -51.946  1.00  0.00    -0.251 OA
BRANCH  12  14
HETATM   14  C   UNL     1     -42.668  58.961 -52.264  1.00  0.00     0.112 C 
HETATM   15  C   UNL     1     -43.602  59.916 -53.018  1.00  0.00     0.250 C 
HETATM   16  N   UNL     1     -44.380  60.758 -52.046  1.00  0.00    -0.074 N 
HETATM   17  H   UNL     1     -44.944  60.108 -51.454  1.00  0.00     0.277 HD
HETATM   18  H   UNL     1     -45.069  61.338 -52.540  1.00  0.00     0.277 HD
HETATM   19  C   UNL     1     -43.535  61.597 -51.154  1.00  0.00     0.232 C 
HETATM   20  C   UNL     1     -42.588  60.703 -50.367  1.00  0.00     0.029 C 
HETATM   21  C   UNL     1     -41.798  59.744 -51.264  1.00  0.00     0.021 C 
ENDBRANCH  12  14
ENDBRANCH   8  12
TORSDOF 2
ENDMDL
