MODEL 1
REMARK VINA RESULT:      -8.6      0.000      0.000
REMARK  6 active torsions:
REMARK  status: ('A' for Active; 'I' for Inactive)
REMARK    1  A    between atoms: O_2  and  C_3 
REMARK    2  A    between atoms: C_6  and  C_7 
REMARK    3  A    between atoms: C_7  and  N_8 
REMARK       I    between atoms: N_8  and  C_9 
REMARK    4  A    between atoms: C_9  and  C_10 
REMARK    5  A    between atoms: C_10  and  O_11 
REMARK    6  A    between atoms: N_12  and  C_13 
ROOT
HETATM    1  C   UNL     1     -43.540  57.512 -52.463  1.00  0.00     0.256 C 
HETATM    2  N   UNL     1     -42.497  57.508 -53.492  1.00  0.00    -0.254 N 
HETATM    3  C   UNL     1     -41.212  57.865 -53.068  1.00  0.00     0.330 C 
HETATM    4  O   UNL     1     -40.154  57.622 -53.647  1.00  0.00    -0.246 OA
HETATM    5  N   UNL     1     -41.148  58.675 -51.951  1.00  0.00    -0.308 N 
HETATM    6  C   UNL     1     -42.255  59.316 -51.395  1.00  0.00     0.048 A 
HETATM    7  C   UNL     1     -43.520  58.829 -51.716  1.00  0.00     0.035 A 
HETATM    8  C   UNL     1     -42.097  60.436 -50.583  1.00  0.00     0.031 A 
HETATM    9  C   UNL     1     -43.230  61.110 -50.124  1.00  0.00     0.021 A 
HETATM   10  C   UNL     1     -44.502  60.655 -50.477  1.00  0.00     0.011 A 
HETATM   11 BR   UNL     1     -46.031  61.584 -49.868  1.00  0.00    -0.051 Br
HETATM   12  C   UNL     1     -44.655  59.515 -51.265  1.00  0.00     0.034 A 
HETATM   13  H   UNL     1     -40.213  59.012 -51.752  1.00  0.00     0.170 HD
ENDROOT
BRANCH   1  14
HETATM   14  C   UNL     1     -43.279  56.292 -51.464  1.00  0.00     0.279 C 
HETATM   15  N   UNL     1     -42.037  55.691 -51.557  1.00  0.00    -0.352 N 
HETATM   16  H   UNL     1     -41.324  56.102 -52.147  1.00  0.00     0.162 HD
HETATM   17  O   UNL     1     -44.089  55.953 -50.599  1.00  0.00    -0.268 OA
BRANCH  15  18
HETATM   18  C   UNL     1     -41.650  54.587 -50.707  1.00  0.00     0.161 C 
BRANCH  18  19
HETATM   19  C   UNL     1     -40.990  53.492 -51.505  1.00  0.00    -0.040 A 
HETATM   20  C   UNL     1     -41.059  53.482 -52.904  1.00  0.00     0.011 A 
HETATM   21  C   UNL     1     -40.401  52.490 -53.636  1.00  0.00     0.037 A 
HETATM   22  C   UNL     1     -39.658  51.499 -52.991  1.00  0.00     0.068 A 
HETATM   23  C   UNL     1     -39.593  51.495 -51.599  1.00  0.00     0.037 A 
HETATM   24  C   UNL     1     -40.250  52.487 -50.862  1.00  0.00     0.011 A 
BRANCH  22  25
HETATM   25  O   UNL     1     -39.051  50.602 -53.827  1.00  0.00    -0.356 OA
HETATM   26  C   UNL     1     -39.906  49.787 -54.621  1.00  0.00     0.210 C 
ENDBRANCH  22  25
ENDBRANCH  18  19
ENDBRANCH  15  18
ENDBRANCH   1  14
BRANCH   1  27
HETATM   27  O   UNL     1     -44.852  57.293 -52.989  1.00  0.00    -0.359 OA
HETATM   28  H   UNL     1     -45.146  58.176 -53.281  1.00  0.00     0.213 HD
ENDBRANCH   1  27
BRANCH   2  29
HETATM   29  C   UNL     1     -42.708  56.947 -54.787  1.00  0.00     0.042 A 
HETATM   30  C   UNL     1     -42.694  55.563 -54.998  1.00  0.00     0.030 A 
HETATM   31  C   UNL     1     -42.855  55.030 -56.280  1.00  0.00     0.002 A 
HETATM   32  C   UNL     1     -43.020  55.877 -57.374  1.00  0.00     0.000 A 
HETATM   33  C   UNL     1     -43.022  57.256 -57.185  1.00  0.00     0.002 A 
HETATM   34  C   UNL     1     -42.862  57.785 -55.901  1.00  0.00     0.030 A 
ENDBRANCH   2  29
TORSDOF 6
ENDMDL
MODEL 2
REMARK VINA RESULT:      -8.6      2.269      3.395
REMARK  6 active torsions:
REMARK  status: ('A' for Active; 'I' for Inactive)
REMARK    1  A    between atoms: O_2  and  C_3 
REMARK    2  A    between atoms: C_6  and  C_7 
REMARK    3  A    between atoms: C_7  and  N_8 
REMARK       I    between atoms: N_8  and  C_9 
REMARK    4  A    between atoms: C_9  and  C_10 
REMARK    5  A    between atoms: C_10  and  O_11 
REMARK    6  A    between atoms: N_12  and  C_13 
ROOT
HETATM    1  C   UNL     1     -43.173  56.976 -55.449  1.00  0.00     0.256 C 
HETATM    2  N   UNL     1     -43.168  57.574 -56.787  1.00  0.00    -0.254 N 
HETATM    3  C   UNL     1     -42.383  58.721 -56.947  1.00  0.00     0.330 C 
HETATM    4  O   UNL     1     -41.971  59.187 -58.008  1.00  0.00    -0.246 OA
HETATM    5  N   UNL     1     -42.157  59.463 -55.803  1.00  0.00    -0.308 N 
HETATM    6  C   UNL     1     -42.837  59.260 -54.603  1.00  0.00     0.048 A 
HETATM    7  C   UNL     1     -43.477  58.037 -54.413  1.00  0.00     0.035 A 
HETATM    8  C   UNL     1     -42.912  60.270 -53.646  1.00  0.00     0.031 A 
HETATM    9  C   UNL     1     -43.683  60.068 -52.500  1.00  0.00     0.021 A 
HETATM   10  C   UNL     1     -44.364  58.862 -52.323  1.00  0.00     0.011 A 
HETATM   11 BR   UNL     1     -45.422  58.602 -50.778  1.00  0.00    -0.051 Br
HETATM   12  C   UNL     1     -44.261  57.842 -53.268  1.00  0.00     0.034 A 
HETATM   13  H   UNL     1     -41.694  60.345 -55.981  1.00  0.00     0.170 HD
ENDROOT
BRANCH   1  14
HETATM   14  C   UNL     1     -41.742  56.316 -55.178  1.00  0.00     0.279 C 
HETATM   15  N   UNL     1     -41.597  55.001 -55.583  1.00  0.00    -0.352 N 
HETATM   16  H   UNL     1     -42.333  54.559 -56.120  1.00  0.00     0.162 HD
HETATM   17  O   UNL     1     -40.790  56.951 -54.720  1.00  0.00    -0.268 OA
BRANCH  15  18
HETATM   18  C   UNL     1     -40.357  54.278 -55.420  1.00  0.00     0.161 C 
BRANCH  18  19
HETATM   19  C   UNL     1     -40.345  53.502 -54.128  1.00  0.00    -0.040 A 
HETATM   20  C   UNL     1     -39.975  52.152 -54.106  1.00  0.00     0.011 A 
HETATM   21  C   UNL     1     -39.918  51.455 -52.896  1.00  0.00     0.037 A 
HETATM   22  C   UNL     1     -40.218  52.091 -51.689  1.00  0.00     0.068 A 
HETATM   23  C   UNL     1     -40.598  53.432 -51.703  1.00  0.00     0.037 A 
HETATM   24  C   UNL     1     -40.655  54.133 -52.913  1.00  0.00     0.011 A 
BRANCH  22  25
HETATM   25  O   UNL     1     -40.105  51.299 -50.580  1.00  0.00    -0.356 OA
HETATM   26  C   UNL     1     -39.647  49.968 -50.788  1.00  0.00     0.210 C 
ENDBRANCH  22  25
ENDBRANCH  18  19
ENDBRANCH  15  18
ENDBRANCH   1  14
BRANCH   1  27
HETATM   27  O   UNL     1     -44.112  55.906 -55.313  1.00  0.00    -0.359 OA
HETATM   28  H   UNL     1     -44.955  56.282 -55.631  1.00  0.00     0.213 HD
ENDBRANCH   1  27
BRANCH   2  29
HETATM   29  C   UNL     1     -43.725  56.908 -57.919  1.00  0.00     0.042 A 
HETATM   30  C   UNL     1     -43.051  55.863 -58.561  1.00  0.00     0.030 A 
HETATM   31  C   UNL     1     -43.588  55.253 -59.699  1.00  0.00     0.002 A 
HETATM   32  C   UNL     1     -44.804  55.689 -60.218  1.00  0.00     0.000 A 
HETATM   33  C   UNL     1     -45.482  56.737 -59.602  1.00  0.00     0.002 A 
HETATM   34  C   UNL     1     -44.943  57.344 -58.464  1.00  0.00     0.030 A 
ENDBRANCH   2  29
TORSDOF 6
ENDMDL
MODEL 3
REMARK VINA RESULT:      -8.4      2.316      3.577
REMARK  6 active torsions:
REMARK  status: ('A' for Active; 'I' for Inactive)
REMARK    1  A    between atoms: O_2  and  C_3 
REMARK    2  A    between atoms: C_6  and  C_7 
REMARK    3  A    between atoms: C_7  and  N_8 
REMARK       I    between atoms: N_8  and  C_9 
REMARK    4  A    between atoms: C_9  and  C_10 
REMARK    5  A    between atoms: C_10  and  O_11 
REMARK    6  A    between atoms: N_12  and  C_13 
ROOT
HETATM    1  C   UNL     1     -43.575  57.042 -55.242  1.00  0.00     0.256 C 
HETATM    2  N   UNL     1     -43.398  57.622 -56.576  1.00  0.00    -0.254 N 
HETATM    3  C   UNL     1     -42.359  58.551 -56.712  1.00  0.00     0.330 C 
HETATM    4  O   UNL     1     -41.824  58.905 -57.761  1.00  0.00    -0.246 OA
HETATM    5  N   UNL     1     -41.992  59.218 -55.560  1.00  0.00    -0.308 N 
HETATM    6  C   UNL     1     -42.729  59.182 -54.376  1.00  0.00     0.048 A 
HETATM    7  C   UNL     1     -43.644  58.146 -54.208  1.00  0.00     0.035 A 
HETATM    8  C   UNL     1     -42.585  60.181 -53.417  1.00  0.00     0.031 A 
HETATM    9  C   UNL     1     -43.409  60.168 -52.290  1.00  0.00     0.021 A 
HETATM   10  C   UNL     1     -44.360  59.158 -52.135  1.00  0.00     0.011 A 
HETATM   11 BR   UNL     1     -45.485  59.156 -50.616  1.00  0.00    -0.051 Br
HETATM   12  C   UNL     1     -44.479  58.142 -53.083  1.00  0.00     0.034 A 
HETATM   13  H   UNL     1     -41.328  59.965 -55.723  1.00  0.00     0.170 HD
ENDROOT
BRANCH   1  14
HETATM   14  C   UNL     1     -42.349  56.063 -54.942  1.00  0.00     0.279 C 
HETATM   15  N   UNL     1     -42.650  54.713 -54.898  1.00  0.00    -0.352 N 
HETATM   16  H   UNL     1     -43.575  54.398 -55.162  1.00  0.00     0.162 HD
HETATM   17  O   UNL     1     -41.186  56.461 -54.843  1.00  0.00    -0.268 OA
BRANCH  15  18
HETATM   18  C   UNL     1     -41.642  53.707 -54.654  1.00  0.00     0.161 C 
BRANCH  18  19
HETATM   19  C   UNL     1     -41.398  53.527 -53.177  1.00  0.00    -0.040 A 
HETATM   20  C   UNL     1     -40.233  52.904 -52.713  1.00  0.00     0.011 A 
HETATM   21  C   UNL     1     -39.993  52.787 -51.342  1.00  0.00     0.037 A 
HETATM   22  C   UNL     1     -40.901  53.296 -50.410  1.00  0.00     0.068 A 
HETATM   23  C   UNL     1     -42.069  53.907 -50.864  1.00  0.00     0.037 A 
HETATM   24  C   UNL     1     -42.312  54.027 -52.237  1.00  0.00     0.011 A 
BRANCH  22  25
HETATM   25  O   UNL     1     -40.534  53.131 -49.103  1.00  0.00    -0.356 OA
HETATM   26  C   UNL     1     -40.609  54.280 -48.268  1.00  0.00     0.210 C 
ENDBRANCH  22  25
ENDBRANCH  18  19
ENDBRANCH  15  18
ENDBRANCH   1  14
BRANCH   1  27
HETATM   27  O   UNL     1     -44.744  56.225 -55.134  1.00  0.00    -0.359 OA
HETATM   28  H   UNL     1     -44.736  55.913 -54.209  1.00  0.00     0.213 HD
ENDBRANCH   1  27
BRANCH   2  29
HETATM   29  C   UNL     1     -44.070  57.107 -57.725  1.00  0.00     0.042 A 
HETATM   30  C   UNL     1     -43.567  56.013 -58.440  1.00  0.00     0.030 A 
HETATM   31  C   UNL     1     -44.211  55.550 -59.591  1.00  0.00     0.002 A 
HETATM   32  C   UNL     1     -45.363  56.183 -60.050  1.00  0.00     0.000 A 
HETATM   33  C   UNL     1     -45.869  57.281 -59.361  1.00  0.00     0.002 A 
HETATM   34  C   UNL     1     -45.224  57.741 -58.210  1.00  0.00     0.030 A 
ENDBRANCH   2  29
TORSDOF 6
ENDMDL
MODEL 4
REMARK VINA RESULT:      -8.2      2.613      5.025
REMARK  6 active torsions:
REMARK  status: ('A' for Active; 'I' for Inactive)
REMARK    1  A    between atoms: O_2  and  C_3 
REMARK    2  A    between atoms: C_6  and  C_7 
REMARK    3  A    between atoms: C_7  and  N_8 
REMARK       I    between atoms: N_8  and  C_9 
REMARK    4  A    between atoms: C_9  and  C_10 
REMARK    5  A    between atoms: C_10  and  O_11 
REMARK    6  A    between atoms: N_12  and  C_13 
ROOT
HETATM    1  C   UNL     1     -42.524  57.736 -54.924  1.00  0.00     0.256 C 
HETATM    2  N   UNL     1     -43.065  57.906 -53.573  1.00  0.00    -0.254 N 
HETATM    3  C   UNL     1     -44.388  57.494 -53.381  1.00  0.00     0.330 C 
HETATM    4  O   UNL     1     -44.929  57.236 -52.307  1.00  0.00    -0.246 OA
HETATM    5  N   UNL     1     -45.191  57.499 -54.506  1.00  0.00    -0.308 N 
HETATM    6  C   UNL     1     -44.826  58.091 -55.714  1.00  0.00     0.048 A 
HETATM    7  C   UNL     1     -43.473  58.341 -55.936  1.00  0.00     0.035 A 
HETATM    8  C   UNL     1     -45.791  58.462 -56.647  1.00  0.00     0.031 A 
HETATM    9  C   UNL     1     -45.398  59.141 -57.802  1.00  0.00     0.021 A 
HETATM   10  C   UNL     1     -44.050  59.436 -58.011  1.00  0.00     0.011 A 
HETATM   11 BR   UNL     1     -43.527  60.372 -59.568  1.00  0.00    -0.051 Br
HETATM   12  C   UNL     1     -43.083  59.034 -57.090  1.00  0.00     0.034 A 
HETATM   13  H   UNL     1     -46.166  57.316 -54.304  1.00  0.00     0.170 HD
ENDROOT
BRANCH   1  14
HETATM   14  C   UNL     1     -42.323  56.175 -55.202  1.00  0.00     0.279 C 
HETATM   15  N   UNL     1     -41.017  55.719 -55.171  1.00  0.00    -0.352 N 
HETATM   16  H   UNL     1     -40.277  56.340 -54.871  1.00  0.00     0.162 HD
HETATM   17  O   UNL     1     -43.267  55.396 -55.348  1.00  0.00    -0.268 OA
BRANCH  15  18
HETATM   18  C   UNL     1     -40.681  54.330 -55.387  1.00  0.00     0.161 C 
BRANCH  18  19
HETATM   19  C   UNL     1     -40.464  53.613 -54.078  1.00  0.00    -0.040 A 
HETATM   20  C   UNL     1     -40.889  54.181 -52.871  1.00  0.00     0.011 A 
HETATM   21  C   UNL     1     -40.728  53.486 -51.669  1.00  0.00     0.037 A 
HETATM   22  C   UNL     1     -40.152  52.214 -51.649  1.00  0.00     0.068 A 
HETATM   23  C   UNL     1     -39.716  51.647 -52.845  1.00  0.00     0.037 A 
HETATM   24  C   UNL     1     -39.876  52.339 -54.051  1.00  0.00     0.011 A 
BRANCH  22  25
HETATM   25  O   UNL     1     -40.072  51.640 -50.411  1.00  0.00    -0.356 OA
HETATM   26  C   UNL     1     -40.071  50.218 -50.363  1.00  0.00     0.210 C 
ENDBRANCH  22  25
ENDBRANCH  18  19
ENDBRANCH  15  18
ENDBRANCH   1  14
BRANCH   1  27
HETATM   27  O   UNL     1     -41.228  58.317 -55.090  1.00  0.00    -0.359 OA
HETATM   28  H   UNL     1     -41.122  58.898 -54.313  1.00  0.00     0.213 HD
ENDBRANCH   1  27
BRANCH   2  29
HETATM   29  C   UNL     1     -42.237  58.240 -52.459  1.00  0.00     0.042 A 
HETATM   30  C   UNL     1     -41.521  57.262 -51.758  1.00  0.00     0.030 A 
HETATM   31  C   UNL     1     -40.752  57.599 -50.640  1.00  0.00     0.002 A 
HETATM   32  C   UNL     1     -40.698  58.919 -50.200  1.00  0.00     0.000 A 
HETATM   33  C   UNL     1     -41.415  59.901 -50.876  1.00  0.00     0.002 A 
HETATM   34  C   UNL     1     -42.182  59.562 -51.993  1.00  0.00     0.030 A 
ENDBRANCH   2  29
TORSDOF 6
ENDMDL
MODEL 5
REMARK VINA RESULT:      -8.2      2.337      3.122
REMARK  6 active torsions:
REMARK  status: ('A' for Active; 'I' for Inactive)
REMARK    1  A    between atoms: O_2  and  C_3 
REMARK    2  A    between atoms: C_6  and  C_7 
REMARK    3  A    between atoms: C_7  and  N_8 
REMARK       I    between atoms: N_8  and  C_9 
REMARK    4  A    between atoms: C_9  and  C_10 
REMARK    5  A    between atoms: C_10  and  O_11 
REMARK    6  A    between atoms: N_12  and  C_13 
ROOT
HETATM    1  C   UNL     1     -43.555  58.848 -54.744  1.00  0.00     0.256 C 
HETATM    2  N   UNL     1     -43.100  58.937 -56.134  1.00  0.00    -0.254 N 
HETATM    3  C   UNL     1     -42.196  59.965 -56.423  1.00  0.00     0.330 C 
HETATM    4  O   UNL     1     -41.447  60.033 -57.397  1.00  0.00    -0.246 OA
HETATM    5  N   UNL     1     -42.247  61.065 -55.589  1.00  0.00    -0.308 N 
HETATM    6  C   UNL     1     -43.267  61.289 -54.664  1.00  0.00     0.048 A 
HETATM    7  C   UNL     1     -44.048  60.202 -54.279  1.00  0.00     0.035 A 
HETATM    8  C   UNL     1     -43.522  62.570 -54.181  1.00  0.00     0.031 A 
HETATM    9  C   UNL     1     -44.613  62.773 -53.332  1.00  0.00     0.021 A 
HETATM   10  C   UNL     1     -45.428  61.697 -52.976  1.00  0.00     0.011 A 
HETATM   11 BR   UNL     1     -46.913  61.983 -51.843  1.00  0.00    -0.051 Br
HETATM   12  C   UNL     1     -45.149  60.411 -53.438  1.00  0.00     0.034 A 
HETATM   13  H   UNL     1     -41.670  61.835 -55.904  1.00  0.00     0.170 HD
ENDROOT
BRANCH   1  14
HETATM   14  C   UNL     1     -42.338  58.348 -53.837  1.00  0.00     0.279 C 
HETATM   15  N   UNL     1     -42.385  57.023 -53.441  1.00  0.00    -0.352 N 
HETATM   16  H   UNL     1     -43.097  56.412 -53.819  1.00  0.00     0.162 HD
HETATM   17  O   UNL     1     -41.366  59.059 -53.573  1.00  0.00    -0.268 OA
BRANCH  15  18
HETATM   18  C   UNL     1     -41.347  56.424 -52.633  1.00  0.00     0.161 C 
BRANCH  18  19
HETATM   19  C   UNL     1     -40.936  55.082 -53.183  1.00  0.00    -0.040 A 
HETATM   20  C   UNL     1     -40.923  53.945 -52.364  1.00  0.00     0.011 A 
HETATM   21  C   UNL     1     -40.590  52.696 -52.895  1.00  0.00     0.037 A 
HETATM   22  C   UNL     1     -40.275  52.555 -54.248  1.00  0.00     0.068 A 
HETATM   23  C   UNL     1     -40.275  53.683 -55.068  1.00  0.00     0.037 A 
HETATM   24  C   UNL     1     -40.608  54.935 -54.540  1.00  0.00     0.011 A 
BRANCH  22  25
HETATM   25  O   UNL     1     -39.987  51.277 -54.640  1.00  0.00    -0.356 OA
HETATM   26  C   UNL     1     -39.718  50.337 -53.606  1.00  0.00     0.210 C 
ENDBRANCH  22  25
ENDBRANCH  18  19
ENDBRANCH  15  18
ENDBRANCH   1  14
BRANCH   1  27
HETATM   27  O   UNL     1     -44.591  57.881 -54.551  1.00  0.00    -0.359 OA
HETATM   28  H   UNL     1     -45.308  58.379 -54.115  1.00  0.00     0.213 HD
ENDBRANCH   1  27
BRANCH   2  29
HETATM   29  C   UNL     1     -43.360  57.906 -57.086  1.00  0.00     0.042 A 
HETATM   30  C   UNL     1     -44.354  58.043 -58.063  1.00  0.00     0.030 A 
HETATM   31  C   UNL     1     -44.629  57.005 -58.958  1.00  0.00     0.002 A 
HETATM   32  C   UNL     1     -43.921  55.808 -58.881  1.00  0.00     0.000 A 
HETATM   33  C   UNL     1     -42.940  55.649 -57.907  1.00  0.00     0.002 A 
HETATM   34  C   UNL     1     -42.666  56.688 -57.014  1.00  0.00     0.030 A 
ENDBRANCH   2  29
TORSDOF 6
ENDMDL
MODEL 6
REMARK VINA RESULT:      -8.2      2.376      6.240
REMARK  6 active torsions:
REMARK  status: ('A' for Active; 'I' for Inactive)
REMARK    1  A    between atoms: O_2  and  C_3 
REMARK    2  A    between atoms: C_6  and  C_7 
REMARK    3  A    between atoms: C_7  and  N_8 
REMARK       I    between atoms: N_8  and  C_9 
REMARK    4  A    between atoms: C_9  and  C_10 
REMARK    5  A    between atoms: C_10  and  O_11 
REMARK    6  A    between atoms: N_12  and  C_13 
ROOT
HETATM    1  C   UNL     1     -42.513  56.618 -52.686  1.00  0.00     0.256 C 
HETATM    2  N   UNL     1     -42.595  55.709 -51.540  1.00  0.00    -0.254 N 
HETATM    3  C   UNL     1     -43.873  55.493 -51.013  1.00  0.00     0.330 C 
HETATM    4  O   UNL     1     -44.224  54.556 -50.298  1.00  0.00    -0.246 OA
HETATM    5  N   UNL     1     -44.791  56.505 -51.223  1.00  0.00    -0.308 N 
HETATM    6  C   UNL     1     -44.452  57.769 -51.705  1.00  0.00     0.048 A 
HETATM    7  C   UNL     1     -43.235  57.910 -52.368  1.00  0.00     0.035 A 
HETATM    8  C   UNL     1     -45.287  58.862 -51.486  1.00  0.00     0.031 A 
HETATM    9  C   UNL     1     -44.871  60.130 -51.897  1.00  0.00     0.021 A 
HETATM   10  C   UNL     1     -43.633  60.288 -52.522  1.00  0.00     0.011 A 
HETATM   11 BR   UNL     1     -43.067  62.010 -53.059  1.00  0.00    -0.051 Br
HETATM   12  C   UNL     1     -42.815  59.186 -52.767  1.00  0.00     0.034 A 
HETATM   13  H   UNL     1     -45.660  56.368 -50.722  1.00  0.00     0.170 HD
ENDROOT
BRANCH   1  14
HETATM   14  C   UNL     1     -43.169  55.902 -53.955  1.00  0.00     0.279 C 
HETATM   15  N   UNL     1     -42.722  56.334 -55.191  1.00  0.00    -0.352 N 
HETATM   16  H   UNL     1     -41.943  56.978 -55.244  1.00  0.00     0.162 HD
HETATM   17  O   UNL     1     -43.959  54.961 -53.856  1.00  0.00    -0.268 OA
BRANCH  15  18
HETATM   18  C   UNL     1     -43.210  55.768 -56.428  1.00  0.00     0.161 C 
BRANCH  18  19
HETATM   19  C   UNL     1     -42.757  56.580 -57.614  1.00  0.00    -0.040 A 
HETATM   20  C   UNL     1     -42.837  56.060 -58.912  1.00  0.00     0.011 A 
HETATM   21  C   UNL     1     -42.463  56.840 -60.010  1.00  0.00     0.037 A 
HETATM   22  C   UNL     1     -42.013  58.151 -59.836  1.00  0.00     0.068 A 
HETATM   23  C   UNL     1     -41.920  58.672 -58.547  1.00  0.00     0.037 A 
HETATM   24  C   UNL     1     -42.295  57.895 -57.445  1.00  0.00     0.011 A 
BRANCH  22  25
HETATM   25  O   UNL     1     -41.697  58.806 -60.994  1.00  0.00    -0.356 OA
HETATM   26  C   UNL     1     -42.016  60.192 -61.052  1.00  0.00     0.210 C 
ENDBRANCH  22  25
ENDBRANCH  18  19
ENDBRANCH  15  18
ENDBRANCH   1  14
BRANCH   1  27
HETATM   27  O   UNL     1     -41.170  56.916 -53.075  1.00  0.00    -0.359 OA
HETATM   28  H   UNL     1     -40.882  57.604 -52.445  1.00  0.00     0.213 HD
ENDBRANCH   1  27
BRANCH   2  29
HETATM   29  C   UNL     1     -41.492  54.901 -51.130  1.00  0.00     0.042 A 
HETATM   30  C   UNL     1     -40.687  55.255 -50.041  1.00  0.00     0.030 A 
HETATM   31  C   UNL     1     -39.581  54.479 -49.683  1.00  0.00     0.002 A 
HETATM   32  C   UNL     1     -39.258  53.341 -50.417  1.00  0.00     0.000 A 
HETATM   33  C   UNL     1     -40.038  52.981 -51.512  1.00  0.00     0.002 A 
HETATM   34  C   UNL     1     -41.143  53.759 -51.868  1.00  0.00     0.030 A 
ENDBRANCH   2  29
TORSDOF 6
ENDMDL
MODEL 7
REMARK VINA RESULT:      -8.1      2.862      4.098
REMARK  6 active torsions:
REMARK  status: ('A' for Active; 'I' for Inactive)
REMARK    1  A    between atoms: O_2  and  C_3 
REMARK    2  A    between atoms: C_6  and  C_7 
REMARK    3  A    between atoms: C_7  and  N_8 
REMARK       I    between atoms: N_8  and  C_9 
REMARK    4  A    between atoms: C_9  and  C_10 
REMARK    5  A    between atoms: C_10  and  O_11 
REMARK    6  A    between atoms: N_12  and  C_13 
ROOT
HETATM    1  C   UNL     1     -44.212  57.660 -55.820  1.00  0.00     0.256 C 
HETATM    2  N   UNL     1     -44.148  58.317 -57.129  1.00  0.00    -0.254 N 
HETATM    3  C   UNL     1     -42.969  59.016 -57.411  1.00  0.00     0.330 C 
HETATM    4  O   UNL     1     -42.563  59.351 -58.522  1.00  0.00    -0.246 OA
HETATM    5  N   UNL     1     -42.263  59.476 -56.316  1.00  0.00    -0.308 N 
HETATM    6  C   UNL     1     -42.768  59.480 -55.016  1.00  0.00     0.048 A 
HETATM    7  C   UNL     1     -43.848  58.647 -54.732  1.00  0.00     0.035 A 
HETATM    8  C   UNL     1     -42.236  60.329 -54.048  1.00  0.00     0.031 A 
HETATM    9  C   UNL     1     -42.830  60.378 -52.785  1.00  0.00     0.021 A 
HETATM   10  C   UNL     1     -43.940  59.579 -52.505  1.00  0.00     0.011 A 
HETATM   11 BR   UNL     1     -44.750  59.665 -50.800  1.00  0.00    -0.051 Br
HETATM   12  C   UNL     1     -44.449  58.708 -53.468  1.00  0.00     0.034 A 
HETATM   13  H   UNL     1     -41.489  60.080 -56.562  1.00  0.00     0.170 HD
ENDROOT
BRANCH   1  14
HETATM   14  C   UNL     1     -43.203  56.421 -55.820  1.00  0.00     0.279 C 
HETATM   15  N   UNL     1     -43.667  55.264 -55.221  1.00  0.00    -0.352 N 
HETATM   16  H   UNL     1     -44.632  55.208 -54.920  1.00  0.00     0.162 HD
HETATM   17  O   UNL     1     -42.111  56.449 -56.392  1.00  0.00    -0.268 OA
BRANCH  15  18
HETATM   18  C   UNL     1     -42.874  54.057 -55.159  1.00  0.00     0.161 C 
BRANCH  18  19
HETATM   19  C   UNL     1     -42.241  53.890 -53.801  1.00  0.00    -0.040 A 
HETATM   20  C   UNL     1     -42.923  54.273 -52.640  1.00  0.00     0.011 A 
HETATM   21  C   UNL     1     -42.348  54.068 -51.383  1.00  0.00     0.037 A 
HETATM   22  C   UNL     1     -41.091  53.471 -51.260  1.00  0.00     0.068 A 
HETATM   23  C   UNL     1     -40.400  53.097 -52.411  1.00  0.00     0.037 A 
HETATM   24  C   UNL     1     -40.973  53.301 -53.672  1.00  0.00     0.011 A 
BRANCH  22  25
HETATM   25  O   UNL     1     -40.655  53.313 -49.973  1.00  0.00    -0.356 OA
HETATM   26  C   UNL     1     -39.819  54.338 -49.451  1.00  0.00     0.210 C 
ENDBRANCH  22  25
ENDBRANCH  18  19
ENDBRANCH  15  18
ENDBRANCH   1  14
BRANCH   1  27
HETATM   27  O   UNL     1     -45.496  57.099 -55.533  1.00  0.00    -0.359 OA
HETATM   28  H   UNL     1     -45.469  56.911 -54.576  1.00  0.00     0.213 HD
ENDBRANCH   1  27
BRANCH   2  29
HETATM   29  C   UNL     1     -45.111  58.068 -58.152  1.00  0.00     0.042 A 
HETATM   30  C   UNL     1     -44.994  56.976 -59.020  1.00  0.00     0.030 A 
HETATM   31  C   UNL     1     -45.919  56.773 -60.048  1.00  0.00     0.002 A 
HETATM   32  C   UNL     1     -46.970  57.668 -60.230  1.00  0.00     0.000 A 
HETATM   33  C   UNL     1     -47.094  58.768 -59.387  1.00  0.00     0.002 A 
HETATM   34  C   UNL     1     -46.168  58.968 -58.359  1.00  0.00     0.030 A 
ENDBRANCH   2  29
TORSDOF 6
ENDMDL
MODEL 8
REMARK VINA RESULT:      -8.0      3.088      5.523
REMARK  6 active torsions:
REMARK  status: ('A' for Active; 'I' for Inactive)
REMARK    1  A    between atoms: O_2  and  C_3 
REMARK    2  A    between atoms: C_6  and  C_7 
REMARK    3  A    between atoms: C_7  and  N_8 
REMARK       I    between atoms: N_8  and  C_9 
REMARK    4  A    between atoms: C_9  and  C_10 
REMARK    5  A    between atoms: C_10  and  O_11 
REMARK    6  A    between atoms: N_12  and  C_13 
ROOT
HETATM    1  C   UNL     1     -42.800  58.408 -55.862  1.00  0.00     0.256 C 
HETATM    2  N   UNL     1     -44.153  58.353 -55.301  1.00  0.00    -0.254 N 
HETATM    3  C   UNL     1     -45.192  58.144 -56.215  1.00  0.00     0.330 C 
HETATM    4  O   UNL     1     -46.326  57.743 -55.959  1.00  0.00    -0.246 OA
HETATM    5  N   UNL     1     -44.944  58.548 -57.513  1.00  0.00    -0.308 N 
HETATM    6  C   UNL     1     -43.851  59.330 -57.885  1.00  0.00     0.048 A 
HETATM    7  C   UNL     1     -42.763  59.386 -57.016  1.00  0.00     0.035 A 
HETATM    8  C   UNL     1     -43.872  60.068 -59.065  1.00  0.00     0.031 A 
HETATM    9  C   UNL     1     -42.802  60.917 -59.358  1.00  0.00     0.021 A 
HETATM   10  C   UNL     1     -41.728  61.014 -58.471  1.00  0.00     0.011 A 
HETATM   11 BR   UNL     1     -40.292  62.178 -58.864  1.00  0.00    -0.051 Br
HETATM   12  C   UNL     1     -41.697  60.249 -57.306  1.00  0.00     0.034 A 
HETATM   13  H   UNL     1     -45.758  58.496 -58.112  1.00  0.00     0.170 HD
ENDROOT
BRANCH   1  14
HETATM   14  C   UNL     1     -42.388  56.943 -56.350  1.00  0.00     0.279 C 
HETATM   15  N   UNL     1     -41.842  56.116 -55.384  1.00  0.00    -0.352 N 
HETATM   16  H   UNL     1     -41.832  56.414 -54.417  1.00  0.00     0.162 HD
HETATM   17  O   UNL     1     -42.617  56.530 -57.489  1.00  0.00    -0.268 OA
BRANCH  15  18
HETATM   18  C   UNL     1     -41.438  54.759 -55.672  1.00  0.00     0.161 C 
BRANCH  18  19
HETATM   19  C   UNL     1     -41.084  54.016 -54.408  1.00  0.00    -0.040 A 
HETATM   20  C   UNL     1     -40.317  52.846 -54.455  1.00  0.00     0.011 A 
HETATM   21  C   UNL     1     -39.952  52.193 -53.274  1.00  0.00     0.037 A 
HETATM   22  C   UNL     1     -40.335  52.698 -52.030  1.00  0.00     0.068 A 
HETATM   23  C   UNL     1     -41.109  53.856 -51.975  1.00  0.00     0.037 A 
HETATM   24  C   UNL     1     -41.475  54.513 -53.155  1.00  0.00     0.011 A 
BRANCH  22  25
HETATM   25  O   UNL     1     -39.896  51.973 -50.957  1.00  0.00    -0.356 OA
HETATM   26  C   UNL     1     -39.624  50.595 -51.184  1.00  0.00     0.210 C 
ENDBRANCH  22  25
ENDBRANCH  18  19
ENDBRANCH  15  18
ENDBRANCH   1  14
BRANCH   1  27
HETATM   27  O   UNL     1     -41.807  58.778 -54.902  1.00  0.00    -0.359 OA
HETATM   28  H   UNL     1     -40.964  58.716 -55.390  1.00  0.00     0.213 HD
ENDBRANCH   1  27
BRANCH   2  29
HETATM   29  C   UNL     1     -44.391  58.271 -53.896  1.00  0.00     0.042 A 
HETATM   30  C   UNL     1     -44.797  59.387 -53.155  1.00  0.00     0.030 A 
HETATM   31  C   UNL     1     -44.979  59.303 -51.771  1.00  0.00     0.002 A 
HETATM   32  C   UNL     1     -44.745  58.102 -51.107  1.00  0.00     0.000 A 
HETATM   33  C   UNL     1     -44.326  56.986 -51.825  1.00  0.00     0.002 A 
HETATM   34  C   UNL     1     -44.146  57.073 -53.209  1.00  0.00     0.030 A 
ENDBRANCH   2  29
TORSDOF 6
ENDMDL
MODEL 9
REMARK VINA RESULT:      -7.9     15.924     18.179
REMARK  6 active torsions:
REMARK  status: ('A' for Active; 'I' for Inactive)
REMARK    1  A    between atoms: O_2  and  C_3 
REMARK    2  A    between atoms: C_6  and  C_7 
REMARK    3  A    between atoms: C_7  and  N_8 
REMARK       I    between atoms: N_8  and  C_9 
REMARK    4  A    between atoms: C_9  and  C_10 
REMARK    5  A    between atoms: C_10  and  O_11 
REMARK    6  A    between atoms: N_12  and  C_13 
ROOT
HETATM    1  C   UNL     1     -35.852  39.452 -52.730  1.00  0.00     0.256 C 
HETATM    2  N   UNL     1     -36.413  40.800 -52.860  1.00  0.00    -0.254 N 
HETATM    3  C   UNL     1     -35.497  41.857 -52.804  1.00  0.00     0.330 C 
HETATM    4  O   UNL     1     -35.676  43.006 -53.206  1.00  0.00    -0.246 OA
HETATM    5  N   UNL     1     -34.326  41.605 -52.115  1.00  0.00    -0.308 N 
HETATM    6  C   UNL     1     -34.126  40.482 -51.314  1.00  0.00     0.048 A 
HETATM    7  C   UNL     1     -34.960  39.383 -51.510  1.00  0.00     0.035 A 
HETATM    8  C   UNL     1     -33.153  40.481 -50.317  1.00  0.00     0.031 A 
HETATM    9  C   UNL     1     -33.046  39.377 -49.469  1.00  0.00     0.021 A 
HETATM   10  C   UNL     1     -33.907  38.290 -49.630  1.00  0.00     0.011 A 
HETATM   11 BR   UNL     1     -33.770  36.807 -48.466  1.00  0.00    -0.051 Br
HETATM   12  C   UNL     1     -34.859  38.282 -50.649  1.00  0.00     0.034 A 
HETATM   13  H   UNL     1     -33.749  42.428 -51.990  1.00  0.00     0.170 HD
ENDROOT
BRANCH   1  14
HETATM   14  C   UNL     1     -35.025  39.113 -54.055  1.00  0.00     0.279 C 
HETATM   15  N   UNL     1     -35.763  39.020 -55.221  1.00  0.00    -0.352 N 
HETATM   16  H   UNL     1     -36.742  39.276 -55.216  1.00  0.00     0.162 HD
HETATM   17  O   UNL     1     -33.795  39.024 -54.069  1.00  0.00    -0.268 OA
BRANCH  15  18
HETATM   18  C   UNL     1     -35.151  38.737 -56.499  1.00  0.00     0.161 C 
BRANCH  18  19
HETATM   19  C   UNL     1     -35.756  39.581 -57.592  1.00  0.00    -0.040 A 
HETATM   20  C   UNL     1     -36.240  38.993 -58.767  1.00  0.00     0.011 A 
HETATM   21  C   UNL     1     -36.844  39.779 -59.752  1.00  0.00     0.037 A 
HETATM   22  C   UNL     1     -36.987  41.157 -59.581  1.00  0.00     0.068 A 
HETATM   23  C   UNL     1     -36.497  41.752 -58.419  1.00  0.00     0.037 A 
HETATM   24  C   UNL     1     -35.892  40.968 -57.430  1.00  0.00     0.011 A 
BRANCH  22  25
HETATM   25  O   UNL     1     -37.612  41.802 -60.612  1.00  0.00    -0.356 OA
HETATM   26  C   UNL     1     -37.430  43.210 -60.691  1.00  0.00     0.210 C 
ENDBRANCH  22  25
ENDBRANCH  18  19
ENDBRANCH  15  18
ENDBRANCH   1  14
BRANCH   1  27
HETATM   27  O   UNL     1     -36.851  38.433 -52.639  1.00  0.00    -0.359 OA
HETATM   28  H   UNL     1     -36.464  37.672 -53.112  1.00  0.00     0.213 HD
ENDBRANCH   1  27
BRANCH   2  29
HETATM   29  C   UNL     1     -37.764  41.026 -53.261  1.00  0.00     0.042 A 
HETATM   30  C   UNL     1     -38.803  41.104 -52.326  1.00  0.00     0.030 A 
HETATM   31  C   UNL     1     -40.128  41.278 -52.738  1.00  0.00     0.002 A 
HETATM   32  C   UNL     1     -40.433  41.365 -54.093  1.00  0.00     0.000 A 
HETATM   33  C   UNL     1     -39.415  41.274 -55.038  1.00  0.00     0.002 A 
HETATM   34  C   UNL     1     -38.091  41.101 -54.623  1.00  0.00     0.030 A 
ENDBRANCH   2  29
TORSDOF 6
ENDMDL
MODEL 10
REMARK VINA RESULT:      -7.9      2.958      6.907
REMARK  6 active torsions:
REMARK  status: ('A' for Active; 'I' for Inactive)
REMARK    1  A    between atoms: O_2  and  C_3 
REMARK    2  A    between atoms: C_6  and  C_7 
REMARK    3  A    between atoms: C_7  and  N_8 
REMARK       I    between atoms: N_8  and  C_9 
REMARK    4  A    between atoms: C_9  and  C_10 
REMARK    5  A    between atoms: C_10  and  O_11 
REMARK    6  A    between atoms: N_12  and  C_13 
ROOT
HETATM    1  C   UNL     1     -41.603  56.408 -54.456  1.00  0.00     0.256 C 
HETATM    2  N   UNL     1     -42.806  56.558 -55.279  1.00  0.00    -0.254 N 
HETATM    3  C   UNL     1     -44.010  56.732 -54.586  1.00  0.00     0.330 C 
HETATM    4  O   UNL     1     -45.057  57.194 -55.038  1.00  0.00    -0.246 OA
HETATM    5  N   UNL     1     -44.049  56.216 -53.305  1.00  0.00    -0.308 N 
HETATM    6  C   UNL     1     -43.074  55.366 -52.783  1.00  0.00     0.048 A 
HETATM    7  C   UNL     1     -41.829  55.339 -53.408  1.00  0.00     0.035 A 
HETATM    8  C   UNL     1     -43.357  54.537 -51.701  1.00  0.00     0.031 A 
HETATM    9  C   UNL     1     -42.390  53.628 -51.267  1.00  0.00     0.021 A 
HETATM   10  C   UNL     1     -41.155  53.563 -51.915  1.00  0.00     0.011 A 
HETATM   11 BR   UNL     1     -39.857  52.318 -51.335  1.00  0.00    -0.051 Br
HETATM   12  C   UNL     1     -40.865  54.417 -52.979  1.00  0.00     0.034 A 
HETATM   13  H   UNL     1     -44.970  56.250 -52.887  1.00  0.00     0.170 HD
ENDROOT
BRANCH   1  14
HETATM   14  C   UNL     1     -41.274  57.813 -53.768  1.00  0.00     0.279 C 
HETATM   15  N   UNL     1     -42.286  58.755 -53.806  1.00  0.00    -0.352 N 
HETATM   16  H   UNL     1     -43.202  58.493 -54.149  1.00  0.00     0.162 HD
HETATM   17  O   UNL     1     -40.224  58.029 -53.161  1.00  0.00    -0.268 OA
BRANCH  15  18
HETATM   18  C   UNL     1     -42.142  60.064 -53.211  1.00  0.00     0.161 C 
BRANCH  18  19
HETATM   19  C   UNL     1     -43.162  60.284 -52.123  1.00  0.00    -0.040 A 
HETATM   20  C   UNL     1     -44.150  59.326 -51.863  1.00  0.00     0.011 A 
HETATM   21  C   UNL     1     -45.060  59.515 -50.820  1.00  0.00     0.037 A 
HETATM   22  C   UNL     1     -44.996  60.653 -50.012  1.00  0.00     0.068 A 
HETATM   23  C   UNL     1     -44.022  61.616 -50.271  1.00  0.00     0.037 A 
HETATM   24  C   UNL     1     -43.109  61.430 -51.315  1.00  0.00     0.011 A 
BRANCH  22  25
HETATM   25  O   UNL     1     -45.933  60.703 -49.017  1.00  0.00    -0.356 OA
HETATM   26  C   UNL     1     -45.454  60.940 -47.699  1.00  0.00     0.210 C 
ENDBRANCH  22  25
ENDBRANCH  18  19
ENDBRANCH  15  18
ENDBRANCH   1  14
BRANCH   1  27
HETATM   27  O   UNL     1     -40.437  56.079 -55.216  1.00  0.00    -0.359 OA
HETATM   28  H   UNL     1     -40.064  56.944 -55.471  1.00  0.00     0.213 HD
ENDBRANCH   1  27
BRANCH   2  29
HETATM   29  C   UNL     1     -42.741  56.761 -56.690  1.00  0.00     0.042 A 
HETATM   30  C   UNL     1     -42.448  58.016 -57.238  1.00  0.00     0.030 A 
HETATM   31  C   UNL     1     -42.436  58.209 -58.623  1.00  0.00     0.002 A 
HETATM   32  C   UNL     1     -42.728  57.151 -59.480  1.00  0.00     0.000 A 
HETATM   33  C   UNL     1     -43.036  55.901 -58.952  1.00  0.00     0.002 A 
HETATM   34  C   UNL     1     -43.047  55.710 -57.568  1.00  0.00     0.030 A 
ENDBRANCH   2  29
TORSDOF 6
ENDMDL
