MODEL 1
REMARK VINA RESULT:      -7.7      0.000      0.000
REMARK  8 active torsions:
REMARK  status: ('A' for Active; 'I' for Inactive)
REMARK    1  A    between atoms: C_2  and  O_3 
REMARK    2  A    between atoms: O_3  and  C_4 
REMARK    3  A    between atoms: C_5  and  N_6 
REMARK       I    between atoms: N_6  and  C_7 
REMARK       I    between atoms: C_7  and  N_8 
REMARK    4  A    between atoms: N_8  and  C_9 
REMARK    5  A    between atoms: C_9  and  C_10 
REMARK       I    between atoms: C_10  and  N_11 
REMARK    6  A    between atoms: N_11  and  N_12 
REMARK    7  A    between atoms: C_13  and  C_14 
REMARK    8  A    between atoms: C_17  and  N_18 
REMARK       I    between atoms: N_18  and  C_19 
ROOT
HETATM    1  C   UNL     1     -44.548  57.773 -51.549  1.00  0.00     0.255 C 
HETATM    2  N   UNL     1     -44.712  59.148 -51.500  1.00  0.00    -0.246 N 
HETATM    3  O   UNL     1     -44.746  57.003 -50.607  1.00  0.00    -0.270 OA
HETATM    4  H   UNL     1     -44.673  59.685 -52.371  1.00  0.00     0.192 HD
ENDROOT
BRANCH   1   5
HETATM    5  C   UNL     1     -44.241  57.231 -52.948  1.00  0.00     0.228 C 
BRANCH   5   6
HETATM    6  N   UNL     1     -42.892  56.713 -53.147  1.00  0.00    -0.334 N 
HETATM    7  C   UNL     1     -42.678  55.359 -53.273  1.00  0.00     0.321 C 
HETATM    8  N   UNL     1     -41.329  55.081 -53.261  1.00  0.00    -0.306 N 
HETATM    9  O   UNL     1     -43.595  54.570 -53.469  1.00  0.00    -0.247 OA
HETATM   10  H   UNL     1     -40.782  55.746 -53.787  1.00  0.00     0.171 HD
HETATM   11  H   UNL     1     -42.175  57.174 -52.606  1.00  0.00     0.164 HD
BRANCH   8  12
HETATM   12  C   UNL     1     -40.784  53.785 -53.111  1.00  0.00     0.069 A 
HETATM   13  C   UNL     1     -40.243  53.307 -51.899  1.00  0.00     0.095 A 
HETATM   14  C   UNL     1     -39.747  51.999 -51.846  1.00  0.00     0.039 A 
HETATM   15  C   UNL     1     -39.738  51.194 -52.988  1.00  0.00     0.003 A 
HETATM   16  C   UNL     1     -40.213  51.691 -54.197  1.00  0.00     0.002 A 
HETATM   17  C   UNL     1     -40.726  52.985 -54.261  1.00  0.00     0.032 A 
BRANCH  13  18
HETATM   18  O   UNL     1     -40.163  54.198 -50.860  1.00  0.00    -0.349 OA
BRANCH  18  19
HETATM   19  C   UNL     1     -41.179  54.158 -49.861  1.00  0.00     0.171 C 
HETATM   20  C   UNL     1     -41.427  55.579 -49.389  1.00  0.00     0.034 C 
ENDBRANCH  18  19
ENDBRANCH  13  18
ENDBRANCH   8  12
ENDBRANCH   5   6
ENDBRANCH   1   5
BRANCH   2  21
HETATM   21  N   UNL     1     -45.135  59.741 -50.349  1.00  0.00    -0.184 NA
HETATM   22  C   UNL     1     -44.393  60.708 -49.914  1.00  0.00     0.150 C 
BRANCH  22  23
HETATM   23  C   UNL     1     -44.762  61.475 -48.706  1.00  0.00    -0.017 A 
HETATM   24  C   UNL     1     -44.619  62.863 -48.669  1.00  0.00     0.015 A 
HETATM   25  C   UNL     1     -44.925  63.572 -47.501  1.00  0.00     0.030 A 
HETATM   26  C   UNL     1     -45.377  62.901 -46.363  1.00  0.00     0.034 A 
HETATM   27  C   UNL     1     -45.535  61.509 -46.416  1.00  0.00     0.030 A 
HETATM   28  C   UNL     1     -45.228  60.794 -47.582  1.00  0.00     0.015 A 
BRANCH  26  29
HETATM   29  N   UNL     1     -45.672  63.536 -45.139  1.00  0.00    -0.328 N 
HETATM   30  C   UNL     1     -46.855  64.156 -44.776  1.00  0.00     0.218 C 
HETATM   31  C   UNL     1     -46.780  64.774 -43.402  1.00  0.00     0.117 C 
HETATM   32  O   UNL     1     -47.890  64.215 -45.429  1.00  0.00    -0.274 OA
HETATM   33  H   UNL     1     -44.927  63.547 -44.454  1.00  0.00     0.169 HD
ENDBRANCH  26  29
ENDBRANCH  22  23
ENDBRANCH   2  21
TORSDOF 8
ENDMDL
MODEL 2
REMARK VINA RESULT:      -7.5      2.162     11.486
REMARK  8 active torsions:
REMARK  status: ('A' for Active; 'I' for Inactive)
REMARK    1  A    between atoms: C_2  and  O_3 
REMARK    2  A    between atoms: O_3  and  C_4 
REMARK    3  A    between atoms: C_5  and  N_6 
REMARK       I    between atoms: N_6  and  C_7 
REMARK       I    between atoms: C_7  and  N_8 
REMARK    4  A    between atoms: N_8  and  C_9 
REMARK    5  A    between atoms: C_9  and  C_10 
REMARK       I    between atoms: C_10  and  N_11 
REMARK    6  A    between atoms: N_11  and  N_12 
REMARK    7  A    between atoms: C_13  and  C_14 
REMARK    8  A    between atoms: C_17  and  N_18 
REMARK       I    between atoms: N_18  and  C_19 
ROOT
HETATM    1  C   UNL     1     -44.666  58.857 -50.894  1.00  0.00     0.255 C 
HETATM    2  N   UNL     1     -43.353  58.575 -51.230  1.00  0.00    -0.246 N 
HETATM    3  O   UNL     1     -45.584  58.034 -50.872  1.00  0.00    -0.270 OA
HETATM    4  H   UNL     1     -42.635  59.286 -51.070  1.00  0.00     0.192 HD
ENDROOT
BRANCH   1   5
HETATM    5  C   UNL     1     -44.887  60.282 -50.379  1.00  0.00     0.228 C 
BRANCH   5   6
HETATM    6  N   UNL     1     -45.468  60.394 -49.046  1.00  0.00    -0.334 N 
HETATM    7  C   UNL     1     -45.040  61.375 -48.180  1.00  0.00     0.321 C 
HETATM    8  N   UNL     1     -45.578  61.181 -46.927  1.00  0.00    -0.306 N 
HETATM    9  O   UNL     1     -44.359  62.322 -48.555  1.00  0.00    -0.247 OA
HETATM   10  H   UNL     1     -46.545  60.891 -46.951  1.00  0.00     0.171 HD
HETATM   11  H   UNL     1     -45.645  59.514 -48.583  1.00  0.00     0.164 HD
BRANCH   8  12
HETATM   12  C   UNL     1     -45.142  61.849 -45.760  1.00  0.00     0.069 A 
HETATM   13  C   UNL     1     -45.469  63.189 -45.467  1.00  0.00     0.095 A 
HETATM   14  C   UNL     1     -45.005  63.756 -44.273  1.00  0.00     0.039 A 
HETATM   15  C   UNL     1     -44.188  63.024 -43.408  1.00  0.00     0.003 A 
HETATM   16  C   UNL     1     -43.814  61.724 -43.733  1.00  0.00     0.002 A 
HETATM   17  C   UNL     1     -44.282  61.141 -44.909  1.00  0.00     0.032 A 
BRANCH  13  18
HETATM   18  O   UNL     1     -46.161  63.885 -46.425  1.00  0.00    -0.349 OA
BRANCH  18  19
HETATM   19  C   UNL     1     -47.581  63.952 -46.312  1.00  0.00     0.171 C 
HETATM   20  C   UNL     1     -48.162  63.936 -47.714  1.00  0.00     0.034 C 
ENDBRANCH  18  19
ENDBRANCH  13  18
ENDBRANCH   8  12
ENDBRANCH   5   6
ENDBRANCH   1   5
BRANCH   2  21
HETATM   21  N   UNL     1     -42.994  57.302 -51.558  1.00  0.00    -0.184 NA
HETATM   22  C   UNL     1     -42.253  57.185 -52.612  1.00  0.00     0.150 C 
BRANCH  22  23
HETATM   23  C   UNL     1     -41.747  55.868 -53.052  1.00  0.00    -0.017 A 
HETATM   24  C   UNL     1     -40.810  55.771 -54.083  1.00  0.00     0.015 A 
HETATM   25  C   UNL     1     -40.376  54.515 -54.524  1.00  0.00     0.030 A 
HETATM   26  C   UNL     1     -40.872  53.349 -53.939  1.00  0.00     0.034 A 
HETATM   27  C   UNL     1     -41.798  53.457 -52.892  1.00  0.00     0.030 A 
HETATM   28  C   UNL     1     -42.238  54.711 -52.448  1.00  0.00     0.015 A 
BRANCH  26  29
HETATM   29  N   UNL     1     -40.512  52.047 -54.349  1.00  0.00    -0.328 N 
HETATM   30  C   UNL     1     -39.751  51.126 -53.652  1.00  0.00     0.218 C 
HETATM   31  C   UNL     1     -39.530  49.856 -54.436  1.00  0.00     0.117 C 
HETATM   32  O   UNL     1     -39.296  51.246 -52.520  1.00  0.00    -0.274 OA
HETATM   33  H   UNL     1     -40.843  51.763 -55.262  1.00  0.00     0.169 HD
ENDBRANCH  26  29
ENDBRANCH  22  23
ENDBRANCH   2  21
TORSDOF 8
ENDMDL
MODEL 3
REMARK VINA RESULT:      -7.5      2.270      3.541
REMARK  8 active torsions:
REMARK  status: ('A' for Active; 'I' for Inactive)
REMARK    1  A    between atoms: C_2  and  O_3 
REMARK    2  A    between atoms: O_3  and  C_4 
REMARK    3  A    between atoms: C_5  and  N_6 
REMARK       I    between atoms: N_6  and  C_7 
REMARK       I    between atoms: C_7  and  N_8 
REMARK    4  A    between atoms: N_8  and  C_9 
REMARK    5  A    between atoms: C_9  and  C_10 
REMARK       I    between atoms: C_10  and  N_11 
REMARK    6  A    between atoms: N_11  and  N_12 
REMARK    7  A    between atoms: C_13  and  C_14 
REMARK    8  A    between atoms: C_17  and  N_18 
REMARK       I    between atoms: N_18  and  C_19 
ROOT
HETATM    1  C   UNL     1     -43.902  57.446 -56.127  1.00  0.00     0.255 C 
HETATM    2  N   UNL     1     -44.465  56.951 -54.962  1.00  0.00    -0.246 N 
HETATM    3  O   UNL     1     -43.727  58.640 -56.377  1.00  0.00    -0.270 OA
HETATM    4  H   UNL     1     -44.428  55.945 -54.780  1.00  0.00     0.192 HD
ENDROOT
BRANCH   1   5
HETATM    5  C   UNL     1     -43.346  56.365 -57.059  1.00  0.00     0.228 C 
BRANCH   5   6
HETATM    6  N   UNL     1     -42.094  55.747 -56.639  1.00  0.00    -0.334 N 
HETATM    7  C   UNL     1     -42.098  54.719 -55.722  1.00  0.00     0.321 C 
HETATM    8  N   UNL     1     -40.813  54.416 -55.331  1.00  0.00    -0.306 N 
HETATM    9  O   UNL     1     -43.125  54.126 -55.414  1.00  0.00    -0.247 OA
HETATM   10  H   UNL     1     -40.152  54.432 -56.094  1.00  0.00     0.171 HD
HETATM   11  H   UNL     1     -41.326  56.388 -56.504  1.00  0.00     0.164 HD
BRANCH   8  12
HETATM   12  C   UNL     1     -40.489  53.600 -54.224  1.00  0.00     0.069 A 
HETATM   13  C   UNL     1     -40.616  54.024 -52.885  1.00  0.00     0.095 A 
HETATM   14  C   UNL     1     -40.290  53.132 -51.855  1.00  0.00     0.039 A 
HETATM   15  C   UNL     1     -39.797  51.858 -52.147  1.00  0.00     0.003 A 
HETATM   16  C   UNL     1     -39.611  51.467 -53.469  1.00  0.00     0.002 A 
HETATM   17  C   UNL     1     -39.948  52.337 -54.504  1.00  0.00     0.032 A 
BRANCH  13  18
HETATM   18  O   UNL     1     -40.978  55.331 -52.678  1.00  0.00    -0.349 OA
BRANCH  18  19
HETATM   19  C   UNL     1     -41.823  55.627 -51.569  1.00  0.00     0.171 C 
HETATM   20  C   UNL     1     -41.116  56.654 -50.704  1.00  0.00     0.034 C 
ENDBRANCH  18  19
ENDBRANCH  13  18
ENDBRANCH   8  12
ENDBRANCH   5   6
ENDBRANCH   1   5
BRANCH   2  21
HETATM   21  N   UNL     1     -44.860  57.810 -53.981  1.00  0.00    -0.184 NA
HETATM   22  C   UNL     1     -43.961  58.098 -53.096  1.00  0.00     0.150 C 
BRANCH  22  23
HETATM   23  C   UNL     1     -44.236  59.058 -52.007  1.00  0.00    -0.017 A 
HETATM   24  C   UNL     1     -43.194  59.737 -51.373  1.00  0.00     0.015 A 
HETATM   25  C   UNL     1     -43.464  60.607 -50.309  1.00  0.00     0.030 A 
HETATM   26  C   UNL     1     -44.774  60.805 -49.872  1.00  0.00     0.034 A 
HETATM   27  C   UNL     1     -45.816  60.134 -50.528  1.00  0.00     0.030 A 
HETATM   28  C   UNL     1     -45.552  59.261 -51.591  1.00  0.00     0.015 A 
BRANCH  26  29
HETATM   29  N   UNL     1     -45.126  61.635 -48.787  1.00  0.00    -0.328 N 
HETATM   30  C   UNL     1     -45.769  61.266 -47.618  1.00  0.00     0.218 C 
HETATM   31  C   UNL     1     -46.026  62.442 -46.710  1.00  0.00     0.117 C 
HETATM   32  O   UNL     1     -46.098  60.135 -47.281  1.00  0.00    -0.274 OA
HETATM   33  H   UNL     1     -44.889  62.614 -48.882  1.00  0.00     0.169 HD
ENDBRANCH  26  29
ENDBRANCH  22  23
ENDBRANCH   2  21
TORSDOF 8
ENDMDL
MODEL 4
REMARK VINA RESULT:      -7.3      6.779      9.940
REMARK  8 active torsions:
REMARK  status: ('A' for Active; 'I' for Inactive)
REMARK    1  A    between atoms: C_2  and  O_3 
REMARK    2  A    between atoms: O_3  and  C_4 
REMARK    3  A    between atoms: C_5  and  N_6 
REMARK       I    between atoms: N_6  and  C_7 
REMARK       I    between atoms: C_7  and  N_8 
REMARK    4  A    between atoms: N_8  and  C_9 
REMARK    5  A    between atoms: C_9  and  C_10 
REMARK       I    between atoms: C_10  and  N_11 
REMARK    6  A    between atoms: N_11  and  N_12 
REMARK    7  A    between atoms: C_13  and  C_14 
REMARK    8  A    between atoms: C_17  and  N_18 
REMARK       I    between atoms: N_18  and  C_19 
ROOT
HETATM    1  C   UNL     1     -44.323  54.449 -59.340  1.00  0.00     0.255 C 
HETATM    2  N   UNL     1     -43.702  55.213 -58.365  1.00  0.00    -0.246 N 
HETATM    3  O   UNL     1     -44.762  53.310 -59.173  1.00  0.00    -0.270 OA
HETATM    4  H   UNL     1     -43.510  56.200 -58.554  1.00  0.00     0.192 HD
ENDROOT
BRANCH   1   5
HETATM    5  C   UNL     1     -44.577  55.198 -60.651  1.00  0.00     0.228 C 
BRANCH   5   6
HETATM    6  N   UNL     1     -44.645  56.652 -60.549  1.00  0.00    -0.334 N 
HETATM    7  C   UNL     1     -43.494  57.395 -60.416  1.00  0.00     0.321 C 
HETATM    8  N   UNL     1     -43.797  58.712 -60.149  1.00  0.00    -0.306 N 
HETATM    9  O   UNL     1     -42.384  56.918 -60.621  1.00  0.00    -0.247 OA
HETATM   10  H   UNL     1     -44.581  59.055 -60.685  1.00  0.00     0.171 HD
HETATM   11  H   UNL     1     -45.405  57.005 -59.986  1.00  0.00     0.164 HD
BRANCH   8  12
HETATM   12  C   UNL     1     -42.859  59.671 -59.706  1.00  0.00     0.069 A 
HETATM   13  C   UNL     1     -42.470  59.809 -58.357  1.00  0.00     0.095 A 
HETATM   14  C   UNL     1     -41.515  60.777 -58.021  1.00  0.00     0.039 A 
HETATM   15  C   UNL     1     -40.992  61.630 -58.996  1.00  0.00     0.003 A 
HETATM   16  C   UNL     1     -41.427  61.533 -60.314  1.00  0.00     0.002 A 
HETATM   17  C   UNL     1     -42.363  60.563 -60.667  1.00  0.00     0.032 A 
BRANCH  13  18
HETATM   18  O   UNL     1     -43.125  59.029 -57.438  1.00  0.00    -0.349 OA
BRANCH  18  19
HETATM   19  C   UNL     1     -42.453  58.720 -56.220  1.00  0.00     0.171 C 
HETATM   20  C   UNL     1     -43.505  58.521 -55.144  1.00  0.00     0.034 C 
ENDBRANCH  18  19
ENDBRANCH  13  18
ENDBRANCH   8  12
ENDBRANCH   5   6
ENDBRANCH   1   5
BRANCH   2  21
HETATM   21  N   UNL     1     -43.554  54.715 -57.105  1.00  0.00    -0.184 NA
HETATM   22  C   UNL     1     -42.486  55.092 -56.479  1.00  0.00     0.150 C 
BRANCH  22  23
HETATM   23  C   UNL     1     -42.224  54.672 -55.087  1.00  0.00    -0.017 A 
HETATM   24  C   UNL     1     -43.246  54.677 -54.135  1.00  0.00     0.015 A 
HETATM   25  C   UNL     1     -42.973  54.325 -52.807  1.00  0.00     0.030 A 
HETATM   26  C   UNL     1     -41.682  53.963 -52.422  1.00  0.00     0.034 A 
HETATM   27  C   UNL     1     -40.667  53.942 -53.389  1.00  0.00     0.030 A 
HETATM   28  C   UNL     1     -40.933  54.296 -54.718  1.00  0.00     0.015 A 
BRANCH  26  29
HETATM   29  N   UNL     1     -41.318  53.629 -51.100  1.00  0.00    -0.328 N 
HETATM   30  C   UNL     1     -40.814  54.473 -50.127  1.00  0.00     0.218 C 
HETATM   31  C   UNL     1     -40.490  53.743 -48.847  1.00  0.00     0.117 C 
HETATM   32  O   UNL     1     -40.646  55.684 -50.213  1.00  0.00    -0.274 OA
HETATM   33  H   UNL     1     -41.431  52.657 -50.841  1.00  0.00     0.169 HD
ENDBRANCH  26  29
ENDBRANCH  22  23
ENDBRANCH   2  21
TORSDOF 8
ENDMDL
MODEL 5
REMARK VINA RESULT:      -7.2      2.540     11.719
REMARK  8 active torsions:
REMARK  status: ('A' for Active; 'I' for Inactive)
REMARK    1  A    between atoms: C_2  and  O_3 
REMARK    2  A    between atoms: O_3  and  C_4 
REMARK    3  A    between atoms: C_5  and  N_6 
REMARK       I    between atoms: N_6  and  C_7 
REMARK       I    between atoms: C_7  and  N_8 
REMARK    4  A    between atoms: N_8  and  C_9 
REMARK    5  A    between atoms: C_9  and  C_10 
REMARK       I    between atoms: C_10  and  N_11 
REMARK    6  A    between atoms: N_11  and  N_12 
REMARK    7  A    between atoms: C_13  and  C_14 
REMARK    8  A    between atoms: C_17  and  N_18 
REMARK       I    between atoms: N_18  and  C_19 
ROOT
HETATM    1  C   UNL     1     -41.774  59.780 -50.462  1.00  0.00     0.255 C 
HETATM    2  N   UNL     1     -42.413  58.648 -50.942  1.00  0.00    -0.246 N 
HETATM    3  O   UNL     1     -40.557  59.891 -50.301  1.00  0.00    -0.270 OA
HETATM    4  H   UNL     1     -43.405  58.703 -51.187  1.00  0.00     0.192 HD
ENDROOT
BRANCH   1   5
HETATM    5  C   UNL     1     -42.697  60.989 -50.283  1.00  0.00     0.228 C 
BRANCH   5   6
HETATM    6  N   UNL     1     -43.786  60.820 -49.327  1.00  0.00    -0.334 N 
HETATM    7  C   UNL     1     -44.394  61.919 -48.761  1.00  0.00     0.321 C 
HETATM    8  N   UNL     1     -45.255  61.532 -47.759  1.00  0.00    -0.306 N 
HETATM    9  O   UNL     1     -44.230  63.051 -49.201  1.00  0.00    -0.247 OA
HETATM   10  H   UNL     1     -45.784  60.703 -47.988  1.00  0.00     0.171 HD
HETATM   11  H   UNL     1     -43.665  60.060 -48.672  1.00  0.00     0.164 HD
BRANCH   8  12
HETATM   12  C   UNL     1     -45.830  62.416 -46.818  1.00  0.00     0.069 A 
HETATM   13  C   UNL     1     -47.125  62.958 -46.956  1.00  0.00     0.095 A 
HETATM   14  C   UNL     1     -47.615  63.809 -45.957  1.00  0.00     0.039 A 
HETATM   15  C   UNL     1     -46.816  64.158 -44.865  1.00  0.00     0.003 A 
HETATM   16  C   UNL     1     -45.516  63.673 -44.766  1.00  0.00     0.002 A 
HETATM   17  C   UNL     1     -45.021  62.811 -45.744  1.00  0.00     0.032 A 
BRANCH  13  18
HETATM   18  O   UNL     1     -47.797  62.677 -48.118  1.00  0.00    -0.349 OA
BRANCH  18  19
HETATM   19  C   UNL     1     -48.051  63.749 -49.023  1.00  0.00     0.171 C 
HETATM   20  C   UNL     1     -47.531  63.340 -50.389  1.00  0.00     0.034 C 
ENDBRANCH  18  19
ENDBRANCH  13  18
ENDBRANCH   8  12
ENDBRANCH   5   6
ENDBRANCH   1   5
BRANCH   2  21
HETATM   21  N   UNL     1     -41.682  57.551 -51.288  1.00  0.00    -0.184 NA
HETATM   22  C   UNL     1     -42.368  56.494 -51.581  1.00  0.00     0.150 C 
BRANCH  22  23
HETATM   23  C   UNL     1     -41.707  55.249 -52.024  1.00  0.00    -0.017 A 
HETATM   24  C   UNL     1     -41.438  54.221 -51.119  1.00  0.00     0.015 A 
HETATM   25  C   UNL     1     -40.767  53.067 -51.542  1.00  0.00     0.030 A 
HETATM   26  C   UNL     1     -40.360  52.932 -52.870  1.00  0.00     0.034 A 
HETATM   27  C   UNL     1     -40.652  53.962 -53.776  1.00  0.00     0.030 A 
HETATM   28  C   UNL     1     -41.321  55.119 -53.358  1.00  0.00     0.015 A 
BRANCH  26  29
HETATM   29  N   UNL     1     -39.649  51.819 -53.368  1.00  0.00    -0.328 N 
HETATM   30  C   UNL     1     -40.153  50.755 -54.095  1.00  0.00     0.218 C 
HETATM   31  C   UNL     1     -39.097  49.723 -54.405  1.00  0.00     0.117 C 
HETATM   32  O   UNL     1     -41.302  50.610 -54.495  1.00  0.00    -0.274 OA
HETATM   33  H   UNL     1     -38.660  51.795 -53.158  1.00  0.00     0.169 HD
ENDBRANCH  26  29
ENDBRANCH  22  23
ENDBRANCH   2  21
TORSDOF 8
ENDMDL
MODEL 6
REMARK VINA RESULT:      -7.2      5.448      8.137
REMARK  8 active torsions:
REMARK  status: ('A' for Active; 'I' for Inactive)
REMARK    1  A    between atoms: C_2  and  O_3 
REMARK    2  A    between atoms: O_3  and  C_4 
REMARK    3  A    between atoms: C_5  and  N_6 
REMARK       I    between atoms: N_6  and  C_7 
REMARK       I    between atoms: C_7  and  N_8 
REMARK    4  A    between atoms: N_8  and  C_9 
REMARK    5  A    between atoms: C_9  and  C_10 
REMARK       I    between atoms: C_10  and  N_11 
REMARK    6  A    between atoms: N_11  and  N_12 
REMARK    7  A    between atoms: C_13  and  C_14 
REMARK    8  A    between atoms: C_17  and  N_18 
REMARK       I    between atoms: N_18  and  C_19 
ROOT
HETATM    1  C   UNL     1     -42.405  56.839 -51.121  1.00  0.00     0.255 C 
HETATM    2  N   UNL     1     -41.676  56.991 -52.289  1.00  0.00    -0.246 N 
HETATM    3  O   UNL     1     -43.591  57.146 -50.982  1.00  0.00    -0.270 OA
HETATM    4  H   UNL     1     -40.747  56.568 -52.354  1.00  0.00     0.192 HD
ENDROOT
BRANCH   1   5
HETATM    5  C   UNL     1     -41.659  56.091 -50.012  1.00  0.00     0.228 C 
BRANCH   5   6
HETATM    6  N   UNL     1     -40.578  55.217 -50.453  1.00  0.00    -0.334 N 
HETATM    7  C   UNL     1     -40.859  54.042 -51.116  1.00  0.00     0.321 C 
HETATM    8  N   UNL     1     -39.716  53.289 -51.269  1.00  0.00    -0.306 N 
HETATM    9  O   UNL     1     -41.971  53.804 -51.573  1.00  0.00    -0.247 OA
HETATM   10  H   UNL     1     -38.906  53.842 -51.507  1.00  0.00     0.171 HD
HETATM   11  H   UNL     1     -39.812  55.124 -49.802  1.00  0.00     0.164 HD
BRANCH   8  12
HETATM   12  C   UNL     1     -39.704  51.933 -51.668  1.00  0.00     0.069 A 
HETATM   13  C   UNL     1     -39.576  51.523 -53.012  1.00  0.00     0.095 A 
HETATM   14  C   UNL     1     -39.553  50.153 -53.304  1.00  0.00     0.039 A 
HETATM   15  C   UNL     1     -39.705  49.206 -52.289  1.00  0.00     0.003 A 
HETATM   16  C   UNL     1     -39.895  49.616 -50.973  1.00  0.00     0.002 A 
HETATM   17  C   UNL     1     -39.904  50.975 -50.665  1.00  0.00     0.032 A 
BRANCH  13  18
HETATM   18  O   UNL     1     -39.567  52.508 -53.965  1.00  0.00    -0.349 OA
BRANCH  18  19
HETATM   19  C   UNL     1     -40.788  52.803 -54.639  1.00  0.00     0.171 C 
HETATM   20  C   UNL     1     -40.716  54.237 -55.131  1.00  0.00     0.034 C 
ENDBRANCH  18  19
ENDBRANCH  13  18
ENDBRANCH   8  12
ENDBRANCH   5   6
ENDBRANCH   1   5
BRANCH   2  21
HETATM   21  N   UNL     1     -42.274  57.504 -53.401  1.00  0.00    -0.184 NA
HETATM   22  C   UNL     1     -43.088  56.707 -54.015  1.00  0.00     0.150 C 
BRANCH  22  23
HETATM   23  C   UNL     1     -43.846  57.150 -55.203  1.00  0.00    -0.017 A 
HETATM   24  C   UNL     1     -43.290  57.057 -56.481  1.00  0.00     0.015 A 
HETATM   25  C   UNL     1     -43.999  57.526 -57.593  1.00  0.00     0.030 A 
HETATM   26  C   UNL     1     -45.266  58.089 -57.439  1.00  0.00     0.034 A 
HETATM   27  C   UNL     1     -45.824  58.161 -56.154  1.00  0.00     0.030 A 
HETATM   28  C   UNL     1     -45.118  57.695 -55.038  1.00  0.00     0.015 A 
BRANCH  26  29
HETATM   29  N   UNL     1     -46.029  58.616 -58.503  1.00  0.00    -0.328 N 
HETATM   30  C   UNL     1     -46.729  57.912 -59.466  1.00  0.00     0.218 C 
HETATM   31  C   UNL     1     -47.383  58.821 -60.478  1.00  0.00     0.117 C 
HETATM   32  O   UNL     1     -46.866  56.696 -59.540  1.00  0.00    -0.274 OA
HETATM   33  H   UNL     1     -46.057  59.626 -58.571  1.00  0.00     0.169 HD
ENDBRANCH  26  29
ENDBRANCH  22  23
ENDBRANCH   2  21
TORSDOF 8
ENDMDL
MODEL 7
REMARK VINA RESULT:      -7.1      6.690     10.578
REMARK  8 active torsions:
REMARK  status: ('A' for Active; 'I' for Inactive)
REMARK    1  A    between atoms: C_2  and  O_3 
REMARK    2  A    between atoms: O_3  and  C_4 
REMARK    3  A    between atoms: C_5  and  N_6 
REMARK       I    between atoms: N_6  and  C_7 
REMARK       I    between atoms: C_7  and  N_8 
REMARK    4  A    between atoms: N_8  and  C_9 
REMARK    5  A    between atoms: C_9  and  C_10 
REMARK       I    between atoms: C_10  and  N_11 
REMARK    6  A    between atoms: N_11  and  N_12 
REMARK    7  A    between atoms: C_13  and  C_14 
REMARK    8  A    between atoms: C_17  and  N_18 
REMARK       I    between atoms: N_18  and  C_19 
ROOT
HETATM    1  C   UNL     1     -41.728  59.284 -54.780  1.00  0.00     0.255 C 
HETATM    2  N   UNL     1     -42.196  57.988 -54.924  1.00  0.00    -0.246 N 
HETATM    3  O   UNL     1     -40.895  59.647 -53.947  1.00  0.00    -0.270 OA
HETATM    4  H   UNL     1     -42.768  57.753 -55.739  1.00  0.00     0.192 HD
ENDROOT
BRANCH   1   5
HETATM    5  C   UNL     1     -42.215  60.247 -55.866  1.00  0.00     0.228 C 
BRANCH   5   6
HETATM    6  N   UNL     1     -42.279  59.701 -57.217  1.00  0.00    -0.334 N 
HETATM    7  C   UNL     1     -43.330  58.894 -57.594  1.00  0.00     0.321 C 
HETATM    8  N   UNL     1     -43.095  58.343 -58.834  1.00  0.00    -0.306 N 
HETATM    9  O   UNL     1     -44.351  58.801 -56.923  1.00  0.00    -0.247 OA
HETATM   10  H   UNL     1     -42.677  58.992 -59.484  1.00  0.00     0.171 HD
HETATM   11  H   UNL     1     -41.395  59.393 -57.595  1.00  0.00     0.164 HD
BRANCH   8  12
HETATM   12  C   UNL     1     -43.844  57.280 -59.387  1.00  0.00     0.069 A 
HETATM   13  C   UNL     1     -45.066  57.464 -60.066  1.00  0.00     0.095 A 
HETATM   14  C   UNL     1     -45.723  56.347 -60.598  1.00  0.00     0.039 A 
HETATM   15  C   UNL     1     -45.203  55.063 -60.417  1.00  0.00     0.003 A 
HETATM   16  C   UNL     1     -44.031  54.879 -59.691  1.00  0.00     0.002 A 
HETATM   17  C   UNL     1     -43.358  55.983 -59.170  1.00  0.00     0.032 A 
BRANCH  13  18
HETATM   18  O   UNL     1     -45.580  58.735 -60.088  1.00  0.00    -0.349 OA
BRANCH  18  19
HETATM   19  C   UNL     1     -46.995  58.889 -60.010  1.00  0.00     0.171 C 
HETATM   20  C   UNL     1     -47.342  59.311 -58.593  1.00  0.00     0.034 C 
ENDBRANCH  18  19
ENDBRANCH  13  18
ENDBRANCH   8  12
ENDBRANCH   5   6
ENDBRANCH   1   5
BRANCH   2  21
HETATM   21  N   UNL     1     -41.720  57.000 -54.114  1.00  0.00    -0.184 NA
HETATM   22  C   UNL     1     -41.627  55.830 -54.658  1.00  0.00     0.150 C 
BRANCH  22  23
HETATM   23  C   UNL     1     -41.077  54.679 -53.912  1.00  0.00    -0.017 A 
HETATM   24  C   UNL     1     -40.634  53.538 -54.584  1.00  0.00     0.015 A 
HETATM   25  C   UNL     1     -40.161  52.435 -53.862  1.00  0.00     0.030 A 
HETATM   26  C   UNL     1     -40.125  52.464 -52.467  1.00  0.00     0.034 A 
HETATM   27  C   UNL     1     -40.554  53.622 -51.803  1.00  0.00     0.030 A 
HETATM   28  C   UNL     1     -41.030  54.727 -52.519  1.00  0.00     0.015 A 
BRANCH  26  29
HETATM   29  N   UNL     1     -39.696  51.383 -51.667  1.00  0.00    -0.328 N 
HETATM   30  C   UNL     1     -39.588  50.054 -52.036  1.00  0.00     0.218 C 
HETATM   31  C   UNL     1     -39.147  49.177 -50.891  1.00  0.00     0.117 C 
HETATM   32  O   UNL     1     -39.787  49.576 -53.147  1.00  0.00    -0.274 OA
HETATM   33  H   UNL     1     -39.450  51.609 -50.712  1.00  0.00     0.169 HD
ENDBRANCH  26  29
ENDBRANCH  22  23
ENDBRANCH   2  21
TORSDOF 8
ENDMDL
MODEL 8
REMARK VINA RESULT:      -6.9      5.680      8.635
REMARK  8 active torsions:
REMARK  status: ('A' for Active; 'I' for Inactive)
REMARK    1  A    between atoms: C_2  and  O_3 
REMARK    2  A    between atoms: O_3  and  C_4 
REMARK    3  A    between atoms: C_5  and  N_6 
REMARK       I    between atoms: N_6  and  C_7 
REMARK       I    between atoms: C_7  and  N_8 
REMARK    4  A    between atoms: N_8  and  C_9 
REMARK    5  A    between atoms: C_9  and  C_10 
REMARK       I    between atoms: C_10  and  N_11 
REMARK    6  A    between atoms: N_11  and  N_12 
REMARK    7  A    between atoms: C_13  and  C_14 
REMARK    8  A    between atoms: C_17  and  N_18 
REMARK       I    between atoms: N_18  and  C_19 
ROOT
HETATM    1  C   UNL     1     -43.649  57.498 -53.069  1.00  0.00     0.255 C 
HETATM    2  N   UNL     1     -43.907  56.821 -54.250  1.00  0.00    -0.246 N 
HETATM    3  O   UNL     1     -44.148  58.579 -52.750  1.00  0.00    -0.270 OA
HETATM    4  H   UNL     1     -43.567  55.862 -54.358  1.00  0.00     0.192 HD
ENDROOT
BRANCH   1   5
HETATM    5  C   UNL     1     -42.786  56.714 -52.076  1.00  0.00     0.228 C 
BRANCH   5   6
HETATM    6  N   UNL     1     -41.691  55.945 -52.656  1.00  0.00    -0.334 N 
HETATM    7  C   UNL     1     -41.784  54.575 -52.769  1.00  0.00     0.321 C 
HETATM    8  N   UNL     1     -40.578  54.040 -53.163  1.00  0.00    -0.306 N 
HETATM    9  O   UNL     1     -42.847  53.982 -52.628  1.00  0.00    -0.247 OA
HETATM   10  H   UNL     1     -40.110  54.591 -53.867  1.00  0.00     0.171 HD
HETATM   11  H   UNL     1     -40.766  56.252 -52.390  1.00  0.00     0.164 HD
BRANCH   8  12
HETATM   12  C   UNL     1     -40.267  52.662 -53.120  1.00  0.00     0.069 A 
HETATM   13  C   UNL     1     -39.762  52.017 -51.972  1.00  0.00     0.095 A 
HETATM   14  C   UNL     1     -39.505  50.641 -52.024  1.00  0.00     0.039 A 
HETATM   15  C   UNL     1     -39.696  49.925 -53.208  1.00  0.00     0.003 A 
HETATM   16  C   UNL     1     -40.133  50.578 -54.356  1.00  0.00     0.002 A 
HETATM   17  C   UNL     1     -40.409  51.943 -54.315  1.00  0.00     0.032 A 
BRANCH  13  18
HETATM   18  O   UNL     1     -39.473  52.808 -50.890  1.00  0.00    -0.349 OA
BRANCH  18  19
HETATM   19  C   UNL     1     -40.415  52.854 -49.821  1.00  0.00     0.171 C 
HETATM   20  C   UNL     1     -40.432  54.270 -49.274  1.00  0.00     0.034 C 
ENDBRANCH  18  19
ENDBRANCH  13  18
ENDBRANCH   8  12
ENDBRANCH   5   6
ENDBRANCH   1   5
BRANCH   2  21
HETATM   21  N   UNL     1     -44.783  57.343 -55.154  1.00  0.00    -0.184 NA
HETATM   22  C   UNL     1     -44.267  57.713 -56.281  1.00  0.00     0.150 C 
BRANCH  22  23
HETATM   23  C   UNL     1     -45.109  58.246 -57.372  1.00  0.00    -0.017 A 
HETATM   24  C   UNL     1     -44.532  58.853 -58.489  1.00  0.00     0.015 A 
HETATM   25  C   UNL     1     -45.342  59.398 -59.492  1.00  0.00     0.030 A 
HETATM   26  C   UNL     1     -46.733  59.341 -59.388  1.00  0.00     0.034 A 
HETATM   27  C   UNL     1     -47.303  58.713 -58.272  1.00  0.00     0.030 A 
HETATM   28  C   UNL     1     -46.497  58.167 -57.264  1.00  0.00     0.015 A 
BRANCH  26  29
HETATM   29  N   UNL     1     -47.617  59.897 -60.336  1.00  0.00    -0.328 N 
HETATM   30  C   UNL     1     -48.204  59.259 -61.416  1.00  0.00     0.218 C 
HETATM   31  C   UNL     1     -49.052  60.194 -62.241  1.00  0.00     0.117 C 
HETATM   32  O   UNL     1     -48.111  58.074 -61.714  1.00  0.00    -0.274 OA
HETATM   33  H   UNL     1     -47.838  60.877 -60.216  1.00  0.00     0.169 HD
ENDBRANCH  26  29
ENDBRANCH  22  23
ENDBRANCH   2  21
TORSDOF 8
ENDMDL
MODEL 9
REMARK VINA RESULT:      -6.8      2.581     11.285
REMARK  8 active torsions:
REMARK  status: ('A' for Active; 'I' for Inactive)
REMARK    1  A    between atoms: C_2  and  O_3 
REMARK    2  A    between atoms: O_3  and  C_4 
REMARK    3  A    between atoms: C_5  and  N_6 
REMARK       I    between atoms: N_6  and  C_7 
REMARK       I    between atoms: C_7  and  N_8 
REMARK    4  A    between atoms: N_8  and  C_9 
REMARK    5  A    between atoms: C_9  and  C_10 
REMARK       I    between atoms: C_10  and  N_11 
REMARK    6  A    between atoms: N_11  and  N_12 
REMARK    7  A    between atoms: C_13  and  C_14 
REMARK    8  A    between atoms: C_17  and  N_18 
REMARK       I    between atoms: N_18  and  C_19 
ROOT
HETATM    1  C   UNL     1     -41.840  59.832 -51.137  1.00  0.00     0.255 C 
HETATM    2  N   UNL     1     -42.721  58.764 -51.135  1.00  0.00    -0.246 N 
HETATM    3  O   UNL     1     -40.629  59.751 -51.353  1.00  0.00    -0.270 OA
HETATM    4  H   UNL     1     -43.727  58.948 -51.098  1.00  0.00     0.192 HD
ENDROOT
BRANCH   1   5
HETATM    5  C   UNL     1     -42.517  61.200 -50.999  1.00  0.00     0.228 C 
BRANCH   5   6
HETATM    6  N   UNL     1     -43.909  61.178 -50.564  1.00  0.00    -0.334 N 
HETATM    7  C   UNL     1     -44.402  62.180 -49.758  1.00  0.00     0.321 C 
HETATM    8  N   UNL     1     -45.669  61.865 -49.317  1.00  0.00    -0.306 N 
HETATM    9  O   UNL     1     -43.795  63.229 -49.578  1.00  0.00    -0.247 OA
HETATM   10  H   UNL     1     -46.242  61.439 -50.030  1.00  0.00     0.171 HD
HETATM   11  H   UNL     1     -44.264  60.266 -50.314  1.00  0.00     0.164 HD
BRANCH   8  12
HETATM   12  C   UNL     1     -46.343  62.548 -48.280  1.00  0.00     0.069 A 
HETATM   13  C   UNL     1     -45.968  62.461 -46.923  1.00  0.00     0.095 A 
HETATM   14  C   UNL     1     -46.687  63.194 -45.971  1.00  0.00     0.039 A 
HETATM   15  C   UNL     1     -47.793  63.960 -46.349  1.00  0.00     0.003 A 
HETATM   16  C   UNL     1     -48.199  63.992 -47.679  1.00  0.00     0.002 A 
HETATM   17  C   UNL     1     -47.482  63.281 -48.640  1.00  0.00     0.032 A 
BRANCH  13  18
HETATM   18  O   UNL     1     -44.959  61.586 -46.611  1.00  0.00    -0.349 OA
BRANCH  18  19
HETATM   19  C   UNL     1     -45.142  60.720 -45.494  1.00  0.00     0.171 C 
HETATM   20  C   UNL     1     -44.107  61.087 -44.445  1.00  0.00     0.034 C 
ENDBRANCH  18  19
ENDBRANCH  13  18
ENDBRANCH   8  12
ENDBRANCH   5   6
ENDBRANCH   1   5
BRANCH   2  21
HETATM   21  N   UNL     1     -42.265  57.507 -51.400  1.00  0.00    -0.184 NA
HETATM   22  C   UNL     1     -42.244  57.174 -52.650  1.00  0.00     0.150 C 
BRANCH  22  23
HETATM   23  C   UNL     1     -41.723  55.861 -53.085  1.00  0.00    -0.017 A 
HETATM   24  C   UNL     1     -40.817  55.767 -54.143  1.00  0.00     0.015 A 
HETATM   25  C   UNL     1     -40.369  54.513 -54.578  1.00  0.00     0.030 A 
HETATM   26  C   UNL     1     -40.821  53.347 -53.960  1.00  0.00     0.034 A 
HETATM   27  C   UNL     1     -41.717  53.453 -52.886  1.00  0.00     0.030 A 
HETATM   28  C   UNL     1     -42.170  54.704 -52.448  1.00  0.00     0.015 A 
BRANCH  26  29
HETATM   29  N   UNL     1     -40.447  52.047 -54.360  1.00  0.00    -0.328 N 
HETATM   30  C   UNL     1     -39.711  51.123 -53.638  1.00  0.00     0.218 C 
HETATM   31  C   UNL     1     -39.461  49.856 -54.417  1.00  0.00     0.117 C 
HETATM   32  O   UNL     1     -39.299  51.240 -52.490  1.00  0.00    -0.274 OA
HETATM   33  H   UNL     1     -40.743  51.765 -55.285  1.00  0.00     0.169 HD
ENDBRANCH  26  29
ENDBRANCH  22  23
ENDBRANCH   2  21
TORSDOF 8
ENDMDL
MODEL 10
REMARK VINA RESULT:      -6.7     18.847     21.574
REMARK  8 active torsions:
REMARK  status: ('A' for Active; 'I' for Inactive)
REMARK    1  A    between atoms: C_2  and  O_3 
REMARK    2  A    between atoms: O_3  and  C_4 
REMARK    3  A    between atoms: C_5  and  N_6 
REMARK       I    between atoms: N_6  and  C_7 
REMARK       I    between atoms: C_7  and  N_8 
REMARK    4  A    between atoms: N_8  and  C_9 
REMARK    5  A    between atoms: C_9  and  C_10 
REMARK       I    between atoms: C_10  and  N_11 
REMARK    6  A    between atoms: N_11  and  N_12 
REMARK    7  A    between atoms: C_13  and  C_14 
REMARK    8  A    between atoms: C_17  and  N_18 
REMARK       I    between atoms: N_18  and  C_19 
ROOT
HETATM    1  C   UNL     1     -35.535  41.187 -52.244  1.00  0.00     0.255 C 
HETATM    2  N   UNL     1     -34.254  40.667 -52.156  1.00  0.00    -0.246 N 
HETATM    3  O   UNL     1     -36.447  40.959 -51.447  1.00  0.00    -0.270 OA
HETATM    4  H   UNL     1     -33.525  41.034 -52.775  1.00  0.00     0.192 HD
ENDROOT
BRANCH   1   5
HETATM    5  C   UNL     1     -35.712  42.227 -53.354  1.00  0.00     0.228 C 
BRANCH   5   6
HETATM    6  N   UNL     1     -36.778  41.957 -54.313  1.00  0.00    -0.334 N 
HETATM    7  C   UNL     1     -36.491  41.374 -55.527  1.00  0.00     0.321 C 
HETATM    8  N   UNL     1     -37.601  41.385 -56.342  1.00  0.00    -0.306 N 
HETATM    9  O   UNL     1     -35.411  40.843 -55.754  1.00  0.00    -0.247 OA
HETATM   10  H   UNL     1     -38.457  41.172 -55.850  1.00  0.00     0.171 HD
HETATM   11  H   UNL     1     -37.482  42.678 -54.382  1.00  0.00     0.164 HD
BRANCH   8  12
HETATM   12  C   UNL     1     -37.576  41.104 -57.727  1.00  0.00     0.069 A 
HETATM   13  C   UNL     1     -37.761  39.810 -58.258  1.00  0.00     0.095 A 
HETATM   14  C   UNL     1     -37.739  39.637 -59.647  1.00  0.00     0.039 A 
HETATM   15  C   UNL     1     -37.487  40.718 -60.496  1.00  0.00     0.003 A 
HETATM   16  C   UNL     1     -37.241  41.980 -59.965  1.00  0.00     0.002 A 
HETATM   17  C   UNL     1     -37.276  42.171 -58.584  1.00  0.00     0.032 A 
BRANCH  13  18
HETATM   18  O   UNL     1     -37.868  38.778 -57.360  1.00  0.00    -0.349 OA
BRANCH  18  19
HETATM   19  C   UNL     1     -36.940  37.702 -57.459  1.00  0.00     0.171 C 
HETATM   20  C   UNL     1     -36.374  37.445 -56.074  1.00  0.00     0.034 C 
ENDBRANCH  18  19
ENDBRANCH  13  18
ENDBRANCH   8  12
ENDBRANCH   5   6
ENDBRANCH   1   5
BRANCH   2  21
HETATM   21  N   UNL     1     -33.923  39.846 -51.120  1.00  0.00    -0.184 NA
HETATM   22  C   UNL     1     -33.121  40.353 -50.241  1.00  0.00     0.150 C 
BRANCH  22  23
HETATM   23  C   UNL     1     -32.722  39.594 -49.038  1.00  0.00    -0.017 A 
HETATM   24  C   UNL     1     -33.530  38.570 -48.539  1.00  0.00     0.015 A 
HETATM   25  C   UNL     1     -33.165  37.892 -47.369  1.00  0.00     0.030 A 
HETATM   26  C   UNL     1     -31.992  38.229 -46.692  1.00  0.00     0.034 A 
HETATM   27  C   UNL     1     -31.178  39.245 -47.212  1.00  0.00     0.030 A 
HETATM   28  C   UNL     1     -31.539  39.929 -48.380  1.00  0.00     0.015 A 
BRANCH  26  29
HETATM   29  N   UNL     1     -31.573  37.619 -45.491  1.00  0.00    -0.328 N 
HETATM   30  C   UNL     1     -31.860  38.020 -44.198  1.00  0.00     0.218 C 
HETATM   31  C   UNL     1     -31.189  37.149 -43.166  1.00  0.00     0.117 C 
HETATM   32  O   UNL     1     -32.584  38.947 -43.855  1.00  0.00    -0.274 OA
HETATM   33  H   UNL     1     -30.987  36.800 -45.590  1.00  0.00     0.169 HD
ENDBRANCH  26  29
ENDBRANCH  22  23
ENDBRANCH   2  21
TORSDOF 8
ENDMDL
