MODEL 1
REMARK VINA RESULT:      -8.4      0.000      0.000
REMARK  6 active torsions:
REMARK  status: ('A' for Active; 'I' for Inactive)
REMARK    1  A    between atoms: N_4  and  C_5 
REMARK    2  A    between atoms: C_13  and  C_14 
REMARK       I    between atoms: C_14  and  N_15 
REMARK    3  A    between atoms: N_15  and  C_16 
REMARK    4  A    between atoms: C_16  and  C_17 
REMARK    5  A    between atoms: C_17  and  O_18 
REMARK    6  A    between atoms: C_17  and  C_19 
ROOT
HETATM    1  C   UNL     1     -41.641  56.926 -53.969  1.00  0.00     0.257 C 
HETATM    2  N   UNL     1     -42.712  56.857 -54.826  1.00  0.00    -0.354 N 
HETATM    3  O   UNL     1     -41.053  57.982 -53.752  1.00  0.00    -0.267 OA
HETATM    4  H   UNL     1     -43.275  56.014 -54.846  1.00  0.00     0.162 HD
ENDROOT
BRANCH   1   5
HETATM    5  C   UNL     1     -41.265  55.687 -53.303  1.00  0.00     0.098 C 
HETATM    6  C   UNL     1     -41.414  55.393 -51.921  1.00  0.00     0.070 C 
HETATM    7  C   UNL     1     -41.989  56.260 -50.857  1.00  0.00     0.073 C 
HETATM    8  N   UNL     1     -40.944  54.185 -51.601  1.00  0.00    -0.170 NA
HETATM    9  N   UNL     1     -40.569  53.617 -52.783  1.00  0.00    -0.221 N 
HETATM   10  C   UNL     1     -40.657  54.552 -53.802  1.00  0.00     0.145 C 
HETATM   11 CL   UNL     1     -39.952  54.298 -55.343  1.00  0.00    -0.061 Cl
BRANCH   9  12
HETATM   12  C   UNL     1     -40.203  52.234 -52.783  1.00  0.00     0.060 A 
HETATM   13  C   UNL     1     -40.285  51.430 -53.927  1.00  0.00     0.031 A 
HETATM   14  C   UNL     1     -39.932  50.078 -53.867  1.00  0.00     0.002 A 
HETATM   15  C   UNL     1     -39.508  49.511 -52.668  1.00  0.00     0.000 A 
HETATM   16  C   UNL     1     -39.445  50.293 -51.518  1.00  0.00     0.002 A 
HETATM   17  C   UNL     1     -39.798  51.643 -51.572  1.00  0.00     0.031 A 
ENDBRANCH   9  12
ENDBRANCH   1   5
BRANCH   2  18
HETATM   18  C   UNL     1     -43.315  58.052 -55.392  1.00  0.00     0.159 C 
BRANCH  18  19
HETATM   19  C   UNL     1     -42.764  58.398 -56.787  1.00  0.00     0.169 C 
BRANCH  19  20
HETATM   20  O   UNL     1     -42.970  59.791 -57.043  1.00  0.00    -0.389 OA
HETATM   21  H   UNL     1     -43.195  60.203 -56.189  1.00  0.00     0.210 HD
ENDBRANCH  19  20
BRANCH  19  22
HETATM   22  C   UNL     1     -43.360  57.548 -57.894  1.00  0.00    -0.025 A 
HETATM   23  C   UNL     1     -44.730  57.582 -58.199  1.00  0.00     0.053 A 
HETATM   24  C   UNL     1     -45.246  56.780 -59.215  1.00  0.00     0.138 A 
HETATM   25  F   UNL     1     -46.558  56.852 -59.486  1.00  0.00    -0.204 F 
HETATM   26  C   UNL     1     -44.417  55.928 -59.939  1.00  0.00     0.072 A 
HETATM   27 CL   UNL     1     -45.050  54.940 -61.197  1.00  0.00    -0.081 Cl
HETATM   28  C   UNL     1     -43.056  55.872 -59.640  1.00  0.00     0.028 A 
HETATM   29  C   UNL     1     -42.531  56.678 -58.623  1.00  0.00     0.012 A 
ENDBRANCH  19  22
ENDBRANCH  18  19
ENDBRANCH   2  18
TORSDOF 6
ENDMDL
MODEL 2
REMARK VINA RESULT:      -8.4      1.747      2.037
REMARK  6 active torsions:
REMARK  status: ('A' for Active; 'I' for Inactive)
REMARK    1  A    between atoms: N_4  and  C_5 
REMARK    2  A    between atoms: C_13  and  C_14 
REMARK       I    between atoms: C_14  and  N_15 
REMARK    3  A    between atoms: N_15  and  C_16 
REMARK    4  A    between atoms: C_16  and  C_17 
REMARK    5  A    between atoms: C_17  and  O_18 
REMARK    6  A    between atoms: C_17  and  C_19 
ROOT
HETATM    1  C   UNL     1     -41.665  56.897 -53.329  1.00  0.00     0.257 C 
HETATM    2  N   UNL     1     -42.997  56.964 -53.655  1.00  0.00    -0.354 N 
HETATM    3  O   UNL     1     -40.918  57.863 -53.454  1.00  0.00    -0.267 OA
HETATM    4  H   UNL     1     -43.613  56.208 -53.377  1.00  0.00     0.162 HD
ENDROOT
BRANCH   1   5
HETATM    5  C   UNL     1     -41.196  55.628 -52.789  1.00  0.00     0.098 C 
HETATM    6  C   UNL     1     -41.103  55.279 -51.414  1.00  0.00     0.070 C 
HETATM    7  C   UNL     1     -41.469  56.105 -50.232  1.00  0.00     0.073 C 
HETATM    8  N   UNL     1     -40.602  54.055 -51.230  1.00  0.00    -0.170 NA
HETATM    9  N   UNL     1     -40.449  53.533 -52.481  1.00  0.00    -0.221 N 
HETATM   10  C   UNL     1     -40.701  54.511 -53.431  1.00  0.00     0.145 C 
HETATM   11 CL   UNL     1     -40.281  54.315 -55.081  1.00  0.00    -0.061 Cl
BRANCH   9  12
HETATM   12  C   UNL     1     -40.109  52.149 -52.600  1.00  0.00     0.060 A 
HETATM   13  C   UNL     1     -40.118  51.471 -53.825  1.00  0.00     0.031 A 
HETATM   14  C   UNL     1     -39.794  50.111 -53.882  1.00  0.00     0.002 A 
HETATM   15  C   UNL     1     -39.472  49.412 -52.722  1.00  0.00     0.000 A 
HETATM   16  C   UNL     1     -39.483  50.069 -51.494  1.00  0.00     0.002 A 
HETATM   17  C   UNL     1     -39.806  51.426 -51.432  1.00  0.00     0.031 A 
ENDBRANCH   9  12
ENDBRANCH   1   5
BRANCH   2  18
HETATM   18  C   UNL     1     -43.634  58.222 -54.008  1.00  0.00     0.159 C 
BRANCH  18  19
HETATM   19  C   UNL     1     -44.597  58.093 -55.201  1.00  0.00     0.169 C 
BRANCH  19  20
HETATM   20  O   UNL     1     -45.418  56.933 -55.021  1.00  0.00    -0.389 OA
HETATM   21  H   UNL     1     -45.505  56.513 -55.896  1.00  0.00     0.210 HD
ENDBRANCH  19  20
BRANCH  19  22
HETATM   22  C   UNL     1     -43.887  58.053 -56.541  1.00  0.00    -0.025 A 
HETATM   23  C   UNL     1     -43.554  56.842 -57.169  1.00  0.00     0.053 A 
HETATM   24  C   UNL     1     -42.893  56.842 -58.396  1.00  0.00     0.138 A 
HETATM   25  F   UNL     1     -42.606  55.664 -58.970  1.00  0.00    -0.204 F 
HETATM   26  C   UNL     1     -42.543  58.038 -59.015  1.00  0.00     0.072 A 
HETATM   27 CL   UNL     1     -41.731  58.043 -60.531  1.00  0.00    -0.081 Cl
HETATM   28  C   UNL     1     -42.854  59.250 -58.400  1.00  0.00     0.028 A 
HETATM   29  C   UNL     1     -43.522  59.256 -57.169  1.00  0.00     0.012 A 
ENDBRANCH  19  22
ENDBRANCH  18  19
ENDBRANCH   2  18
TORSDOF 6
ENDMDL
MODEL 3
REMARK VINA RESULT:      -8.2      0.891      1.620
REMARK  6 active torsions:
REMARK  status: ('A' for Active; 'I' for Inactive)
REMARK    1  A    between atoms: N_4  and  C_5 
REMARK    2  A    between atoms: C_13  and  C_14 
REMARK       I    between atoms: C_14  and  N_15 
REMARK    3  A    between atoms: N_15  and  C_16 
REMARK    4  A    between atoms: C_16  and  C_17 
REMARK    5  A    between atoms: C_17  and  O_18 
REMARK    6  A    between atoms: C_17  and  C_19 
ROOT
HETATM    1  C   UNL     1     -41.657  56.882 -53.936  1.00  0.00     0.257 C 
HETATM    2  N   UNL     1     -42.711  56.782 -54.810  1.00  0.00    -0.354 N 
HETATM    3  O   UNL     1     -41.083  57.948 -53.733  1.00  0.00    -0.267 OA
HETATM    4  H   UNL     1     -43.266  55.933 -54.820  1.00  0.00     0.162 HD
ENDROOT
BRANCH   1   5
HETATM    5  C   UNL     1     -41.282  55.662 -53.234  1.00  0.00     0.098 C 
HETATM    6  C   UNL     1     -41.427  55.412 -51.842  1.00  0.00     0.070 C 
HETATM    7  C   UNL     1     -41.995  56.312 -50.803  1.00  0.00     0.073 C 
HETATM    8  N   UNL     1     -40.960  54.212 -51.487  1.00  0.00    -0.170 NA
HETATM    9  N   UNL     1     -40.590  53.607 -52.652  1.00  0.00    -0.221 N 
HETATM   10  C   UNL     1     -40.679  54.511 -53.699  1.00  0.00     0.145 C 
HETATM   11 CL   UNL     1     -39.980  54.207 -55.234  1.00  0.00    -0.061 Cl
BRANCH   9  12
HETATM   12  C   UNL     1     -40.229  52.224 -52.611  1.00  0.00     0.060 A 
HETATM   13  C   UNL     1     -39.787  51.592 -51.443  1.00  0.00     0.031 A 
HETATM   14  C   UNL     1     -39.428  50.240 -51.462  1.00  0.00     0.002 A 
HETATM   15  C   UNL     1     -39.493  49.510 -52.646  1.00  0.00     0.000 A 
HETATM   16  C   UNL     1     -39.907  50.132 -53.821  1.00  0.00     0.002 A 
HETATM   17  C   UNL     1     -40.265  51.481 -53.806  1.00  0.00     0.031 A 
ENDBRANCH   9  12
ENDBRANCH   1   5
BRANCH   2  18
HETATM   18  C   UNL     1     -43.314  57.957 -55.416  1.00  0.00     0.159 C 
BRANCH  18  19
HETATM   19  C   UNL     1     -42.924  58.136 -56.895  1.00  0.00     0.169 C 
BRANCH  19  20
HETATM   20  O   UNL     1     -42.616  59.513 -57.138  1.00  0.00    -0.389 OA
HETATM   21  H   UNL     1     -43.179  60.036 -56.539  1.00  0.00     0.210 HD
ENDBRANCH  19  20
BRANCH  19  22
HETATM   22  C   UNL     1     -43.987  57.639 -57.857  1.00  0.00    -0.025 A 
HETATM   23  C   UNL     1     -43.706  56.676 -58.840  1.00  0.00     0.053 A 
HETATM   24  C   UNL     1     -44.703  56.250 -59.715  1.00  0.00     0.138 A 
HETATM   25  F   UNL     1     -44.398  55.318 -60.631  1.00  0.00    -0.204 F 
HETATM   26  C   UNL     1     -45.990  56.775 -59.636  1.00  0.00     0.072 A 
HETATM   27 CL   UNL     1     -47.225  56.247 -60.711  1.00  0.00    -0.081 Cl
HETATM   28  C   UNL     1     -46.283  57.740 -58.674  1.00  0.00     0.028 A 
HETATM   29  C   UNL     1     -45.286  58.170 -57.790  1.00  0.00     0.012 A 
ENDBRANCH  19  22
ENDBRANCH  18  19
ENDBRANCH   2  18
TORSDOF 6
ENDMDL
MODEL 4
REMARK VINA RESULT:      -8.0      3.412      7.792
REMARK  6 active torsions:
REMARK  status: ('A' for Active; 'I' for Inactive)
REMARK    1  A    between atoms: N_4  and  C_5 
REMARK    2  A    between atoms: C_13  and  C_14 
REMARK       I    between atoms: C_14  and  N_15 
REMARK    3  A    between atoms: N_15  and  C_16 
REMARK    4  A    between atoms: C_16  and  C_17 
REMARK    5  A    between atoms: C_17  and  O_18 
REMARK    6  A    between atoms: C_17  and  C_19 
ROOT
HETATM    1  C   UNL     1     -41.417  57.173 -52.547  1.00  0.00     0.257 C 
HETATM    2  N   UNL     1     -41.715  55.997 -51.904  1.00  0.00    -0.354 N 
HETATM    3  O   UNL     1     -40.654  58.002 -52.059  1.00  0.00    -0.267 OA
HETATM    4  H   UNL     1     -42.205  55.267 -52.410  1.00  0.00     0.162 HD
ENDROOT
BRANCH   1   5
HETATM    5  C   UNL     1     -42.026  57.365 -53.856  1.00  0.00     0.098 C 
HETATM    6  C   UNL     1     -43.054  58.292 -54.180  1.00  0.00     0.070 C 
HETATM    7  C   UNL     1     -43.723  59.270 -53.281  1.00  0.00     0.073 C 
HETATM    8  N   UNL     1     -43.431  58.210 -55.459  1.00  0.00    -0.170 NA
HETATM    9  N   UNL     1     -42.591  57.299 -56.028  1.00  0.00    -0.221 N 
HETATM   10  C   UNL     1     -41.811  56.703 -55.048  1.00  0.00     0.145 C 
HETATM   11 CL   UNL     1     -40.893  55.288 -55.343  1.00  0.00    -0.061 Cl
BRANCH   9  12
HETATM   12  C   UNL     1     -42.626  57.142 -57.449  1.00  0.00     0.060 A 
HETATM   13  C   UNL     1     -43.110  55.984 -58.070  1.00  0.00     0.031 A 
HETATM   14  C   UNL     1     -43.104  55.875 -59.465  1.00  0.00     0.002 A 
HETATM   15  C   UNL     1     -42.605  56.910 -60.252  1.00  0.00     0.000 A 
HETATM   16  C   UNL     1     -42.098  58.056 -59.647  1.00  0.00     0.002 A 
HETATM   17  C   UNL     1     -42.101  58.169 -58.255  1.00  0.00     0.031 A 
ENDBRANCH   9  12
ENDBRANCH   1   5
BRANCH   2  18
HETATM   18  C   UNL     1     -41.018  55.591 -50.695  1.00  0.00     0.159 C 
BRANCH  18  19
HETATM   19  C   UNL     1     -41.361  54.154 -50.260  1.00  0.00     0.169 C 
BRANCH  19  20
HETATM   20  O   UNL     1     -40.906  53.947 -48.918  1.00  0.00    -0.389 OA
HETATM   21  H   UNL     1     -40.209  54.607 -48.754  1.00  0.00     0.210 HD
ENDBRANCH  19  20
BRANCH  19  22
HETATM   22  C   UNL     1     -40.800  53.097 -51.192  1.00  0.00    -0.025 A 
HETATM   23  C   UNL     1     -40.104  51.976 -50.711  1.00  0.00     0.053 A 
HETATM   24  C   UNL     1     -39.594  51.029 -51.597  1.00  0.00     0.138 A 
HETATM   25  F   UNL     1     -38.947  49.966 -51.096  1.00  0.00    -0.204 F 
HETATM   26  C   UNL     1     -39.756  51.181 -52.971  1.00  0.00     0.072 A 
HETATM   27 CL   UNL     1     -39.131  50.012 -54.067  1.00  0.00    -0.081 Cl
HETATM   28  C   UNL     1     -40.434  52.294 -53.466  1.00  0.00     0.028 A 
HETATM   29  C   UNL     1     -40.952  53.246 -52.582  1.00  0.00     0.012 A 
ENDBRANCH  19  22
ENDBRANCH  18  19
ENDBRANCH   2  18
TORSDOF 6
ENDMDL
MODEL 5
REMARK VINA RESULT:      -8.0      3.901      5.616
REMARK  6 active torsions:
REMARK  status: ('A' for Active; 'I' for Inactive)
REMARK    1  A    between atoms: N_4  and  C_5 
REMARK    2  A    between atoms: C_13  and  C_14 
REMARK       I    between atoms: C_14  and  N_15 
REMARK    3  A    between atoms: N_15  and  C_16 
REMARK    4  A    between atoms: C_16  and  C_17 
REMARK    5  A    between atoms: C_17  and  O_18 
REMARK    6  A    between atoms: C_17  and  C_19 
ROOT
HETATM    1  C   UNL     1     -41.562  57.082 -53.396  1.00  0.00     0.257 C 
HETATM    2  N   UNL     1     -42.789  57.159 -54.007  1.00  0.00    -0.354 N 
HETATM    3  O   UNL     1     -40.844  58.069 -53.259  1.00  0.00    -0.267 OA
HETATM    4  H   UNL     1     -43.422  56.369 -53.946  1.00  0.00     0.162 HD
ENDROOT
BRANCH   1   5
HETATM    5  C   UNL     1     -41.177  55.775 -52.882  1.00  0.00     0.098 C 
HETATM    6  C   UNL     1     -41.213  55.358 -51.524  1.00  0.00     0.070 C 
HETATM    7  C   UNL     1     -41.655  56.138 -50.337  1.00  0.00     0.073 C 
HETATM    8  N   UNL     1     -40.764  54.111 -51.360  1.00  0.00    -0.170 NA
HETATM    9  N   UNL     1     -40.518  53.645 -52.618  1.00  0.00    -0.221 N 
HETATM   10  C   UNL     1     -40.661  54.674 -53.536  1.00  0.00     0.145 C 
HETATM   11 CL   UNL     1     -40.107  54.543 -55.152  1.00  0.00    -0.061 Cl
BRANCH   9  12
HETATM   12  C   UNL     1     -40.209  52.258 -52.777  1.00  0.00     0.060 A 
HETATM   13  C   UNL     1     -39.664  51.481 -51.748  1.00  0.00     0.031 A 
HETATM   14  C   UNL     1     -39.362  50.132 -51.963  1.00  0.00     0.002 A 
HETATM   15  C   UNL     1     -39.587  49.548 -53.207  1.00  0.00     0.000 A 
HETATM   16  C   UNL     1     -40.106  50.315 -54.246  1.00  0.00     0.002 A 
HETATM   17  C   UNL     1     -40.407  51.662 -54.036  1.00  0.00     0.031 A 
ENDBRANCH   9  12
ENDBRANCH   1   5
BRANCH   2  18
HETATM   18  C   UNL     1     -43.379  58.434 -54.378  1.00  0.00     0.159 C 
BRANCH  18  19
HETATM   19  C   UNL     1     -44.770  58.654 -53.756  1.00  0.00     0.169 C 
BRANCH  19  20
HETATM   20  O   UNL     1     -45.655  59.175 -54.755  1.00  0.00    -0.389 OA
HETATM   21  H   UNL     1     -45.255  58.969 -55.619  1.00  0.00     0.210 HD
ENDBRANCH  19  20
BRANCH  19  22
HETATM   22  C   UNL     1     -44.744  59.549 -52.532  1.00  0.00    -0.025 A 
HETATM   23  C   UNL     1     -43.612  59.645 -51.707  1.00  0.00     0.053 A 
HETATM   24  C   UNL     1     -43.626  60.470 -50.584  1.00  0.00     0.138 A 
HETATM   25  F   UNL     1     -42.520  60.544 -49.828  1.00  0.00    -0.204 F 
HETATM   26  C   UNL     1     -44.762  61.206 -50.256  1.00  0.00     0.072 A 
HETATM   27 CL   UNL     1     -44.781  62.229 -48.873  1.00  0.00    -0.081 Cl
HETATM   28  C   UNL     1     -45.898  61.113 -51.058  1.00  0.00     0.028 A 
HETATM   29  C   UNL     1     -45.889  60.289 -52.189  1.00  0.00     0.012 A 
ENDBRANCH  19  22
ENDBRANCH  18  19
ENDBRANCH   2  18
TORSDOF 6
ENDMDL
MODEL 6
REMARK VINA RESULT:      -8.0      4.076      9.277
REMARK  6 active torsions:
REMARK  status: ('A' for Active; 'I' for Inactive)
REMARK    1  A    between atoms: N_4  and  C_5 
REMARK    2  A    between atoms: C_13  and  C_14 
REMARK       I    between atoms: C_14  and  N_15 
REMARK    3  A    between atoms: N_15  and  C_16 
REMARK    4  A    between atoms: C_16  and  C_17 
REMARK    5  A    between atoms: C_17  and  O_18 
REMARK    6  A    between atoms: C_17  and  C_19 
ROOT
HETATM    1  C   UNL     1     -43.315  56.117 -56.449  1.00  0.00     0.257 C 
HETATM    2  N   UNL     1     -42.662  54.920 -56.293  1.00  0.00    -0.354 N 
HETATM    3  O   UNL     1     -43.857  56.688 -55.506  1.00  0.00    -0.267 OA
HETATM    4  H   UNL     1     -42.084  54.570 -57.049  1.00  0.00     0.162 HD
ENDROOT
BRANCH   1   5
HETATM    5  C   UNL     1     -43.297  56.693 -57.787  1.00  0.00     0.098 C 
HETATM    6  C   UNL     1     -43.677  56.041 -58.991  1.00  0.00     0.070 C 
HETATM    7  C   UNL     1     -44.185  54.653 -59.161  1.00  0.00     0.073 C 
HETATM    8  N   UNL     1     -43.517  56.818 -60.066  1.00  0.00    -0.170 NA
HETATM    9  N   UNL     1     -43.125  58.031 -59.582  1.00  0.00    -0.221 N 
HETATM   10  C   UNL     1     -42.884  57.937 -58.219  1.00  0.00     0.145 C 
HETATM   11 CL   UNL     1     -42.059  59.161 -57.349  1.00  0.00    -0.061 Cl
BRANCH   9  12
HETATM   12  C   UNL     1     -43.062  59.134 -60.490  1.00  0.00     0.060 A 
HETATM   13  C   UNL     1     -41.858  59.749 -60.852  1.00  0.00     0.031 A 
HETATM   14  C   UNL     1     -41.855  60.837 -61.731  1.00  0.00     0.002 A 
HETATM   15  C   UNL     1     -43.051  61.331 -62.246  1.00  0.00     0.000 A 
HETATM   16  C   UNL     1     -44.257  60.745 -61.875  1.00  0.00     0.002 A 
HETATM   17  C   UNL     1     -44.265  59.659 -60.997  1.00  0.00     0.031 A 
ENDBRANCH   9  12
ENDBRANCH   1   5
BRANCH   2  18
HETATM   18  C   UNL     1     -42.430  54.343 -54.979  1.00  0.00     0.159 C 
BRANCH  18  19
HETATM   19  C   UNL     1     -40.963  54.454 -54.527  1.00  0.00     0.169 C 
BRANCH  19  20
HETATM   20  O   UNL     1     -40.119  54.542 -55.680  1.00  0.00    -0.389 OA
HETATM   21  H   UNL     1     -40.239  55.436 -56.047  1.00  0.00     0.210 HD
ENDBRANCH  19  20
BRANCH  19  22
HETATM   22  C   UNL     1     -40.529  53.317 -53.621  1.00  0.00    -0.025 A 
HETATM   23  C   UNL     1     -40.436  53.471 -52.229  1.00  0.00     0.053 A 
HETATM   24  C   UNL     1     -40.024  52.408 -51.427  1.00  0.00     0.138 A 
HETATM   25  F   UNL     1     -39.961  52.591 -50.100  1.00  0.00    -0.204 F 
HETATM   26  C   UNL     1     -39.689  51.180 -51.992  1.00  0.00     0.072 A 
HETATM   27 CL   UNL     1     -39.184  49.864 -51.006  1.00  0.00    -0.081 Cl
HETATM   28  C   UNL     1     -39.764  51.013 -53.374  1.00  0.00     0.028 A 
HETATM   29  C   UNL     1     -40.181  52.076 -54.184  1.00  0.00     0.012 A 
ENDBRANCH  19  22
ENDBRANCH  18  19
ENDBRANCH   2  18
TORSDOF 6
ENDMDL
MODEL 7
REMARK VINA RESULT:      -7.9      1.979      2.547
REMARK  6 active torsions:
REMARK  status: ('A' for Active; 'I' for Inactive)
REMARK    1  A    between atoms: N_4  and  C_5 
REMARK    2  A    between atoms: C_13  and  C_14 
REMARK       I    between atoms: C_14  and  N_15 
REMARK    3  A    between atoms: N_15  and  C_16 
REMARK    4  A    between atoms: C_16  and  C_17 
REMARK    5  A    between atoms: C_17  and  O_18 
REMARK    6  A    between atoms: C_17  and  C_19 
ROOT
HETATM    1  C   UNL     1     -44.177  57.293 -53.721  1.00  0.00     0.257 C 
HETATM    2  N   UNL     1     -44.389  57.603 -55.042  1.00  0.00    -0.354 N 
HETATM    3  O   UNL     1     -44.937  57.676 -52.836  1.00  0.00    -0.267 OA
HETATM    4  H   UNL     1     -43.845  57.129 -55.754  1.00  0.00     0.162 HD
ENDROOT
BRANCH   1   5
HETATM    5  C   UNL     1     -43.022  56.453 -53.433  1.00  0.00     0.098 C 
HETATM    6  C   UNL     1     -41.856  56.839 -52.718  1.00  0.00     0.070 C 
HETATM    7  C   UNL     1     -41.555  58.158 -52.099  1.00  0.00     0.073 C 
HETATM    8  N   UNL     1     -40.952  55.858 -52.645  1.00  0.00    -0.170 NA
HETATM    9  N   UNL     1     -41.546  54.774 -53.223  1.00  0.00    -0.221 N 
HETATM   10  C   UNL     1     -42.751  55.150 -53.797  1.00  0.00     0.145 C 
HETATM   11 CL   UNL     1     -43.599  54.139 -54.890  1.00  0.00    -0.061 Cl
BRANCH   9  12
HETATM   12  C   UNL     1     -40.890  53.508 -53.119  1.00  0.00     0.060 A 
HETATM   13  C   UNL     1     -40.347  53.033 -51.919  1.00  0.00     0.031 A 
HETATM   14  C   UNL     1     -39.699  51.794 -51.877  1.00  0.00     0.002 A 
HETATM   15  C   UNL     1     -39.574  51.024 -53.030  1.00  0.00     0.000 A 
HETATM   16  C   UNL     1     -40.088  51.494 -54.235  1.00  0.00     0.002 A 
HETATM   17  C   UNL     1     -40.735  52.731 -54.282  1.00  0.00     0.031 A 
ENDBRANCH   9  12
ENDBRANCH   1   5
BRANCH   2  18
HETATM   18  C   UNL     1     -45.609  58.256 -55.485  1.00  0.00     0.159 C 
BRANCH  18  19
HETATM   19  C   UNL     1     -45.473  58.899 -56.878  1.00  0.00     0.169 C 
BRANCH  19  20
HETATM   20  O   UNL     1     -46.590  59.764 -57.108  1.00  0.00    -0.389 OA
HETATM   21  H   UNL     1     -46.225  60.631 -57.364  1.00  0.00     0.210 HD
ENDBRANCH  19  20
BRANCH  19  22
HETATM   22  C   UNL     1     -45.334  57.882 -57.995  1.00  0.00    -0.025 A 
HETATM   23  C   UNL     1     -44.102  57.281 -58.301  1.00  0.00     0.053 A 
HETATM   24  C   UNL     1     -44.008  56.358 -59.341  1.00  0.00     0.138 A 
HETATM   25  F   UNL     1     -42.816  55.795 -59.593  1.00  0.00    -0.204 F 
HETATM   26  C   UNL     1     -45.127  56.023 -60.098  1.00  0.00     0.072 A 
HETATM   27 CL   UNL     1     -45.015  54.880 -61.380  1.00  0.00    -0.081 Cl
HETATM   28  C   UNL     1     -46.354  56.619 -59.815  1.00  0.00     0.028 A 
HETATM   29  C   UNL     1     -46.456  57.544 -58.770  1.00  0.00     0.012 A 
ENDBRANCH  19  22
ENDBRANCH  18  19
ENDBRANCH   2  18
TORSDOF 6
ENDMDL
MODEL 8
REMARK VINA RESULT:      -7.9      3.959      9.154
REMARK  6 active torsions:
REMARK  status: ('A' for Active; 'I' for Inactive)
REMARK    1  A    between atoms: N_4  and  C_5 
REMARK    2  A    between atoms: C_13  and  C_14 
REMARK       I    between atoms: C_14  and  N_15 
REMARK    3  A    between atoms: N_15  and  C_16 
REMARK    4  A    between atoms: C_16  and  C_17 
REMARK    5  A    between atoms: C_17  and  O_18 
REMARK    6  A    between atoms: C_17  and  C_19 
ROOT
HETATM    1  C   UNL     1     -42.626  56.241 -57.111  1.00  0.00     0.257 C 
HETATM    2  N   UNL     1     -41.665  55.915 -56.186  1.00  0.00    -0.354 N 
HETATM    3  O   UNL     1     -43.470  55.430 -57.481  1.00  0.00    -0.267 OA
HETATM    4  H   UNL     1     -41.100  56.652 -55.779  1.00  0.00     0.162 HD
ENDROOT
BRANCH   1   5
HETATM    5  C   UNL     1     -42.613  57.613 -57.599  1.00  0.00     0.098 C 
HETATM    6  C   UNL     1     -43.183  58.744 -56.953  1.00  0.00     0.070 C 
HETATM    7  C   UNL     1     -43.898  58.791 -55.650  1.00  0.00     0.073 C 
HETATM    8  N   UNL     1     -43.041  59.865 -57.665  1.00  0.00    -0.170 NA
HETATM    9  N   UNL     1     -42.286  59.515 -58.747  1.00  0.00    -0.221 N 
HETATM   10  C   UNL     1     -42.114  58.139 -58.773  1.00  0.00     0.145 C 
HETATM   11 CL   UNL     1     -41.515  57.318 -60.153  1.00  0.00    -0.061 Cl
BRANCH   9  12
HETATM   12  C   UNL     1     -41.801  60.556 -59.598  1.00  0.00     0.060 A 
HETATM   13  C   UNL     1     -40.986  61.596 -59.134  1.00  0.00     0.031 A 
HETATM   14  C   UNL     1     -40.554  62.600 -60.007  1.00  0.00     0.002 A 
HETATM   15  C   UNL     1     -40.940  62.586 -61.345  1.00  0.00     0.000 A 
HETATM   16  C   UNL     1     -41.769  61.572 -61.815  1.00  0.00     0.002 A 
HETATM   17  C   UNL     1     -42.204  60.568 -60.947  1.00  0.00     0.031 A 
ENDBRANCH   9  12
ENDBRANCH   1   5
BRANCH   2  18
HETATM   18  C   UNL     1     -41.692  54.650 -55.470  1.00  0.00     0.159 C 
BRANCH  18  19
HETATM   19  C   UNL     1     -41.473  54.814 -53.955  1.00  0.00     0.169 C 
BRANCH  19  20
HETATM   20  O   UNL     1     -40.676  55.980 -53.717  1.00  0.00    -0.389 OA
HETATM   21  H   UNL     1     -40.179  56.151 -54.538  1.00  0.00     0.210 HD
ENDBRANCH  19  20
BRANCH  19  22
HETATM   22  C   UNL     1     -40.855  53.591 -53.304  1.00  0.00    -0.025 A 
HETATM   23  C   UNL     1     -40.374  52.511 -54.062  1.00  0.00     0.053 A 
HETATM   24  C   UNL     1     -39.821  51.398 -53.431  1.00  0.00     0.138 A 
HETATM   25  F   UNL     1     -39.360  50.393 -54.190  1.00  0.00    -0.204 F 
HETATM   26  C   UNL     1     -39.744  51.333 -52.042  1.00  0.00     0.072 A 
HETATM   27 CL   UNL     1     -39.058  49.964 -51.260  1.00  0.00    -0.081 Cl
HETATM   28  C   UNL     1     -40.228  52.392 -51.275  1.00  0.00     0.028 A 
HETATM   29  C   UNL     1     -40.781  53.514 -51.903  1.00  0.00     0.012 A 
ENDBRANCH  19  22
ENDBRANCH  18  19
ENDBRANCH   2  18
TORSDOF 6
ENDMDL
MODEL 9
REMARK VINA RESULT:      -7.8     15.109     18.208
REMARK  6 active torsions:
REMARK  status: ('A' for Active; 'I' for Inactive)
REMARK    1  A    between atoms: N_4  and  C_5 
REMARK    2  A    between atoms: C_13  and  C_14 
REMARK       I    between atoms: C_14  and  N_15 
REMARK    3  A    between atoms: N_15  and  C_16 
REMARK    4  A    between atoms: C_16  and  C_17 
REMARK    5  A    between atoms: C_17  and  O_18 
REMARK    6  A    between atoms: C_17  and  C_19 
ROOT
HETATM    1  C   UNL     1     -35.418  41.243 -57.097  1.00  0.00     0.257 C 
HETATM    2  N   UNL     1     -36.375  41.599 -56.180  1.00  0.00    -0.354 N 
HETATM    3  O   UNL     1     -34.273  41.682 -57.042  1.00  0.00    -0.267 OA
HETATM    4  H   UNL     1     -37.250  41.087 -56.154  1.00  0.00     0.162 HD
ENDROOT
BRANCH   1   5
HETATM    5  C   UNL     1     -35.825  40.285 -58.116  1.00  0.00     0.098 C 
HETATM    6  C   UNL     1     -35.361  38.948 -58.251  1.00  0.00     0.070 C 
HETATM    7  C   UNL     1     -34.383  38.227 -57.393  1.00  0.00     0.073 C 
HETATM    8  N   UNL     1     -35.893  38.326 -59.307  1.00  0.00    -0.170 NA
HETATM    9  N   UNL     1     -36.794  39.206 -59.830  1.00  0.00    -0.221 N 
HETATM   10  C   UNL     1     -36.685  40.429 -59.187  1.00  0.00     0.145 C 
HETATM   11 CL   UNL     1     -37.413  41.854 -59.798  1.00  0.00    -0.061 Cl
BRANCH   9  12
HETATM   12  C   UNL     1     -37.669  38.744 -60.863  1.00  0.00     0.060 A 
HETATM   13  C   UNL     1     -39.002  38.392 -60.624  1.00  0.00     0.031 A 
HETATM   14  C   UNL     1     -39.810  37.928 -61.668  1.00  0.00     0.002 A 
HETATM   15  C   UNL     1     -39.294  37.798 -62.955  1.00  0.00     0.000 A 
HETATM   16  C   UNL     1     -37.963  38.122 -63.202  1.00  0.00     0.002 A 
HETATM   17  C   UNL     1     -37.153  38.584 -62.162  1.00  0.00     0.031 A 
ENDBRANCH   9  12
ENDBRANCH   1   5
BRANCH   2  18
HETATM   18  C   UNL     1     -36.047  42.381 -54.999  1.00  0.00     0.159 C 
BRANCH  18  19
HETATM   19  C   UNL     1     -36.382  41.652 -53.685  1.00  0.00     0.169 C 
BRANCH  19  20
HETATM   20  O   UNL     1     -37.226  42.487 -52.885  1.00  0.00    -0.389 OA
HETATM   21  H   UNL     1     -37.889  42.872 -53.485  1.00  0.00     0.210 HD
ENDBRANCH  19  20
BRANCH  19  22
HETATM   22  C   UNL     1     -35.152  41.220 -52.910  1.00  0.00    -0.025 A 
HETATM   23  C   UNL     1     -34.067  40.583 -53.534  1.00  0.00     0.053 A 
HETATM   24  C   UNL     1     -32.956  40.191 -52.790  1.00  0.00     0.138 A 
HETATM   25  F   UNL     1     -31.935  39.597 -53.426  1.00  0.00    -0.204 F 
HETATM   26  C   UNL     1     -32.905  40.414 -51.417  1.00  0.00     0.072 A 
HETATM   27 CL   UNL     1     -31.534  39.936 -50.495  1.00  0.00    -0.081 Cl
HETATM   28  C   UNL     1     -33.979  41.034 -50.779  1.00  0.00     0.028 A 
HETATM   29  C   UNL     1     -35.096  41.434 -51.522  1.00  0.00     0.012 A 
ENDBRANCH  19  22
ENDBRANCH  18  19
ENDBRANCH   2  18
TORSDOF 6
ENDMDL
MODEL 10
REMARK VINA RESULT:      -7.8      1.999      2.386
REMARK  6 active torsions:
REMARK  status: ('A' for Active; 'I' for Inactive)
REMARK    1  A    between atoms: N_4  and  C_5 
REMARK    2  A    between atoms: C_13  and  C_14 
REMARK       I    between atoms: C_14  and  N_15 
REMARK    3  A    between atoms: N_15  and  C_16 
REMARK    4  A    between atoms: C_16  and  C_17 
REMARK    5  A    between atoms: C_17  and  O_18 
REMARK    6  A    between atoms: C_17  and  C_19 
ROOT
HETATM    1  C   UNL     1     -44.010  57.765 -54.339  1.00  0.00     0.257 C 
HETATM    2  N   UNL     1     -44.109  58.300 -55.599  1.00  0.00    -0.354 N 
HETATM    3  O   UNL     1     -44.870  57.957 -53.484  1.00  0.00    -0.267 OA
HETATM    4  H   UNL     1     -43.475  57.980 -56.323  1.00  0.00     0.162 HD
ENDROOT
BRANCH   1   5
HETATM    5  C   UNL     1     -42.847  56.925 -54.083  1.00  0.00     0.098 C 
HETATM    6  C   UNL     1     -41.528  57.374 -53.801  1.00  0.00     0.070 C 
HETATM    7  C   UNL     1     -41.041  58.775 -53.690  1.00  0.00     0.073 C 
HETATM    8  N   UNL     1     -40.667  56.365 -53.646  1.00  0.00    -0.170 NA
HETATM    9  N   UNL     1     -41.420  55.230 -53.722  1.00  0.00    -0.221 N 
HETATM   10  C   UNL     1     -42.717  55.551 -54.093  1.00  0.00     0.145 C 
HETATM   11 CL   UNL     1     -43.841  54.367 -54.610  1.00  0.00    -0.061 Cl
BRANCH   9  12
HETATM   12  C   UNL     1     -40.799  53.984 -53.397  1.00  0.00     0.060 A 
HETATM   13  C   UNL     1     -40.504  53.011 -54.359  1.00  0.00     0.031 A 
HETATM   14  C   UNL     1     -39.913  51.800 -53.984  1.00  0.00     0.002 A 
HETATM   15  C   UNL     1     -39.622  51.542 -52.647  1.00  0.00     0.000 A 
HETATM   16  C   UNL     1     -39.932  52.489 -51.676  1.00  0.00     0.002 A 
HETATM   17  C   UNL     1     -40.524  53.699 -52.046  1.00  0.00     0.031 A 
ENDBRANCH   9  12
ENDBRANCH   1   5
BRANCH   2  18
HETATM   18  C   UNL     1     -45.312  58.982 -56.046  1.00  0.00     0.159 C 
BRANCH  18  19
HETATM   19  C   UNL     1     -45.217  59.470 -57.503  1.00  0.00     0.169 C 
BRANCH  19  20
HETATM   20  O   UNL     1     -46.295  60.375 -57.767  1.00  0.00    -0.389 OA
HETATM   21  H   UNL     1     -45.896  61.187 -58.130  1.00  0.00     0.210 HD
ENDBRANCH  19  20
BRANCH  19  22
HETATM   22  C   UNL     1     -45.198  58.339 -58.514  1.00  0.00    -0.025 A 
HETATM   23  C   UNL     1     -46.362  57.634 -58.861  1.00  0.00     0.053 A 
HETATM   24  C   UNL     1     -46.306  56.593 -59.786  1.00  0.00     0.138 A 
HETATM   25  F   UNL     1     -47.443  55.955 -60.102  1.00  0.00    -0.204 F 
HETATM   26  C   UNL     1     -45.098  56.228 -60.374  1.00  0.00     0.072 A 
HETATM   27 CL   UNL     1     -45.026  54.947 -61.519  1.00  0.00    -0.081 Cl
HETATM   28  C   UNL     1     -43.931  56.909 -60.030  1.00  0.00     0.028 A 
HETATM   29  C   UNL     1     -43.981  57.958 -59.105  1.00  0.00     0.012 A 
ENDBRANCH  19  22
ENDBRANCH  18  19
ENDBRANCH   2  18
TORSDOF 6
ENDMDL
