MODEL 1
REMARK VINA RESULT:      -7.4      0.000      0.000
REMARK  10 active torsions:
REMARK  status: ('A' for Active; 'I' for Inactive)
REMARK    1  A    between atoms: C_2  and  O_3 
REMARK    2  A    between atoms: O_3  and  C_4 
REMARK    3  A    between atoms: C_4  and  C_5 
REMARK    4  A    between atoms: C_6  and  C_7 
REMARK    5  A    between atoms: C_14  and  C_15 
REMARK    6  A    between atoms: C_15  and  C_16 
REMARK       I    between atoms: C_16  and  N_17 
REMARK    7  A    between atoms: N_17  and  C_18 
REMARK    8  A    between atoms: C_18  and  C_19 
REMARK    9  A    between atoms: C_19  and  N_20 
REMARK   10  A    between atoms: C_31  and  C_32 
ROOT
HETATM    1  C   UNL     1     -44.445  59.684 -51.754  1.00  0.00     0.074 C 
HETATM    2  C   UNL     1     -44.216  58.312 -52.348  1.00  0.00     0.166 C 
HETATM    3  N   UNL     1     -43.700  58.365 -53.737  1.00  0.00    -0.318 N 
HETATM    4  C   UNL     1     -43.554  57.481 -54.672  1.00  0.00     0.011 C 
HETATM    5  C   UNL     1     -43.018  59.699 -54.096  1.00  0.00     0.170 C 
HETATM    6  S   UNL     1     -42.158  59.611 -55.594  1.00  0.00    -0.086 SA
HETATM    7  C   UNL     1     -42.833  57.964 -55.913  1.00  0.00     0.135 C 
HETATM    8  N   UNL     1     -43.050  60.763 -53.384  1.00  0.00    -0.223 NA
HETATM    9  C   UNL     1     -43.819  60.779 -52.241  1.00  0.00     0.084 C 
ENDROOT
BRANCH   4  10
HETATM   10  C   UNL     1     -43.979  56.048 -54.461  1.00  0.00     0.156 C 
BRANCH  10  11
HETATM   11  C   UNL     1     -42.888  54.993 -54.564  1.00  0.00     0.223 C 
HETATM   12  N   UNL     1     -41.804  55.218 -53.756  1.00  0.00    -0.359 N 
HETATM   13  H   UNL     1     -41.778  56.088 -53.230  1.00  0.00     0.162 HD
HETATM   14  O   UNL     1     -42.966  54.027 -55.315  1.00  0.00    -0.273 OA
BRANCH  12  15
HETATM   15  C   UNL     1     -40.591  54.399 -53.618  1.00  0.00     0.150 C 
BRANCH  15  16
HETATM   16  C   UNL     1     -40.552  53.234 -52.602  1.00  0.00     0.254 C 
BRANCH  16  17
HETATM   17  N   UNL     1     -39.748  52.055 -53.086  1.00  0.00    -0.070 N 
HETATM   18  H   UNL     1     -38.787  52.428 -53.209  1.00  0.00     0.279 HD
HETATM   19  C   UNL     1     -40.163  51.535 -54.454  1.00  0.00     0.235 C 
HETATM   20  C   UNL     1     -40.401  50.051 -54.251  1.00  0.00     0.029 C 
HETATM   21  C   UNL     1     -39.494  49.692 -53.093  1.00  0.00     0.029 C 
HETATM   22  C   UNL     1     -39.677  50.867 -52.157  1.00  0.00     0.235 C 
ENDBRANCH  16  17
ENDBRANCH  15  16
ENDBRANCH  12  15
ENDBRANCH  10  11
ENDBRANCH   4  10
BRANCH   2  23
HETATM   23  C   UNL     1     -43.267  57.456 -51.507  1.00  0.00    -0.030 A 
HETATM   24  C   UNL     1     -43.718  56.235 -50.972  1.00  0.00     0.009 A 
HETATM   25  C   UNL     1     -42.864  55.430 -50.217  1.00  0.00     0.001 A 
HETATM   26  C   UNL     1     -41.552  55.831 -49.982  1.00  0.00     0.000 A 
HETATM   27  C   UNL     1     -41.095  57.045 -50.485  1.00  0.00     0.001 A 
HETATM   28  C   UNL     1     -41.944  57.858 -51.238  1.00  0.00     0.009 A 
ENDBRANCH   2  23
BRANCH   1  29
HETATM   29  C   UNL     1     -45.434  59.636 -50.635  1.00  0.00     0.294 C 
HETATM   30  O   UNL     1     -46.616  59.404 -50.849  1.00  0.00    -0.259 OA
BRANCH  29  31
HETATM   31  O   UNL     1     -44.912  60.011 -49.454  1.00  0.00    -0.318 OA
BRANCH  31  32
HETATM   32  C   UNL     1     -45.679  60.939 -48.667  1.00  0.00     0.174 C 
HETATM   33  C   UNL     1     -44.784  61.629 -47.654  1.00  0.00     0.034 C 
ENDBRANCH  31  32
ENDBRANCH  29  31
ENDBRANCH   1  29
BRANCH   9  34
HETATM   34  C   UNL     1     -43.865  62.113 -51.598  1.00  0.00    -0.006 A 
HETATM   35  C   UNL     1     -44.965  62.963 -51.790  1.00  0.00     0.014 A 
HETATM   36  C   UNL     1     -45.028  64.195 -51.134  1.00  0.00     0.001 A 
HETATM   37  C   UNL     1     -44.004  64.579 -50.270  1.00  0.00     0.000 A 
HETATM   38  C   UNL     1     -42.916  63.734 -50.060  1.00  0.00     0.001 A 
HETATM   39  C   UNL     1     -42.846  62.505 -50.717  1.00  0.00     0.014 A 
ENDBRANCH   9  34
TORSDOF 10
ENDMDL
MODEL 2
REMARK VINA RESULT:      -7.3      2.997      6.406
REMARK  10 active torsions:
REMARK  status: ('A' for Active; 'I' for Inactive)
REMARK    1  A    between atoms: C_2  and  O_3 
REMARK    2  A    between atoms: O_3  and  C_4 
REMARK    3  A    between atoms: C_4  and  C_5 
REMARK    4  A    between atoms: C_6  and  C_7 
REMARK    5  A    between atoms: C_14  and  C_15 
REMARK    6  A    between atoms: C_15  and  C_16 
REMARK       I    between atoms: C_16  and  N_17 
REMARK    7  A    between atoms: N_17  and  C_18 
REMARK    8  A    between atoms: C_18  and  C_19 
REMARK    9  A    between atoms: C_19  and  N_20 
REMARK   10  A    between atoms: C_31  and  C_32 
ROOT
HETATM    1  C   UNL     1     -43.151  58.020 -56.568  1.00  0.00     0.074 C 
HETATM    2  C   UNL     1     -42.371  57.686 -55.316  1.00  0.00     0.166 C 
HETATM    3  N   UNL     1     -42.924  58.332 -54.102  1.00  0.00    -0.318 N 
HETATM    4  C   UNL     1     -42.489  58.488 -52.892  1.00  0.00     0.011 C 
HETATM    5  C   UNL     1     -44.403  58.744 -54.238  1.00  0.00     0.170 C 
HETATM    6  S   UNL     1     -45.097  59.195 -52.719  1.00  0.00    -0.086 SA
HETATM    7  C   UNL     1     -43.477  59.100 -51.921  1.00  0.00     0.135 C 
HETATM    8  N   UNL     1     -45.075  58.746 -55.327  1.00  0.00    -0.223 NA
HETATM    9  C   UNL     1     -44.433  58.448 -56.509  1.00  0.00     0.084 C 
ENDROOT
BRANCH   4  10
HETATM   10  C   UNL     1     -41.127  57.979 -52.484  1.00  0.00     0.156 C 
BRANCH  10  11
HETATM   11  C   UNL     1     -41.090  56.986 -51.333  1.00  0.00     0.223 C 
HETATM   12  N   UNL     1     -41.167  55.672 -51.715  1.00  0.00    -0.359 N 
HETATM   13  H   UNL     1     -41.322  55.473 -52.701  1.00  0.00     0.162 HD
HETATM   14  O   UNL     1     -41.010  57.331 -50.159  1.00  0.00    -0.273 OA
BRANCH  12  15
HETATM   15  C   UNL     1     -41.157  54.477 -50.859  1.00  0.00     0.150 C 
BRANCH  15  16
HETATM   16  C   UNL     1     -39.961  53.498 -50.904  1.00  0.00     0.254 C 
BRANCH  16  17
HETATM   17  N   UNL     1     -40.341  52.124 -51.390  1.00  0.00    -0.070 N 
HETATM   18  H   UNL     1     -41.332  52.216 -51.685  1.00  0.00     0.279 HD
HETATM   19  C   UNL     1     -40.335  51.055 -50.307  1.00  0.00     0.235 C 
HETATM   20  C   UNL     1     -39.459  49.945 -50.859  1.00  0.00     0.029 C 
HETATM   21  C   UNL     1     -39.600  50.085 -52.361  1.00  0.00     0.029 C 
HETATM   22  C   UNL     1     -39.551  51.584 -52.557  1.00  0.00     0.235 C 
ENDBRANCH  16  17
ENDBRANCH  15  16
ENDBRANCH  12  15
ENDBRANCH  10  11
ENDBRANCH   4  10
BRANCH   2  23
HETATM   23  C   UNL     1     -42.274  56.180 -55.065  1.00  0.00    -0.030 A 
HETATM   24  C   UNL     1     -41.025  55.538 -55.147  1.00  0.00     0.009 A 
HETATM   25  C   UNL     1     -40.910  54.168 -54.905  1.00  0.00     0.001 A 
HETATM   26  C   UNL     1     -42.039  53.419 -54.583  1.00  0.00     0.000 A 
HETATM   27  C   UNL     1     -43.286  54.033 -54.519  1.00  0.00     0.001 A 
HETATM   28  C   UNL     1     -43.409  55.401 -54.764  1.00  0.00     0.009 A 
ENDBRANCH   2  23
BRANCH   1  29
HETATM   29  C   UNL     1     -42.318  57.842 -57.795  1.00  0.00     0.294 C 
HETATM   30  O   UNL     1     -41.695  58.778 -58.274  1.00  0.00    -0.259 OA
BRANCH  29  31
HETATM   31  O   UNL     1     -42.458  56.627 -58.354  1.00  0.00    -0.318 OA
BRANCH  31  32
HETATM   32  C   UNL     1     -42.905  56.585 -59.720  1.00  0.00     0.174 C 
HETATM   33  C   UNL     1     -43.860  55.424 -59.923  1.00  0.00     0.034 C 
ENDBRANCH  31  32
ENDBRANCH  29  31
ENDBRANCH   1  29
BRANCH   9  34
HETATM   34  C   UNL     1     -45.301  58.623 -57.696  1.00  0.00    -0.006 A 
HETATM   35  C   UNL     1     -46.146  57.588 -58.125  1.00  0.00     0.014 A 
HETATM   36  C   UNL     1     -47.005  57.781 -59.210  1.00  0.00     0.001 A 
HETATM   37  C   UNL     1     -47.038  59.012 -59.863  1.00  0.00     0.000 A 
HETATM   38  C   UNL     1     -46.216  60.051 -59.434  1.00  0.00     0.001 A 
HETATM   39  C   UNL     1     -45.353  59.861 -58.353  1.00  0.00     0.014 A 
ENDBRANCH   9  34
TORSDOF 10
ENDMDL
MODEL 3
REMARK VINA RESULT:      -7.3      3.345      6.949
REMARK  10 active torsions:
REMARK  status: ('A' for Active; 'I' for Inactive)
REMARK    1  A    between atoms: C_2  and  O_3 
REMARK    2  A    between atoms: O_3  and  C_4 
REMARK    3  A    between atoms: C_4  and  C_5 
REMARK    4  A    between atoms: C_6  and  C_7 
REMARK    5  A    between atoms: C_14  and  C_15 
REMARK    6  A    between atoms: C_15  and  C_16 
REMARK       I    between atoms: C_16  and  N_17 
REMARK    7  A    between atoms: N_17  and  C_18 
REMARK    8  A    between atoms: C_18  and  C_19 
REMARK    9  A    between atoms: C_19  and  N_20 
REMARK   10  A    between atoms: C_31  and  C_32 
ROOT
HETATM    1  C   UNL     1     -43.153  58.099 -57.339  1.00  0.00     0.074 C 
HETATM    2  C   UNL     1     -42.315  58.047 -56.082  1.00  0.00     0.166 C 
HETATM    3  N   UNL     1     -42.624  59.146 -55.136  1.00  0.00    -0.318 N 
HETATM    4  C   UNL     1     -42.045  59.599 -54.070  1.00  0.00     0.011 C 
HETATM    5  C   UNL     1     -44.019  59.767 -55.341  1.00  0.00     0.170 C 
HETATM    6  S   UNL     1     -44.467  60.812 -54.037  1.00  0.00    -0.086 SA
HETATM    7  C   UNL     1     -42.811  60.671 -53.323  1.00  0.00     0.135 C 
HETATM    8  N   UNL     1     -44.790  59.545 -56.338  1.00  0.00    -0.223 NA
HETATM    9  C   UNL     1     -44.333  58.761 -57.374  1.00  0.00     0.084 C 
ENDROOT
BRANCH   4  10
HETATM   10  C   UNL     1     -40.753  58.999 -53.571  1.00  0.00     0.156 C 
BRANCH  10  11
HETATM   11  C   UNL     1     -40.748  58.493 -52.136  1.00  0.00     0.223 C 
HETATM   12  N   UNL     1     -41.705  57.549 -51.865  1.00  0.00    -0.359 N 
HETATM   13  H   UNL     1     -42.375  57.329 -52.599  1.00  0.00     0.162 HD
HETATM   14  O   UNL     1     -39.962  58.903 -51.289  1.00  0.00    -0.273 OA
BRANCH  12  15
HETATM   15  C   UNL     1     -41.966  56.864 -50.591  1.00  0.00     0.150 C 
BRANCH  15  16
HETATM   16  C   UNL     1     -42.802  55.563 -50.566  1.00  0.00     0.254 C 
BRANCH  16  17
HETATM   17  N   UNL     1     -42.079  54.410 -49.921  1.00  0.00    -0.070 N 
HETATM   18  H   UNL     1     -42.820  53.886 -49.416  1.00  0.00     0.279 HD
HETATM   19  C   UNL     1     -41.070  54.819 -48.858  1.00  0.00     0.235 C 
HETATM   20  C   UNL     1     -39.777  54.137 -49.265  1.00  0.00     0.029 C 
HETATM   21  C   UNL     1     -40.236  52.912 -50.027  1.00  0.00     0.029 C 
HETATM   22  C   UNL     1     -41.381  53.451 -50.856  1.00  0.00     0.235 C 
ENDBRANCH  16  17
ENDBRANCH  15  16
ENDBRANCH  12  15
ENDBRANCH  10  11
ENDBRANCH   4  10
BRANCH   2  23
HETATM   23  C   UNL     1     -42.445  56.715 -55.340  1.00  0.00    -0.030 A 
HETATM   24  C   UNL     1     -43.695  56.321 -54.828  1.00  0.00     0.009 A 
HETATM   25  C   UNL     1     -43.840  55.102 -54.164  1.00  0.00     0.001 A 
HETATM   26  C   UNL     1     -42.743  54.262 -53.997  1.00  0.00     0.000 A 
HETATM   27  C   UNL     1     -41.494  54.645 -54.477  1.00  0.00     0.001 A 
HETATM   28  C   UNL     1     -41.340  55.864 -55.139  1.00  0.00     0.009 A 
ENDBRANCH   2  23
BRANCH   1  29
HETATM   29  C   UNL     1     -42.493  57.375 -58.467  1.00  0.00     0.294 C 
HETATM   30  O   UNL     1     -41.754  57.962 -59.244  1.00  0.00    -0.259 OA
BRANCH  29  31
HETATM   31  O   UNL     1     -42.916  56.105 -58.595  1.00  0.00    -0.318 OA
BRANCH  31  32
HETATM   32  C   UNL     1     -43.432  55.717 -59.881  1.00  0.00     0.174 C 
HETATM   33  C   UNL     1     -44.442  54.596 -59.722  1.00  0.00     0.034 C 
ENDBRANCH  31  32
ENDBRANCH  29  31
ENDBRANCH   1  29
BRANCH   9  34
HETATM   34  C   UNL     1     -45.278  58.704 -58.514  1.00  0.00    -0.006 A 
HETATM   35  C   UNL     1     -45.174  59.614 -59.578  1.00  0.00     0.014 A 
HETATM   36  C   UNL     1     -46.032  59.518 -60.675  1.00  0.00     0.001 A 
HETATM   37  C   UNL     1     -46.988  58.504 -60.727  1.00  0.00     0.000 A 
HETATM   38  C   UNL     1     -47.088  57.586 -59.685  1.00  0.00     0.001 A 
HETATM   39  C   UNL     1     -46.236  57.681 -58.584  1.00  0.00     0.014 A 
ENDBRANCH   9  34
TORSDOF 10
ENDMDL
MODEL 4
REMARK VINA RESULT:      -7.1      2.514      9.174
REMARK  10 active torsions:
REMARK  status: ('A' for Active; 'I' for Inactive)
REMARK    1  A    between atoms: C_2  and  O_3 
REMARK    2  A    between atoms: O_3  and  C_4 
REMARK    3  A    between atoms: C_4  and  C_5 
REMARK    4  A    between atoms: C_6  and  C_7 
REMARK    5  A    between atoms: C_14  and  C_15 
REMARK    6  A    between atoms: C_15  and  C_16 
REMARK       I    between atoms: C_16  and  N_17 
REMARK    7  A    between atoms: N_17  and  C_18 
REMARK    8  A    between atoms: C_18  and  C_19 
REMARK    9  A    between atoms: C_19  and  N_20 
REMARK   10  A    between atoms: C_31  and  C_32 
ROOT
HETATM    1  C   UNL     1     -42.735  55.736 -52.588  1.00  0.00     0.074 C 
HETATM    2  C   UNL     1     -43.359  57.111 -52.507  1.00  0.00     0.166 C 
HETATM    3  N   UNL     1     -42.596  58.041 -51.640  1.00  0.00    -0.318 N 
HETATM    4  C   UNL     1     -42.849  59.207 -51.137  1.00  0.00     0.011 C 
HETATM    5  C   UNL     1     -41.123  57.636 -51.442  1.00  0.00     0.170 C 
HETATM    6  S   UNL     1     -40.194  58.893 -50.700  1.00  0.00    -0.086 SA
HETATM    7  C   UNL     1     -41.693  59.864 -50.412  1.00  0.00     0.135 C 
HETATM    8  N   UNL     1     -40.608  56.516 -51.788  1.00  0.00    -0.223 NA
HETATM    9  C   UNL     1     -41.428  55.536 -52.303  1.00  0.00     0.084 C 
ENDROOT
BRANCH   4  10
HETATM   10  C   UNL     1     -44.176  59.885 -51.373  1.00  0.00     0.156 C 
BRANCH  10  11
HETATM   11  C   UNL     1     -45.161  59.874 -50.214  1.00  0.00     0.223 C 
HETATM   12  N   UNL     1     -44.954  60.859 -49.284  1.00  0.00    -0.359 N 
HETATM   13  H   UNL     1     -44.134  61.450 -49.395  1.00  0.00     0.162 HD
HETATM   14  O   UNL     1     -46.059  59.045 -50.113  1.00  0.00    -0.273 OA
BRANCH  12  15
HETATM   15  C   UNL     1     -45.720  61.123 -48.057  1.00  0.00     0.150 C 
BRANCH  15  16
HETATM   16  C   UNL     1     -45.116  60.785 -46.676  1.00  0.00     0.254 C 
BRANCH  16  17
HETATM   17  N   UNL     1     -45.471  61.791 -45.613  1.00  0.00    -0.070 N 
HETATM   18  H   UNL     1     -46.326  61.408 -45.165  1.00  0.00     0.279 HD
HETATM   19  C   UNL     1     -45.870  63.156 -46.153  1.00  0.00     0.235 C 
HETATM   20  C   UNL     1     -44.982  64.142 -45.417  1.00  0.00     0.029 C 
HETATM   21  C   UNL     1     -44.682  63.450 -44.104  1.00  0.00     0.029 C 
HETATM   22  C   UNL     1     -44.439  62.020 -44.535  1.00  0.00     0.235 C 
ENDBRANCH  16  17
ENDBRANCH  15  16
ENDBRANCH  12  15
ENDBRANCH  10  11
ENDBRANCH   4  10
BRANCH   2  23
HETATM   23  C   UNL     1     -43.537  57.760 -53.881  1.00  0.00    -0.030 A 
HETATM   24  C   UNL     1     -44.831  58.013 -54.371  1.00  0.00     0.009 A 
HETATM   25  C   UNL     1     -45.016  58.620 -55.614  1.00  0.00     0.001 A 
HETATM   26  C   UNL     1     -43.915  58.980 -56.387  1.00  0.00     0.000 A 
HETATM   27  C   UNL     1     -42.628  58.718 -55.928  1.00  0.00     0.001 A 
HETATM   28  C   UNL     1     -42.434  58.107 -54.688  1.00  0.00     0.009 A 
ENDBRANCH   2  23
BRANCH   1  29
HETATM   29  C   UNL     1     -43.739  54.702 -52.977  1.00  0.00     0.294 C 
HETATM   30  O   UNL     1     -44.049  53.804 -52.207  1.00  0.00    -0.259 OA
BRANCH  29  31
HETATM   31  O   UNL     1     -44.119  54.795 -54.264  1.00  0.00    -0.318 OA
BRANCH  31  32
HETATM   32  C   UNL     1     -43.357  54.044 -55.225  1.00  0.00     0.174 C 
HETATM   33  C   UNL     1     -42.917  54.946 -56.363  1.00  0.00     0.034 C 
ENDBRANCH  31  32
ENDBRANCH  29  31
ENDBRANCH   1  29
BRANCH   9  34
HETATM   34  C   UNL     1     -40.719  54.254 -52.530  1.00  0.00    -0.006 A 
HETATM   35  C   UNL     1     -40.405  53.409 -51.454  1.00  0.00     0.014 A 
HETATM   36  C   UNL     1     -39.788  52.176 -51.682  1.00  0.00     0.001 A 
HETATM   37  C   UNL     1     -39.497  51.772 -52.984  1.00  0.00     0.000 A 
HETATM   38  C   UNL     1     -39.822  52.596 -54.059  1.00  0.00     0.001 A 
HETATM   39  C   UNL     1     -40.433  53.830 -53.836  1.00  0.00     0.014 A 
ENDBRANCH   9  34
TORSDOF 10
ENDMDL
MODEL 5
REMARK VINA RESULT:      -6.9      2.624      4.485
REMARK  10 active torsions:
REMARK  status: ('A' for Active; 'I' for Inactive)
REMARK    1  A    between atoms: C_2  and  O_3 
REMARK    2  A    between atoms: O_3  and  C_4 
REMARK    3  A    between atoms: C_4  and  C_5 
REMARK    4  A    between atoms: C_6  and  C_7 
REMARK    5  A    between atoms: C_14  and  C_15 
REMARK    6  A    between atoms: C_15  and  C_16 
REMARK       I    between atoms: C_16  and  N_17 
REMARK    7  A    between atoms: N_17  and  C_18 
REMARK    8  A    between atoms: C_18  and  C_19 
REMARK    9  A    between atoms: C_19  and  N_20 
REMARK   10  A    between atoms: C_31  and  C_32 
ROOT
HETATM    1  C   UNL     1     -43.278  59.103 -54.418  1.00  0.00     0.074 C 
HETATM    2  C   UNL     1     -43.074  58.184 -53.235  1.00  0.00     0.166 C 
HETATM    3  N   UNL     1     -42.990  56.755 -53.621  1.00  0.00    -0.318 N 
HETATM    4  C   UNL     1     -43.019  55.644 -52.957  1.00  0.00     0.011 C 
HETATM    5  C   UNL     1     -42.600  56.533 -55.096  1.00  0.00     0.170 C 
HETATM    6  S   UNL     1     -42.205  54.881 -55.425  1.00  0.00    -0.086 SA
HETATM    7  C   UNL     1     -42.749  54.395 -53.770  1.00  0.00     0.135 C 
HETATM    8  N   UNL     1     -42.546  57.443 -55.994  1.00  0.00    -0.223 NA
HETATM    9  C   UNL     1     -42.950  58.721 -55.674  1.00  0.00     0.084 C 
ENDROOT
BRANCH   4  10
HETATM   10  C   UNL     1     -43.197  55.639 -51.458  1.00  0.00     0.156 C 
BRANCH  10  11
HETATM   11  C   UNL     1     -42.259  54.742 -50.665  1.00  0.00     0.223 C 
HETATM   12  N   UNL     1     -41.106  54.404 -51.324  1.00  0.00    -0.359 N 
HETATM   13  H   UNL     1     -41.009  54.702 -52.292  1.00  0.00     0.162 HD
HETATM   14  O   UNL     1     -42.517  54.344 -49.534  1.00  0.00    -0.273 OA
BRANCH  12  15
HETATM   15  C   UNL     1     -40.001  53.561 -50.844  1.00  0.00     0.150 C 
BRANCH  15  16
HETATM   16  C   UNL     1     -40.112  52.021 -50.915  1.00  0.00     0.254 C 
BRANCH  16  17
HETATM   17  N   UNL     1     -39.443  51.436 -52.132  1.00  0.00    -0.070 N 
HETATM   18  H   UNL     1     -38.433  51.632 -51.994  1.00  0.00     0.279 HD
HETATM   19  C   UNL     1     -39.817  52.119 -53.439  1.00  0.00     0.235 C 
HETATM   20  C   UNL     1     -40.274  50.994 -54.349  1.00  0.00     0.029 C 
HETATM   21  C   UNL     1     -39.519  49.784 -53.839  1.00  0.00     0.029 C 
HETATM   22  C   UNL     1     -39.610  49.950 -52.338  1.00  0.00     0.235 C 
ENDBRANCH  16  17
ENDBRANCH  15  16
ENDBRANCH  12  15
ENDBRANCH  10  11
ENDBRANCH   4  10
BRANCH   2  23
HETATM   23  C   UNL     1     -41.830  58.541 -52.418  1.00  0.00    -0.030 A 
HETATM   24  C   UNL     1     -40.568  58.556 -53.039  1.00  0.00     0.009 A 
HETATM   25  C   UNL     1     -39.423  58.895 -52.317  1.00  0.00     0.001 A 
HETATM   26  C   UNL     1     -39.519  59.220 -50.967  1.00  0.00     0.000 A 
HETATM   27  C   UNL     1     -40.755  59.190 -50.330  1.00  0.00     0.001 A 
HETATM   28  C   UNL     1     -41.905  58.847 -51.044  1.00  0.00     0.009 A 
ENDBRANCH   2  23
BRANCH   1  29
HETATM   29  C   UNL     1     -43.889  60.401 -54.004  1.00  0.00     0.294 C 
HETATM   30  O   UNL     1     -43.199  61.395 -53.832  1.00  0.00    -0.259 OA
BRANCH  29  31
HETATM   31  O   UNL     1     -45.198  60.297 -53.713  1.00  0.00    -0.318 OA
BRANCH  31  32
HETATM   32  C   UNL     1     -45.656  60.957 -52.520  1.00  0.00     0.174 C 
HETATM   33  C   UNL     1     -46.018  59.932 -51.461  1.00  0.00     0.034 C 
ENDBRANCH  31  32
ENDBRANCH  29  31
ENDBRANCH   1  29
BRANCH   9  34
HETATM   34  C   UNL     1     -42.961  59.630 -56.844  1.00  0.00    -0.006 A 
HETATM   35  C   UNL     1     -41.886  60.497 -57.089  1.00  0.00     0.014 A 
HETATM   36  C   UNL     1     -41.878  61.310 -58.225  1.00  0.00     0.001 A 
HETATM   37  C   UNL     1     -42.934  61.249 -59.133  1.00  0.00     0.000 A 
HETATM   38  C   UNL     1     -43.998  60.379 -58.909  1.00  0.00     0.001 A 
HETATM   39  C   UNL     1     -44.012  59.569 -57.772  1.00  0.00     0.014 A 
ENDBRANCH   9  34
TORSDOF 10
ENDMDL
MODEL 6
REMARK VINA RESULT:      -6.8      3.624      8.830
REMARK  10 active torsions:
REMARK  status: ('A' for Active; 'I' for Inactive)
REMARK    1  A    between atoms: C_2  and  O_3 
REMARK    2  A    between atoms: O_3  and  C_4 
REMARK    3  A    between atoms: C_4  and  C_5 
REMARK    4  A    between atoms: C_6  and  C_7 
REMARK    5  A    between atoms: C_14  and  C_15 
REMARK    6  A    between atoms: C_15  and  C_16 
REMARK       I    between atoms: C_16  and  N_17 
REMARK    7  A    between atoms: N_17  and  C_18 
REMARK    8  A    between atoms: C_18  and  C_19 
REMARK    9  A    between atoms: C_19  and  N_20 
REMARK   10  A    between atoms: C_31  and  C_32 
ROOT
HETATM    1  C   UNL     1     -42.116  58.306 -53.584  1.00  0.00     0.074 C 
HETATM    2  C   UNL     1     -42.918  59.588 -53.620  1.00  0.00     0.166 C 
HETATM    3  N   UNL     1     -43.867  59.642 -54.758  1.00  0.00    -0.318 N 
HETATM    4  C   UNL     1     -44.584  60.584 -55.283  1.00  0.00     0.011 C 
HETATM    5  C   UNL     1     -44.231  58.258 -55.329  1.00  0.00     0.170 C 
HETATM    6  S   UNL     1     -45.565  58.335 -56.428  1.00  0.00    -0.086 SA
HETATM    7  C   UNL     1     -45.541  60.142 -56.370  1.00  0.00     0.135 C 
HETATM    8  N   UNL     1     -43.648  57.157 -55.034  1.00  0.00    -0.223 NA
HETATM    9  C   UNL     1     -42.544  57.186 -54.211  1.00  0.00     0.084 C 
ENDROOT
BRANCH   4  10
HETATM   10  C   UNL     1     -44.529  61.994 -54.745  1.00  0.00     0.156 C 
BRANCH  10  11
HETATM   11  C   UNL     1     -45.817  62.545 -54.152  1.00  0.00     0.223 C 
HETATM   12  N   UNL     1     -46.560  61.627 -53.457  1.00  0.00    -0.359 N 
HETATM   13  H   UNL     1     -46.244  60.660 -53.462  1.00  0.00     0.162 HD
HETATM   14  O   UNL     1     -46.168  63.712 -54.294  1.00  0.00    -0.273 OA
BRANCH  12  15
HETATM   15  C   UNL     1     -47.842  61.834 -52.768  1.00  0.00     0.150 C 
BRANCH  15  16
HETATM   16  C   UNL     1     -49.076  62.332 -53.555  1.00  0.00     0.254 C 
BRANCH  16  17
HETATM   17  N   UNL     1     -50.379  62.030 -52.862  1.00  0.00    -0.070 N 
HETATM   18  H   UNL     1     -50.178  61.193 -52.281  1.00  0.00     0.279 HD
HETATM   19  C   UNL     1     -51.504  61.616 -53.799  1.00  0.00     0.235 C 
HETATM   20  C   UNL     1     -52.656  62.542 -53.457  1.00  0.00     0.029 C 
HETATM   21  C   UNL     1     -52.419  62.896 -52.003  1.00  0.00     0.029 C 
HETATM   22  C   UNL     1     -50.922  63.110 -51.958  1.00  0.00     0.235 C 
ENDBRANCH  16  17
ENDBRANCH  15  16
ENDBRANCH  12  15
ENDBRANCH  10  11
ENDBRANCH   4  10
BRANCH   2  23
HETATM   23  C   UNL     1     -43.695  59.834 -52.326  1.00  0.00    -0.030 A 
HETATM   24  C   UNL     1     -43.418  60.976 -51.552  1.00  0.00     0.009 A 
HETATM   25  C   UNL     1     -44.127  61.229 -50.377  1.00  0.00     0.001 A 
HETATM   26  C   UNL     1     -45.117  60.347 -49.954  1.00  0.00     0.000 A 
HETATM   27  C   UNL     1     -45.391  59.201 -50.695  1.00  0.00     0.001 A 
HETATM   28  C   UNL     1     -44.683  58.938 -51.869  1.00  0.00     0.009 A 
ENDBRANCH   2  23
BRANCH   1  29
HETATM   29  C   UNL     1     -40.843  58.480 -52.821  1.00  0.00     0.294 C 
HETATM   30  O   UNL     1     -39.936  59.173 -53.259  1.00  0.00    -0.259 OA
BRANCH  29  31
HETATM   31  O   UNL     1     -40.774  57.698 -51.730  1.00  0.00    -0.318 OA
BRANCH  31  32
HETATM   32  C   UNL     1     -41.207  58.275 -50.485  1.00  0.00     0.174 C 
HETATM   33  C   UNL     1     -40.394  59.518 -50.174  1.00  0.00     0.034 C 
ENDBRANCH  31  32
ENDBRANCH  29  31
ENDBRANCH   1  29
BRANCH   9  34
HETATM   34  C   UNL     1     -41.897  55.861 -54.069  1.00  0.00    -0.006 A 
HETATM   35  C   UNL     1     -42.353  54.939 -53.114  1.00  0.00     0.014 A 
HETATM   36  C   UNL     1     -41.775  53.670 -53.026  1.00  0.00     0.001 A 
HETATM   37  C   UNL     1     -40.752  53.307 -53.899  1.00  0.00     0.000 A 
HETATM   38  C   UNL     1     -40.304  54.208 -54.862  1.00  0.00     0.001 A 
HETATM   39  C   UNL     1     -40.875  55.479 -54.951  1.00  0.00     0.014 A 
ENDBRANCH   9  34
TORSDOF 10
ENDMDL
MODEL 7
REMARK VINA RESULT:      -6.8      3.739      7.843
REMARK  10 active torsions:
REMARK  status: ('A' for Active; 'I' for Inactive)
REMARK    1  A    between atoms: C_2  and  O_3 
REMARK    2  A    between atoms: O_3  and  C_4 
REMARK    3  A    between atoms: C_4  and  C_5 
REMARK    4  A    between atoms: C_6  and  C_7 
REMARK    5  A    between atoms: C_14  and  C_15 
REMARK    6  A    between atoms: C_15  and  C_16 
REMARK       I    between atoms: C_16  and  N_17 
REMARK    7  A    between atoms: N_17  and  C_18 
REMARK    8  A    between atoms: C_18  and  C_19 
REMARK    9  A    between atoms: C_19  and  N_20 
REMARK   10  A    between atoms: C_31  and  C_32 
ROOT
HETATM    1  C   UNL     1     -41.719  57.886 -54.316  1.00  0.00     0.074 C 
HETATM    2  C   UNL     1     -41.987  58.945 -55.362  1.00  0.00     0.166 C 
HETATM    3  N   UNL     1     -42.192  58.378 -56.717  1.00  0.00    -0.318 N 
HETATM    4  C   UNL     1     -42.249  58.893 -57.904  1.00  0.00     0.011 C 
HETATM    5  C   UNL     1     -42.614  56.896 -56.712  1.00  0.00     0.170 C 
HETATM    6  S   UNL     1     -43.148  56.364 -58.269  1.00  0.00    -0.086 SA
HETATM    7  C   UNL     1     -42.630  57.931 -59.010  1.00  0.00     0.135 C 
HETATM    8  N   UNL     1     -42.600  56.124 -55.691  1.00  0.00    -0.223 NA
HETATM    9  C   UNL     1     -42.089  56.599 -54.503  1.00  0.00     0.084 C 
ENDROOT
BRANCH   4  10
HETATM   10  C   UNL     1     -42.058  60.375 -58.119  1.00  0.00     0.156 C 
BRANCH  10  11
HETATM   11  C   UNL     1     -43.215  61.123 -58.764  1.00  0.00     0.223 C 
HETATM   12  N   UNL     1     -44.410  60.994 -58.105  1.00  0.00    -0.359 N 
HETATM   13  H   UNL     1     -44.447  60.361 -57.310  1.00  0.00     0.162 HD
HETATM   14  O   UNL     1     -43.092  61.778 -59.794  1.00  0.00    -0.273 OA
BRANCH  12  15
HETATM   15  C   UNL     1     -45.709  61.584 -58.461  1.00  0.00     0.150 C 
BRANCH  15  16
HETATM   16  C   UNL     1     -46.480  61.076 -59.701  1.00  0.00     0.254 C 
BRANCH  16  17
HETATM   17  N   UNL     1     -47.114  59.727 -59.489  1.00  0.00    -0.070 N 
HETATM   18  H   UNL     1     -47.962  59.740 -60.090  1.00  0.00     0.279 HD
HETATM   19  C   UNL     1     -47.620  59.489 -58.074  1.00  0.00     0.235 C 
HETATM   20  C   UNL     1     -46.987  58.176 -57.650  1.00  0.00     0.029 C 
HETATM   21  C   UNL     1     -46.778  57.435 -58.954  1.00  0.00     0.029 C 
HETATM   22  C   UNL     1     -46.283  58.528 -59.877  1.00  0.00     0.235 C 
ENDBRANCH  16  17
ENDBRANCH  15  16
ENDBRANCH  12  15
ENDBRANCH  10  11
ENDBRANCH   4  10
BRANCH   2  23
HETATM   23  C   UNL     1     -43.189  59.826 -55.016  1.00  0.00    -0.030 A 
HETATM   24  C   UNL     1     -42.990  61.179 -54.687  1.00  0.00     0.009 A 
HETATM   25  C   UNL     1     -44.073  62.005 -54.384  1.00  0.00     0.001 A 
HETATM   26  C   UNL     1     -45.368  61.494 -54.401  1.00  0.00     0.000 A 
HETATM   27  C   UNL     1     -45.582  60.153 -54.703  1.00  0.00     0.001 A 
HETATM   28  C   UNL     1     -44.504  59.319 -55.002  1.00  0.00     0.009 A 
ENDBRANCH   2  23
BRANCH   1  29
HETATM   29  C   UNL     1     -40.998  58.453 -53.138  1.00  0.00     0.294 C 
HETATM   30  O   UNL     1     -39.890  58.956 -53.260  1.00  0.00    -0.259 OA
BRANCH  29  31
HETATM   31  O   UNL     1     -41.625  58.213 -51.972  1.00  0.00    -0.318 OA
BRANCH  31  32
HETATM   32  C   UNL     1     -42.488  59.249 -51.471  1.00  0.00     0.174 C 
HETATM   33  C   UNL     1     -43.921  58.753 -51.415  1.00  0.00     0.034 C 
ENDBRANCH  31  32
ENDBRANCH  29  31
ENDBRANCH   1  29
BRANCH   9  34
HETATM   34  C   UNL     1     -42.013  55.556 -53.453  1.00  0.00    -0.006 A 
HETATM   35  C   UNL     1     -40.805  54.894 -53.187  1.00  0.00     0.014 A 
HETATM   36  C   UNL     1     -40.727  53.954 -52.156  1.00  0.00     0.001 A 
HETATM   37  C   UNL     1     -41.848  53.681 -51.375  1.00  0.00     0.000 A 
HETATM   38  C   UNL     1     -43.048  54.345 -51.619  1.00  0.00     0.001 A 
HETATM   39  C   UNL     1     -43.131  55.282 -52.651  1.00  0.00     0.014 A 
ENDBRANCH   9  34
TORSDOF 10
ENDMDL
MODEL 8
REMARK VINA RESULT:      -6.7      2.571      9.258
REMARK  10 active torsions:
REMARK  status: ('A' for Active; 'I' for Inactive)
REMARK    1  A    between atoms: C_2  and  O_3 
REMARK    2  A    between atoms: O_3  and  C_4 
REMARK    3  A    between atoms: C_4  and  C_5 
REMARK    4  A    between atoms: C_6  and  C_7 
REMARK    5  A    between atoms: C_14  and  C_15 
REMARK    6  A    between atoms: C_15  and  C_16 
REMARK       I    between atoms: C_16  and  N_17 
REMARK    7  A    between atoms: N_17  and  C_18 
REMARK    8  A    between atoms: C_18  and  C_19 
REMARK    9  A    between atoms: C_19  and  N_20 
REMARK   10  A    between atoms: C_31  and  C_32 
ROOT
HETATM    1  C   UNL     1     -41.511  55.228 -53.507  1.00  0.00     0.074 C 
HETATM    2  C   UNL     1     -42.121  56.547 -53.089  1.00  0.00     0.166 C 
HETATM    3  N   UNL     1     -43.260  56.384 -52.154  1.00  0.00    -0.318 N 
HETATM    4  C   UNL     1     -44.174  57.186 -51.707  1.00  0.00     0.011 C 
HETATM    5  C   UNL     1     -43.260  55.038 -51.403  1.00  0.00     0.170 C 
HETATM    6  S   UNL     1     -44.404  55.013 -50.106  1.00  0.00    -0.086 SA
HETATM    7  C   UNL     1     -45.070  56.611 -50.630  1.00  0.00     0.135 C 
HETATM    8  N   UNL     1     -42.503  54.040 -51.670  1.00  0.00    -0.223 NA
HETATM    9  C   UNL     1     -41.672  54.108 -52.766  1.00  0.00     0.084 C 
ENDROOT
BRANCH   4  10
HETATM   10  C   UNL     1     -44.241  58.622 -52.166  1.00  0.00     0.156 C 
BRANCH  10  11
HETATM   11  C   UNL     1     -43.835  59.680 -51.151  1.00  0.00     0.223 C 
HETATM   12  N   UNL     1     -44.798  59.969 -50.219  1.00  0.00    -0.359 N 
HETATM   13  H   UNL     1     -45.708  59.529 -50.326  1.00  0.00     0.162 HD
HETATM   14  O   UNL     1     -42.742  60.236 -51.171  1.00  0.00    -0.273 OA
BRANCH  12  15
HETATM   15  C   UNL     1     -44.726  60.933 -49.111  1.00  0.00     0.150 C 
BRANCH  15  16
HETATM   16  C   UNL     1     -46.012  61.612 -48.587  1.00  0.00     0.254 C 
BRANCH  16  17
HETATM   17  N   UNL     1     -46.077  61.671 -47.084  1.00  0.00    -0.070 N 
HETATM   18  H   UNL     1     -46.942  61.150 -46.840  1.00  0.00     0.279 HD
HETATM   19  C   UNL     1     -46.271  63.071 -46.521  1.00  0.00     0.235 C 
HETATM   20  C   UNL     1     -45.154  63.242 -45.508  1.00  0.00     0.029 C 
HETATM   21  C   UNL     1     -44.863  61.830 -45.047  1.00  0.00     0.029 C 
HETATM   22  C   UNL     1     -44.925  61.044 -46.338  1.00  0.00     0.235 C 
ENDBRANCH  16  17
ENDBRANCH  15  16
ENDBRANCH  12  15
ENDBRANCH  10  11
ENDBRANCH   4  10
BRANCH   2  23
HETATM   23  C   UNL     1     -41.101  57.494 -52.453  1.00  0.00    -0.030 A 
HETATM   24  C   UNL     1     -40.864  57.436 -51.068  1.00  0.00     0.009 A 
HETATM   25  C   UNL     1     -39.925  58.278 -50.470  1.00  0.00     0.001 A 
HETATM   26  C   UNL     1     -39.214  59.192 -51.243  1.00  0.00     0.000 A 
HETATM   27  C   UNL     1     -39.451  59.278 -52.612  1.00  0.00     0.001 A 
HETATM   28  C   UNL     1     -40.391  58.442 -53.216  1.00  0.00     0.009 A 
ENDBRANCH   2  23
BRANCH   1  29
HETATM   29  C   UNL     1     -40.778  55.352 -54.803  1.00  0.00     0.294 C 
HETATM   30  O   UNL     1     -39.596  55.053 -54.888  1.00  0.00    -0.259 OA
BRANCH  29  31
HETATM   31  O   UNL     1     -41.508  55.944 -55.765  1.00  0.00    -0.318 OA
BRANCH  31  32
HETATM   32  C   UNL     1     -42.516  55.142 -56.405  1.00  0.00     0.174 C 
HETATM   33  C   UNL     1     -43.170  55.923 -57.530  1.00  0.00     0.034 C 
ENDBRANCH  31  32
ENDBRANCH  29  31
ENDBRANCH   1  29
BRANCH   9  34
HETATM   34  C   UNL     1     -40.960  52.834 -53.027  1.00  0.00    -0.006 A 
HETATM   35  C   UNL     1     -41.187  52.117 -54.211  1.00  0.00     0.014 A 
HETATM   36  C   UNL     1     -40.470  50.947 -54.477  1.00  0.00     0.001 A 
HETATM   37  C   UNL     1     -39.511  50.497 -53.572  1.00  0.00     0.000 A 
HETATM   38  C   UNL     1     -39.265  51.212 -52.402  1.00  0.00     0.001 A 
HETATM   39  C   UNL     1     -39.983  52.378 -52.130  1.00  0.00     0.014 A 
ENDBRANCH   9  34
TORSDOF 10
ENDMDL
MODEL 9
REMARK VINA RESULT:      -6.7      4.017      6.957
REMARK  10 active torsions:
REMARK  status: ('A' for Active; 'I' for Inactive)
REMARK    1  A    between atoms: C_2  and  O_3 
REMARK    2  A    between atoms: O_3  and  C_4 
REMARK    3  A    between atoms: C_4  and  C_5 
REMARK    4  A    between atoms: C_6  and  C_7 
REMARK    5  A    between atoms: C_14  and  C_15 
REMARK    6  A    between atoms: C_15  and  C_16 
REMARK       I    between atoms: C_16  and  N_17 
REMARK    7  A    between atoms: N_17  and  C_18 
REMARK    8  A    between atoms: C_18  and  C_19 
REMARK    9  A    between atoms: C_19  and  N_20 
REMARK   10  A    between atoms: C_31  and  C_32 
ROOT
HETATM    1  C   UNL     1     -42.694  59.865 -58.147  1.00  0.00     0.074 C 
HETATM    2  C   UNL     1     -43.543  59.002 -57.241  1.00  0.00     0.166 C 
HETATM    3  N   UNL     1     -43.379  59.336 -55.806  1.00  0.00    -0.318 N 
HETATM    4  C   UNL     1     -43.737  58.757 -54.705  1.00  0.00     0.011 C 
HETATM    5  C   UNL     1     -42.840  60.759 -55.558  1.00  0.00     0.170 C 
HETATM    6  S   UNL     1     -42.962  61.223 -53.897  1.00  0.00    -0.086 SA
HETATM    7  C   UNL     1     -43.478  59.550 -53.441  1.00  0.00     0.135 C 
HETATM    8  N   UNL     1     -42.366  61.539 -56.456  1.00  0.00    -0.223 NA
HETATM    9  C   UNL     1     -42.230  61.070 -57.744  1.00  0.00     0.084 C 
ENDROOT
BRANCH   4  10
HETATM   10  C   UNL     1     -44.462  57.433 -54.722  1.00  0.00     0.156 C 
BRANCH  10  11
HETATM   11  C   UNL     1     -43.602  56.185 -54.592  1.00  0.00     0.223 C 
HETATM   12  N   UNL     1     -43.695  55.557 -53.378  1.00  0.00    -0.359 N 
HETATM   13  H   UNL     1     -44.249  56.006 -52.653  1.00  0.00     0.162 HD
HETATM   14  O   UNL     1     -42.878  55.780 -55.495  1.00  0.00    -0.273 OA
BRANCH  12  15
HETATM   15  C   UNL     1     -43.002  54.339 -52.933  1.00  0.00     0.150 C 
BRANCH  15  16
HETATM   16  C   UNL     1     -41.692  54.443 -52.118  1.00  0.00     0.254 C 
BRANCH  16  17
HETATM   17  N   UNL     1     -40.547  53.690 -52.742  1.00  0.00    -0.070 N 
HETATM   18  H   UNL     1     -39.766  54.375 -52.766  1.00  0.00     0.279 HD
HETATM   19  C   UNL     1     -40.780  53.285 -54.189  1.00  0.00     0.235 C 
HETATM   20  C   UNL     1     -40.507  51.792 -54.225  1.00  0.00     0.029 C 
HETATM   21  C   UNL     1     -39.519  51.577 -53.099  1.00  0.00     0.029 C 
HETATM   22  C   UNL     1     -40.072  52.462 -52.003  1.00  0.00     0.235 C 
ENDBRANCH  16  17
ENDBRANCH  15  16
ENDBRANCH  12  15
ENDBRANCH  10  11
ENDBRANCH   4  10
BRANCH   2  23
HETATM   23  C   UNL     1     -45.032  59.066 -57.590  1.00  0.00    -0.030 A 
HETATM   24  C   UNL     1     -45.752  60.252 -57.359  1.00  0.00     0.009 A 
HETATM   25  C   UNL     1     -47.106  60.339 -57.685  1.00  0.00     0.001 A 
HETATM   26  C   UNL     1     -47.762  59.244 -58.241  1.00  0.00     0.000 A 
HETATM   27  C   UNL     1     -47.072  58.055 -58.457  1.00  0.00     0.001 A 
HETATM   28  C   UNL     1     -45.718  57.959 -58.129  1.00  0.00     0.009 A 
ENDBRANCH   2  23
BRANCH   1  29
HETATM   29  C   UNL     1     -42.444  59.198 -59.460  1.00  0.00     0.294 C 
HETATM   30  O   UNL     1     -42.865  59.680 -60.501  1.00  0.00    -0.259 OA
BRANCH  29  31
HETATM   31  O   UNL     1     -41.863  57.992 -59.335  1.00  0.00    -0.318 OA
BRANCH  31  32
HETATM   32  C   UNL     1     -42.393  56.925 -60.141  1.00  0.00     0.174 C 
HETATM   33  C   UNL     1     -42.944  55.824 -59.255  1.00  0.00     0.034 C 
ENDBRANCH  31  32
ENDBRANCH  29  31
ENDBRANCH   1  29
BRANCH   9  34
HETATM   34  C   UNL     1     -41.546  62.033 -58.638  1.00  0.00    -0.006 A 
HETATM   35  C   UNL     1     -42.282  62.967 -59.383  1.00  0.00     0.014 A 
HETATM   36  C   UNL     1     -41.626  63.910 -60.179  1.00  0.00     0.001 A 
HETATM   37  C   UNL     1     -40.233  63.938 -60.222  1.00  0.00     0.000 A 
HETATM   38  C   UNL     1     -39.493  63.027 -59.472  1.00  0.00     0.001 A 
HETATM   39  C   UNL     1     -40.144  62.080 -58.680  1.00  0.00     0.014 A 
ENDBRANCH   9  34
TORSDOF 10
ENDMDL
MODEL 10
REMARK VINA RESULT:      -6.6      3.181      8.307
REMARK  10 active torsions:
REMARK  status: ('A' for Active; 'I' for Inactive)
REMARK    1  A    between atoms: C_2  and  O_3 
REMARK    2  A    between atoms: O_3  and  C_4 
REMARK    3  A    between atoms: C_4  and  C_5 
REMARK    4  A    between atoms: C_6  and  C_7 
REMARK    5  A    between atoms: C_14  and  C_15 
REMARK    6  A    between atoms: C_15  and  C_16 
REMARK       I    between atoms: C_16  and  N_17 
REMARK    7  A    between atoms: N_17  and  C_18 
REMARK    8  A    between atoms: C_18  and  C_19 
REMARK    9  A    between atoms: C_19  and  N_20 
REMARK   10  A    between atoms: C_31  and  C_32 
ROOT
HETATM    1  C   UNL     1     -41.508  55.260 -53.501  1.00  0.00     0.074 C 
HETATM    2  C   UNL     1     -42.121  56.569 -53.057  1.00  0.00     0.166 C 
HETATM    3  N   UNL     1     -43.264  56.386 -52.130  1.00  0.00    -0.318 N 
HETATM    4  C   UNL     1     -44.180  57.177 -51.670  1.00  0.00     0.011 C 
HETATM    5  C   UNL     1     -43.265  55.024 -51.408  1.00  0.00     0.170 C 
HETATM    6  S   UNL     1     -44.415  54.971 -50.117  1.00  0.00    -0.086 SA
HETATM    7  C   UNL     1     -45.080  56.579 -50.609  1.00  0.00     0.135 C 
HETATM    8  N   UNL     1     -42.507  54.033 -51.694  1.00  0.00    -0.223 NA
HETATM    9  C   UNL     1     -41.671  54.124 -52.785  1.00  0.00     0.084 C 
ENDROOT
BRANCH   4  10
HETATM   10  C   UNL     1     -44.246  58.623 -52.099  1.00  0.00     0.156 C 
BRANCH  10  11
HETATM   11  C   UNL     1     -44.796  58.895 -53.491  1.00  0.00     0.223 C 
HETATM   12  N   UNL     1     -44.989  60.222 -53.774  1.00  0.00    -0.359 N 
HETATM   13  H   UNL     1     -44.835  60.894 -53.026  1.00  0.00     0.162 HD
HETATM   14  O   UNL     1     -45.055  58.001 -54.289  1.00  0.00    -0.273 OA
BRANCH  12  15
HETATM   15  C   UNL     1     -45.502  60.817 -55.017  1.00  0.00     0.150 C 
BRANCH  15  16
HETATM   16  C   UNL     1     -44.539  61.127 -56.185  1.00  0.00     0.254 C 
BRANCH  16  17
HETATM   17  N   UNL     1     -44.089  59.893 -56.923  1.00  0.00    -0.070 N 
HETATM   18  H   UNL     1     -44.730  59.145 -56.594  1.00  0.00     0.279 HD
HETATM   19  C   UNL     1     -42.690  59.422 -56.559  1.00  0.00     0.235 C 
HETATM   20  C   UNL     1     -41.963  59.297 -57.885  1.00  0.00     0.029 C 
HETATM   21  C   UNL     1     -43.068  59.009 -58.879  1.00  0.00     0.029 C 
HETATM   22  C   UNL     1     -44.167  59.949 -58.429  1.00  0.00     0.235 C 
ENDBRANCH  16  17
ENDBRANCH  15  16
ENDBRANCH  12  15
ENDBRANCH  10  11
ENDBRANCH   4  10
BRANCH   2  23
HETATM   23  C   UNL     1     -41.104  57.503 -52.397  1.00  0.00    -0.030 A 
HETATM   24  C   UNL     1     -40.334  58.370 -53.194  1.00  0.00     0.009 A 
HETATM   25  C   UNL     1     -39.413  59.242 -52.612  1.00  0.00     0.001 A 
HETATM   26  C   UNL     1     -39.244  59.260 -51.230  1.00  0.00     0.000 A 
HETATM   27  C   UNL     1     -39.982  58.396 -50.428  1.00  0.00     0.001 A 
HETATM   28  C   UNL     1     -40.902  57.517 -51.003  1.00  0.00     0.009 A 
ENDBRANCH   2  23
BRANCH   1  29
HETATM   29  C   UNL     1     -40.771  55.412 -54.791  1.00  0.00     0.294 C 
HETATM   30  O   UNL     1     -39.565  55.220 -54.853  1.00  0.00    -0.259 OA
BRANCH  29  31
HETATM   31  O   UNL     1     -41.537  55.907 -55.780  1.00  0.00    -0.318 OA
BRANCH  31  32
HETATM   32  C   UNL     1     -42.559  55.043 -56.307  1.00  0.00     0.174 C 
HETATM   33  C   UNL     1     -43.105  55.611 -57.604  1.00  0.00     0.034 C 
ENDBRANCH  31  32
ENDBRANCH  29  31
ENDBRANCH   1  29
BRANCH   9  34
HETATM   34  C   UNL     1     -40.958  52.857 -53.070  1.00  0.00    -0.006 A 
HETATM   35  C   UNL     1     -41.174  52.169 -54.274  1.00  0.00     0.014 A 
HETATM   36  C   UNL     1     -40.455  51.006 -54.561  1.00  0.00     0.001 A 
HETATM   37  C   UNL     1     -39.504  50.533 -53.658  1.00  0.00     0.000 A 
HETATM   38  C   UNL     1     -39.269  51.219 -52.469  1.00  0.00     0.001 A 
HETATM   39  C   UNL     1     -39.989  52.378 -52.176  1.00  0.00     0.014 A 
ENDBRANCH   9  34
TORSDOF 10
ENDMDL
