MODEL 1
REMARK VINA RESULT:      -7.2      0.000      0.000
REMARK  5 active torsions:
REMARK  status: ('A' for Active; 'I' for Inactive)
REMARK    1  A    between atoms: C_3  and  N_4 
REMARK       I    between atoms: N_4  and  C_5 
REMARK       I    between atoms: C_5  and  N_6 
REMARK    2  A    between atoms: N_6  and  C_7 
REMARK    3  A    between atoms: C_7  and  C_8 
REMARK    4  A    between atoms: C_8  and  O_9 
REMARK    5  A    between atoms: O_9  and  C_10 
ROOT
HETATM    1  N   UNL     1     -39.761  53.150 -51.320  1.00  0.00    -0.307 N 
HETATM    2  C   UNL     1     -40.813  53.941 -50.921  1.00  0.00     0.320 C 
HETATM    3  N   UNL     1     -40.359  55.051 -50.238  1.00  0.00    -0.340 N 
HETATM    4  O   UNL     1     -41.998  53.719 -51.112  1.00  0.00    -0.247 OA
HETATM    5  H   UNL     1     -39.001  53.138 -50.653  1.00  0.00     0.170 HD
HETATM    6  H   UNL     1     -39.426  55.328 -50.509  1.00  0.00     0.164 HD
ENDROOT
BRANCH   3   7
HETATM    7  C   UNL     1     -41.267  56.161 -49.959  1.00  0.00     0.156 C 
BRANCH   7   8
HETATM    8  C   UNL     1     -41.200  57.340 -50.953  1.00  0.00     0.142 C 
HETATM    9  C   UNL     1     -41.005  58.678 -50.236  1.00  0.00     0.042 C 
BRANCH   8  10
HETATM   10  O   UNL     1     -42.479  57.462 -51.605  1.00  0.00    -0.345 OA
BRANCH  10  11
HETATM   11  C   UNL     1     -42.664  56.880 -52.824  1.00  0.00     0.069 A 
HETATM   12  C   UNL     1     -43.617  55.914 -53.139  1.00  0.00     0.038 A 
HETATM   13  C   UNL     1     -43.697  55.410 -54.443  1.00  0.00     0.026 A 
HETATM   14  C   UNL     1     -42.831  55.881 -55.429  1.00  0.00     0.034 A 
HETATM   15 CL   UNL     1     -42.932  55.257 -57.029  1.00  0.00    -0.084 Cl
HETATM   16  C   UNL     1     -41.889  56.859 -55.127  1.00  0.00     0.026 A 
HETATM   17  C   UNL     1     -41.812  57.358 -53.825  1.00  0.00     0.038 A 
ENDBRANCH  10  11
ENDBRANCH   8  10
ENDBRANCH   7   8
ENDBRANCH   3   7
BRANCH   1  18
HETATM   18  C   UNL     1     -39.822  52.055 -52.217  1.00  0.00     0.059 A 
HETATM   19  C   UNL     1     -40.080  52.126 -53.595  1.00  0.00    -0.032 A 
HETATM   20  C   UNL     1     -40.280  53.397 -54.372  1.00  0.00     0.050 C 
HETATM   21  C   UNL     1     -40.131  50.925 -54.325  1.00  0.00     0.028 A 
HETATM   22  C   UNL     1     -39.867  49.723 -53.690  1.00  0.00     0.117 A 
HETATM   23  N   UNL     1     -39.553  49.627 -52.386  1.00  0.00    -0.271 NA
HETATM   24  C   UNL     1     -39.538  50.789 -51.691  1.00  0.00     0.146 A 
ENDBRANCH   1  18
TORSDOF 5
ENDMDL
MODEL 2
REMARK VINA RESULT:      -7.2      2.706      5.601
REMARK  5 active torsions:
REMARK  status: ('A' for Active; 'I' for Inactive)
REMARK    1  A    between atoms: C_3  and  N_4 
REMARK       I    between atoms: N_4  and  C_5 
REMARK       I    between atoms: C_5  and  N_6 
REMARK    2  A    between atoms: N_6  and  C_7 
REMARK    3  A    between atoms: C_7  and  C_8 
REMARK    4  A    between atoms: C_8  and  O_9 
REMARK    5  A    between atoms: O_9  and  C_10 
ROOT
HETATM    1  N   UNL     1     -43.736  55.676 -53.119  1.00  0.00    -0.307 N 
HETATM    2  C   UNL     1     -42.847  56.011 -52.125  1.00  0.00     0.320 C 
HETATM    3  N   UNL     1     -43.126  55.316 -50.965  1.00  0.00    -0.340 N 
HETATM    4  O   UNL     1     -41.933  56.816 -52.211  1.00  0.00    -0.247 OA
HETATM    5  H   UNL     1     -44.668  55.499 -52.772  1.00  0.00     0.170 HD
HETATM    6  H   UNL     1     -43.583  54.431 -51.134  1.00  0.00     0.164 HD
ENDROOT
BRANCH   3   7
HETATM    7  C   UNL     1     -42.161  55.303 -49.869  1.00  0.00     0.156 C 
BRANCH   7   8
HETATM    8  C   UNL     1     -41.255  54.054 -49.796  1.00  0.00     0.142 C 
HETATM    9  C   UNL     1     -40.485  53.987 -48.475  1.00  0.00     0.042 C 
BRANCH   8  10
HETATM   10  O   UNL     1     -40.233  54.171 -50.805  1.00  0.00    -0.345 OA
BRANCH  10  11
HETATM   11  C   UNL     1     -40.166  53.238 -51.797  1.00  0.00     0.069 A 
HETATM   12  C   UNL     1     -40.511  53.431 -53.134  1.00  0.00     0.038 A 
HETATM   13  C   UNL     1     -40.382  52.378 -54.047  1.00  0.00     0.026 A 
HETATM   14  C   UNL     1     -39.900  51.140 -53.624  1.00  0.00     0.034 A 
HETATM   15 CL   UNL     1     -39.745  49.849 -54.750  1.00  0.00    -0.084 Cl
HETATM   16  C   UNL     1     -39.536  50.945 -52.296  1.00  0.00     0.026 A 
HETATM   17  C   UNL     1     -39.667  51.997 -51.387  1.00  0.00     0.038 A 
ENDBRANCH  10  11
ENDBRANCH   8  10
ENDBRANCH   7   8
ENDBRANCH   3   7
BRANCH   1  18
HETATM   18  C   UNL     1     -43.635  56.020 -54.490  1.00  0.00     0.059 A 
HETATM   19  C   UNL     1     -44.120  57.194 -55.089  1.00  0.00    -0.032 A 
HETATM   20  C   UNL     1     -44.788  58.323 -54.357  1.00  0.00     0.050 C 
HETATM   21  C   UNL     1     -43.953  57.351 -56.477  1.00  0.00     0.028 A 
HETATM   22  C   UNL     1     -43.266  56.389 -57.199  1.00  0.00     0.117 A 
HETATM   23  N   UNL     1     -42.732  55.287 -56.645  1.00  0.00    -0.271 NA
HETATM   24  C   UNL     1     -42.929  55.135 -55.314  1.00  0.00     0.146 A 
ENDBRANCH   1  18
TORSDOF 5
ENDMDL
MODEL 3
REMARK VINA RESULT:      -7.1      3.059      6.032
REMARK  5 active torsions:
REMARK  status: ('A' for Active; 'I' for Inactive)
REMARK    1  A    between atoms: C_3  and  N_4 
REMARK       I    between atoms: N_4  and  C_5 
REMARK       I    between atoms: C_5  and  N_6 
REMARK    2  A    between atoms: N_6  and  C_7 
REMARK    3  A    between atoms: C_7  and  C_8 
REMARK    4  A    between atoms: C_8  and  O_9 
REMARK    5  A    between atoms: O_9  and  C_10 
ROOT
HETATM    1  N   UNL     1     -44.168  56.000 -53.825  1.00  0.00    -0.307 N 
HETATM    2  C   UNL     1     -43.621  56.402 -52.628  1.00  0.00     0.320 C 
HETATM    3  N   UNL     1     -43.684  55.385 -51.696  1.00  0.00    -0.340 N 
HETATM    4  O   UNL     1     -43.150  57.501 -52.380  1.00  0.00    -0.247 OA
HETATM    5  H   UNL     1     -44.958  55.381 -53.709  1.00  0.00     0.170 HD
HETATM    6  H   UNL     1     -43.687  54.466 -52.114  1.00  0.00     0.164 HD
ENDROOT
BRANCH   3   7
HETATM    7  C   UNL     1     -42.927  55.486 -50.451  1.00  0.00     0.156 C 
BRANCH   7   8
HETATM    8  C   UNL     1     -41.831  54.417 -50.251  1.00  0.00     0.142 C 
HETATM    9  C   UNL     1     -41.059  54.632 -48.947  1.00  0.00     0.042 C 
BRANCH   8  10
HETATM   10  O   UNL     1     -40.844  54.574 -51.288  1.00  0.00    -0.345 OA
BRANCH  10  11
HETATM   11  C   UNL     1     -40.585  53.531 -52.126  1.00  0.00     0.069 A 
HETATM   12  C   UNL     1     -40.983  53.426 -53.457  1.00  0.00     0.038 A 
HETATM   13  C   UNL     1     -40.637  52.293 -54.203  1.00  0.00     0.026 A 
HETATM   14  C   UNL     1     -39.885  51.274 -53.619  1.00  0.00     0.034 A 
HETATM   15 CL   UNL     1     -39.463  49.883 -54.539  1.00  0.00    -0.084 Cl
HETATM   16  C   UNL     1     -39.468  51.380 -52.296  1.00  0.00     0.026 A 
HETATM   17  C   UNL     1     -39.816  52.511 -51.555  1.00  0.00     0.038 A 
ENDBRANCH  10  11
ENDBRANCH   8  10
ENDBRANCH   7   8
ENDBRANCH   3   7
BRANCH   1  18
HETATM   18  C   UNL     1     -44.089  56.689 -55.060  1.00  0.00     0.059 A 
HETATM   19  C   UNL     1     -43.338  56.299 -56.181  1.00  0.00    -0.032 A 
HETATM   20  C   UNL     1     -42.526  55.038 -56.279  1.00  0.00     0.050 C 
HETATM   21  C   UNL     1     -43.359  57.128 -57.317  1.00  0.00     0.028 A 
HETATM   22  C   UNL     1     -44.157  58.259 -57.328  1.00  0.00     0.117 A 
HETATM   23  N   UNL     1     -44.938  58.624 -56.297  1.00  0.00    -0.271 NA
HETATM   24  C   UNL     1     -44.883  57.833 -55.199  1.00  0.00     0.146 A 
ENDBRANCH   1  18
TORSDOF 5
ENDMDL
MODEL 4
REMARK VINA RESULT:      -6.9      2.642      4.091
REMARK  5 active torsions:
REMARK  status: ('A' for Active; 'I' for Inactive)
REMARK    1  A    between atoms: C_3  and  N_4 
REMARK       I    between atoms: N_4  and  C_5 
REMARK       I    between atoms: C_5  and  N_6 
REMARK    2  A    between atoms: N_6  and  C_7 
REMARK    3  A    between atoms: C_7  and  C_8 
REMARK    4  A    between atoms: C_8  and  O_9 
REMARK    5  A    between atoms: O_9  and  C_10 
ROOT
HETATM    1  N   UNL     1     -40.155  53.074 -54.452  1.00  0.00    -0.307 N 
HETATM    2  C   UNL     1     -41.359  53.704 -54.667  1.00  0.00     0.320 C 
HETATM    3  N   UNL     1     -41.246  54.642 -55.675  1.00  0.00    -0.340 N 
HETATM    4  O   UNL     1     -42.400  53.503 -54.063  1.00  0.00    -0.247 OA
HETATM    5  H   UNL     1     -39.361  53.687 -54.574  1.00  0.00     0.170 HD
HETATM    6  H   UNL     1     -40.518  54.422 -56.340  1.00  0.00     0.164 HD
ENDROOT
BRANCH   3   7
HETATM    7  C   UNL     1     -42.445  55.236 -56.259  1.00  0.00     0.156 C 
BRANCH   7   8
HETATM    8  C   UNL     1     -42.988  56.487 -55.533  1.00  0.00     0.142 C 
HETATM    9  C   UNL     1     -43.883  57.329 -56.445  1.00  0.00     0.042 C 
BRANCH   8  10
HETATM   10  O   UNL     1     -41.879  57.350 -55.217  1.00  0.00    -0.345 OA
BRANCH  10  11
HETATM   11  C   UNL     1     -41.657  57.701 -53.919  1.00  0.00     0.069 A 
HETATM   12  C   UNL     1     -41.706  56.851 -52.816  1.00  0.00     0.038 A 
HETATM   13  C   UNL     1     -41.446  57.354 -51.535  1.00  0.00     0.026 A 
HETATM   14  C   UNL     1     -41.128  58.700 -51.363  1.00  0.00     0.034 A 
HETATM   15 CL   UNL     1     -40.812  59.312 -49.787  1.00  0.00    -0.084 Cl
HETATM   16  C   UNL     1     -41.059  59.550 -52.461  1.00  0.00     0.026 A 
HETATM   17  C   UNL     1     -41.319  59.047 -53.737  1.00  0.00     0.038 A 
ENDBRANCH  10  11
ENDBRANCH   8  10
ENDBRANCH   7   8
ENDBRANCH   3   7
BRANCH   1  18
HETATM   18  C   UNL     1     -39.939  51.922 -53.657  1.00  0.00     0.059 A 
HETATM   19  C   UNL     1     -39.786  51.894 -52.261  1.00  0.00    -0.032 A 
HETATM   20  C   UNL     1     -39.883  53.091 -51.359  1.00  0.00     0.050 C 
HETATM   21  C   UNL     1     -39.548  50.653 -51.643  1.00  0.00     0.028 A 
HETATM   22  C   UNL     1     -39.536  49.497 -52.405  1.00  0.00     0.117 A 
HETATM   23  N   UNL     1     -39.745  49.482 -53.732  1.00  0.00    -0.271 NA
HETATM   24  C   UNL     1     -39.940  50.687 -54.317  1.00  0.00     0.146 A 
ENDBRANCH   1  18
TORSDOF 5
ENDMDL
MODEL 5
REMARK VINA RESULT:      -6.7      3.859      6.603
REMARK  5 active torsions:
REMARK  status: ('A' for Active; 'I' for Inactive)
REMARK    1  A    between atoms: C_3  and  N_4 
REMARK       I    between atoms: N_4  and  C_5 
REMARK       I    between atoms: C_5  and  N_6 
REMARK    2  A    between atoms: N_6  and  C_7 
REMARK    3  A    between atoms: C_7  and  C_8 
REMARK    4  A    between atoms: C_8  and  O_9 
REMARK    5  A    between atoms: O_9  and  C_10 
ROOT
HETATM    1  N   UNL     1     -44.275  56.905 -55.967  1.00  0.00    -0.307 N 
HETATM    2  C   UNL     1     -43.513  57.055 -54.832  1.00  0.00     0.320 C 
HETATM    3  N   UNL     1     -44.191  56.587 -53.724  1.00  0.00    -0.340 N 
HETATM    4  O   UNL     1     -42.396  57.543 -54.768  1.00  0.00    -0.247 OA
HETATM    5  H   UNL     1     -45.262  57.045 -55.802  1.00  0.00     0.170 HD
HETATM    6  H   UNL     1     -44.861  55.866 -53.945  1.00  0.00     0.164 HD
ENDROOT
BRANCH   3   7
HETATM    7  C   UNL     1     -43.483  56.394 -52.461  1.00  0.00     0.156 C 
BRANCH   7   8
HETATM    8  C   UNL     1     -43.127  54.932 -52.116  1.00  0.00     0.142 C 
HETATM    9  C   UNL     1     -43.625  54.539 -50.723  1.00  0.00     0.042 C 
BRANCH   8  10
HETATM   10  O   UNL     1     -41.693  54.817 -52.034  1.00  0.00    -0.345 OA
BRANCH  10  11
HETATM   11  C   UNL     1     -41.088  53.685 -52.491  1.00  0.00     0.069 A 
HETATM   12  C   UNL     1     -40.152  52.915 -51.802  1.00  0.00     0.038 A 
HETATM   13  C   UNL     1     -39.618  51.767 -52.397  1.00  0.00     0.026 A 
HETATM   14  C   UNL     1     -40.027  51.385 -53.674  1.00  0.00     0.034 A 
HETATM   15 CL   UNL     1     -39.366  49.974 -54.401  1.00  0.00    -0.084 Cl
HETATM   16  C   UNL     1     -40.974  52.138 -54.361  1.00  0.00     0.026 A 
HETATM   17  C   UNL     1     -41.504  53.284 -53.765  1.00  0.00     0.038 A 
ENDBRANCH  10  11
ENDBRANCH   8  10
ENDBRANCH   7   8
ENDBRANCH   3   7
BRANCH   1  18
HETATM   18  C   UNL     1     -43.835  57.071 -57.304  1.00  0.00     0.059 A 
HETATM   19  C   UNL     1     -43.887  58.258 -58.052  1.00  0.00    -0.032 A 
HETATM   20  C   UNL     1     -44.371  59.583 -57.536  1.00  0.00     0.050 C 
HETATM   21  C   UNL     1     -43.428  58.227 -59.382  1.00  0.00     0.028 A 
HETATM   22  C   UNL     1     -42.885  57.060 -59.894  1.00  0.00     0.117 A 
HETATM   23  N   UNL     1     -42.761  55.926 -59.183  1.00  0.00    -0.271 NA
HETATM   24  C   UNL     1     -43.235  55.964 -57.916  1.00  0.00     0.146 A 
ENDBRANCH   1  18
TORSDOF 5
ENDMDL
MODEL 6
REMARK VINA RESULT:      -6.7      4.112      6.755
REMARK  5 active torsions:
REMARK  status: ('A' for Active; 'I' for Inactive)
REMARK    1  A    between atoms: C_3  and  N_4 
REMARK       I    between atoms: N_4  and  C_5 
REMARK       I    between atoms: C_5  and  N_6 
REMARK    2  A    between atoms: N_6  and  C_7 
REMARK    3  A    between atoms: C_7  and  C_8 
REMARK    4  A    between atoms: C_8  and  O_9 
REMARK    5  A    between atoms: O_9  and  C_10 
ROOT
HETATM    1  N   UNL     1     -43.670  56.554 -56.457  1.00  0.00    -0.307 N 
HETATM    2  C   UNL     1     -43.050  55.855 -55.447  1.00  0.00     0.320 C 
HETATM    3  N   UNL     1     -43.957  55.503 -54.468  1.00  0.00    -0.340 N 
HETATM    4  O   UNL     1     -41.862  55.579 -55.382  1.00  0.00    -0.247 OA
HETATM    5  H   UNL     1     -44.411  57.155 -56.123  1.00  0.00     0.170 HD
HETATM    6  H   UNL     1     -44.899  55.407 -54.818  1.00  0.00     0.164 HD
ENDROOT
BRANCH   3   7
HETATM    7  C   UNL     1     -43.586  54.531 -53.443  1.00  0.00     0.156 C 
BRANCH   7   8
HETATM    8  C   UNL     1     -42.987  55.125 -52.149  1.00  0.00     0.142 C 
HETATM    9  C   UNL     1     -43.256  56.627 -52.036  1.00  0.00     0.042 C 
BRANCH   8  10
HETATM   10  O   UNL     1     -41.552  55.018 -52.219  1.00  0.00    -0.345 OA
BRANCH  10  11
HETATM   11  C   UNL     1     -40.964  53.802 -52.033  1.00  0.00     0.069 A 
HETATM   12  C   UNL     1     -40.327  53.038 -53.009  1.00  0.00     0.038 A 
HETATM   13  C   UNL     1     -39.758  51.805 -52.670  1.00  0.00     0.026 A 
HETATM   14  C   UNL     1     -39.819  51.344 -51.355  1.00  0.00     0.034 A 
HETATM   15 CL   UNL     1     -39.121  49.827 -50.944  1.00  0.00    -0.084 Cl
HETATM   16  C   UNL     1     -40.437  52.110 -50.372  1.00  0.00     0.026 A 
HETATM   17  C   UNL     1     -41.004  53.339 -50.714  1.00  0.00     0.038 A 
ENDBRANCH  10  11
ENDBRANCH   8  10
ENDBRANCH   7   8
ENDBRANCH   3   7
BRANCH   1  18
HETATM   18  C   UNL     1     -43.111  56.890 -57.715  1.00  0.00     0.059 A 
HETATM   19  C   UNL     1     -42.463  58.092 -58.040  1.00  0.00    -0.032 A 
HETATM   20  C   UNL     1     -42.199  59.217 -57.080  1.00  0.00     0.050 C 
HETATM   21  C   UNL     1     -41.995  58.260 -59.356  1.00  0.00     0.028 A 
HETATM   22  C   UNL     1     -42.125  57.227 -60.269  1.00  0.00     0.117 A 
HETATM   23  N   UNL     1     -42.681  56.041 -59.971  1.00  0.00    -0.271 NA
HETATM   24  C   UNL     1     -43.155  55.906 -58.710  1.00  0.00     0.146 A 
ENDBRANCH   1  18
TORSDOF 5
ENDMDL
MODEL 7
REMARK VINA RESULT:      -6.6      1.802      2.293
REMARK  5 active torsions:
REMARK  status: ('A' for Active; 'I' for Inactive)
REMARK    1  A    between atoms: C_3  and  N_4 
REMARK       I    between atoms: N_4  and  C_5 
REMARK       I    between atoms: C_5  and  N_6 
REMARK    2  A    between atoms: N_6  and  C_7 
REMARK    3  A    between atoms: C_7  and  C_8 
REMARK    4  A    between atoms: C_8  and  O_9 
REMARK    5  A    between atoms: O_9  and  C_10 
ROOT
HETATM    1  N   UNL     1     -40.867  54.273 -51.854  1.00  0.00    -0.307 N 
HETATM    2  C   UNL     1     -42.179  54.667 -51.727  1.00  0.00     0.320 C 
HETATM    3  N   UNL     1     -42.264  56.036 -51.568  1.00  0.00    -0.340 N 
HETATM    4  O   UNL     1     -43.158  53.938 -51.733  1.00  0.00    -0.247 OA
HETATM    5  H   UNL     1     -40.233  54.822 -51.289  1.00  0.00     0.170 HD
HETATM    6  H   UNL     1     -41.492  56.532 -51.989  1.00  0.00     0.164 HD
ENDROOT
BRANCH   3   7
HETATM    7  C   UNL     1     -43.556  56.707 -51.686  1.00  0.00     0.156 C 
BRANCH   7   8
HETATM    8  C   UNL     1     -43.662  57.749 -52.821  1.00  0.00     0.142 C 
HETATM    9  C   UNL     1     -44.315  59.047 -52.341  1.00  0.00     0.042 C 
BRANCH   8  10
HETATM   10  O   UNL     1     -44.562  57.242 -53.825  1.00  0.00    -0.345 OA
BRANCH  10  11
HETATM   11  C   UNL     1     -44.064  56.865 -55.037  1.00  0.00     0.069 A 
HETATM   12  C   UNL     1     -43.250  55.761 -55.286  1.00  0.00     0.038 A 
HETATM   13  C   UNL     1     -42.818  55.492 -56.590  1.00  0.00     0.026 A 
HETATM   14  C   UNL     1     -43.209  56.319 -57.642  1.00  0.00     0.034 A 
HETATM   15 CL   UNL     1     -42.674  55.985 -59.242  1.00  0.00    -0.084 Cl
HETATM   16  C   UNL     1     -44.036  57.412 -57.404  1.00  0.00     0.026 A 
HETATM   17  C   UNL     1     -44.464  57.679 -56.102  1.00  0.00     0.038 A 
ENDBRANCH  10  11
ENDBRANCH   8  10
ENDBRANCH   7   8
ENDBRANCH   3   7
BRANCH   1  18
HETATM   18  C   UNL     1     -40.407  52.990 -52.242  1.00  0.00     0.059 A 
HETATM   19  C   UNL     1     -40.174  52.555 -53.557  1.00  0.00    -0.032 A 
HETATM   20  C   UNL     1     -40.322  53.407 -54.786  1.00  0.00     0.050 C 
HETATM   21  C   UNL     1     -39.744  51.231 -53.753  1.00  0.00     0.028 A 
HETATM   22  C   UNL     1     -39.501  50.418 -52.658  1.00  0.00     0.117 A 
HETATM   23  N   UNL     1     -39.651  50.824 -51.386  1.00  0.00    -0.271 NA
HETATM   24  C   UNL     1     -40.096  52.092 -51.215  1.00  0.00     0.146 A 
ENDBRANCH   1  18
TORSDOF 5
ENDMDL
MODEL 8
REMARK VINA RESULT:      -6.6      3.429      6.613
REMARK  5 active torsions:
REMARK  status: ('A' for Active; 'I' for Inactive)
REMARK    1  A    between atoms: C_3  and  N_4 
REMARK       I    between atoms: N_4  and  C_5 
REMARK       I    between atoms: C_5  and  N_6 
REMARK    2  A    between atoms: N_6  and  C_7 
REMARK    3  A    between atoms: C_7  and  C_8 
REMARK    4  A    between atoms: C_8  and  O_9 
REMARK    5  A    between atoms: O_9  and  C_10 
ROOT
HETATM    1  N   UNL     1     -42.809  58.086 -54.745  1.00  0.00    -0.307 N 
HETATM    2  C   UNL     1     -41.977  57.869 -53.671  1.00  0.00     0.320 C 
HETATM    3  N   UNL     1     -42.640  57.190 -52.668  1.00  0.00    -0.340 N 
HETATM    4  O   UNL     1     -40.814  58.226 -53.573  1.00  0.00    -0.247 OA
HETATM    5  H   UNL     1     -43.766  58.263 -54.473  1.00  0.00     0.170 HD
HETATM    6  H   UNL     1     -43.392  56.611 -53.013  1.00  0.00     0.164 HD
ENDROOT
BRANCH   3   7
HETATM    7  C   UNL     1     -41.891  56.615 -51.555  1.00  0.00     0.156 C 
BRANCH   7   8
HETATM    8  C   UNL     1     -41.953  55.076 -51.436  1.00  0.00     0.142 C 
HETATM    9  C   UNL     1     -42.557  54.634 -50.100  1.00  0.00     0.042 C 
BRANCH   8  10
HETATM   10  O   UNL     1     -40.607  54.564 -51.413  1.00  0.00    -0.345 OA
BRANCH  10  11
HETATM   11  C   UNL     1     -40.324  53.405 -52.072  1.00  0.00     0.069 A 
HETATM   12  C   UNL     1     -39.754  52.260 -51.518  1.00  0.00     0.038 A 
HETATM   13  C   UNL     1     -39.526  51.135 -52.320  1.00  0.00     0.026 A 
HETATM   14  C   UNL     1     -39.879  51.154 -53.668  1.00  0.00     0.034 A 
HETATM   15 CL   UNL     1     -39.595  49.770 -54.649  1.00  0.00    -0.084 Cl
HETATM   16  C   UNL     1     -40.465  52.286 -54.224  1.00  0.00     0.026 A 
HETATM   17  C   UNL     1     -40.690  53.407 -53.423  1.00  0.00     0.038 A 
ENDBRANCH  10  11
ENDBRANCH   8  10
ENDBRANCH   7   8
ENDBRANCH   3   7
BRANCH   1  18
HETATM   18  C   UNL     1     -42.426  58.556 -56.025  1.00  0.00     0.059 A 
HETATM   19  C   UNL     1     -42.447  57.817 -57.219  1.00  0.00    -0.032 A 
HETATM   20  C   UNL     1     -42.940  56.404 -57.351  1.00  0.00     0.050 C 
HETATM   21  C   UNL     1     -42.001  58.444 -58.397  1.00  0.00     0.028 A 
HETATM   22  C   UNL     1     -41.617  59.774 -58.364  1.00  0.00     0.117 A 
HETATM   23  N   UNL     1     -41.648  60.527 -57.252  1.00  0.00    -0.271 NA
HETATM   24  C   UNL     1     -42.050  59.901 -56.120  1.00  0.00     0.146 A 
ENDBRANCH   1  18
TORSDOF 5
ENDMDL
MODEL 9
REMARK VINA RESULT:      -6.6      4.222      7.034
REMARK  5 active torsions:
REMARK  status: ('A' for Active; 'I' for Inactive)
REMARK    1  A    between atoms: C_3  and  N_4 
REMARK       I    between atoms: N_4  and  C_5 
REMARK       I    between atoms: C_5  and  N_6 
REMARK    2  A    between atoms: N_6  and  C_7 
REMARK    3  A    between atoms: C_7  and  C_8 
REMARK    4  A    between atoms: C_8  and  O_9 
REMARK    5  A    between atoms: O_9  and  C_10 
ROOT
HETATM    1  N   UNL     1     -42.191  56.576 -57.072  1.00  0.00    -0.307 N 
HETATM    2  C   UNL     1     -42.778  56.664 -55.832  1.00  0.00     0.320 C 
HETATM    3  N   UNL     1     -41.944  56.148 -54.859  1.00  0.00    -0.340 N 
HETATM    4  O   UNL     1     -43.885  57.114 -55.585  1.00  0.00    -0.247 OA
HETATM    5  H   UNL     1     -41.630  55.743 -57.186  1.00  0.00     0.170 HD
HETATM    6  H   UNL     1     -40.966  56.210 -55.103  1.00  0.00     0.164 HD
ENDROOT
BRANCH   3   7
HETATM    7  C   UNL     1     -42.236  56.380 -53.447  1.00  0.00     0.156 C 
BRANCH   7   8
HETATM    8  C   UNL     1     -42.452  55.110 -52.596  1.00  0.00     0.142 C 
HETATM    9  C   UNL     1     -43.317  55.391 -51.365  1.00  0.00     0.042 C 
BRANCH   8  10
HETATM   10  O   UNL     1     -41.180  54.697 -52.059  1.00  0.00    -0.345 OA
BRANCH  10  11
HETATM   11  C   UNL     1     -40.659  53.494 -52.429  1.00  0.00     0.069 A 
HETATM   12  C   UNL     1     -39.788  52.707 -51.677  1.00  0.00     0.038 A 
HETATM   13  C   UNL     1     -39.338  51.482 -52.184  1.00  0.00     0.026 A 
HETATM   14  C   UNL     1     -39.769  51.042 -53.435  1.00  0.00     0.034 A 
HETATM   15 CL   UNL     1     -39.212  49.538 -54.054  1.00  0.00    -0.084 Cl
HETATM   16  C   UNL     1     -40.653  51.813 -54.183  1.00  0.00     0.026 A 
HETATM   17  C   UNL     1     -41.098  53.035 -53.675  1.00  0.00     0.038 A 
ENDBRANCH  10  11
ENDBRANCH   8  10
ENDBRANCH   7   8
ENDBRANCH   3   7
BRANCH   1  18
HETATM   18  C   UNL     1     -42.648  57.189 -58.265  1.00  0.00     0.059 A 
HETATM   19  C   UNL     1     -43.367  56.563 -59.296  1.00  0.00    -0.032 A 
HETATM   20  C   UNL     1     -43.828  55.133 -59.282  1.00  0.00     0.050 C 
HETATM   21  C   UNL     1     -43.713  57.328 -60.425  1.00  0.00     0.028 A 
HETATM   22  C   UNL     1     -43.398  58.676 -60.465  1.00  0.00     0.117 A 
HETATM   23  N   UNL     1     -42.769  59.319 -59.466  1.00  0.00    -0.271 NA
HETATM   24  C   UNL     1     -42.415  58.563 -58.401  1.00  0.00     0.146 A 
ENDBRANCH   1  18
TORSDOF 5
ENDMDL
MODEL 10
REMARK VINA RESULT:      -6.6      3.336      7.049
REMARK  5 active torsions:
REMARK  status: ('A' for Active; 'I' for Inactive)
REMARK    1  A    between atoms: C_3  and  N_4 
REMARK       I    between atoms: N_4  and  C_5 
REMARK       I    between atoms: C_5  and  N_6 
REMARK    2  A    between atoms: N_6  and  C_7 
REMARK    3  A    between atoms: C_7  and  C_8 
REMARK    4  A    between atoms: C_8  and  O_9 
REMARK    5  A    between atoms: O_9  and  C_10 
ROOT
HETATM    1  N   UNL     1     -43.381  58.345 -50.997  1.00  0.00    -0.307 N 
HETATM    2  C   UNL     1     -42.930  57.098 -51.359  1.00  0.00     0.320 C 
HETATM    3  N   UNL     1     -43.059  56.208 -50.311  1.00  0.00    -0.340 N 
HETATM    4  O   UNL     1     -42.460  56.784 -52.441  1.00  0.00    -0.247 OA
HETATM    5  H   UNL     1     -43.186  58.570 -50.031  1.00  0.00     0.170 HD
HETATM    6  H   UNL     1     -43.805  56.452 -49.675  1.00  0.00     0.164 HD
ENDROOT
BRANCH   3   7
HETATM    7  C   UNL     1     -42.902  54.775 -50.545  1.00  0.00     0.156 C 
BRANCH   7   8
HETATM    8  C   UNL     1     -41.575  54.162 -50.046  1.00  0.00     0.142 C 
HETATM    9  C   UNL     1     -41.023  54.913 -48.832  1.00  0.00     0.042 C 
BRANCH   8  10
HETATM   10  O   UNL     1     -40.576  54.341 -51.068  1.00  0.00    -0.345 OA
BRANCH  10  11
HETATM   11  C   UNL     1     -40.392  53.362 -51.998  1.00  0.00     0.069 A 
HETATM   12  C   UNL     1     -40.705  53.446 -53.354  1.00  0.00     0.038 A 
HETATM   13  C   UNL     1     -40.452  52.358 -54.198  1.00  0.00     0.026 A 
HETATM   14  C   UNL     1     -39.877  51.195 -53.687  1.00  0.00     0.034 A 
HETATM   15 CL   UNL     1     -39.570  49.860 -54.728  1.00  0.00    -0.084 Cl
HETATM   16  C   UNL     1     -39.545  51.111 -52.339  1.00  0.00     0.026 A 
HETATM   17  C   UNL     1     -39.800  52.197 -51.500  1.00  0.00     0.038 A 
ENDBRANCH  10  11
ENDBRANCH   8  10
ENDBRANCH   7   8
ENDBRANCH   3   7
BRANCH   1  18
HETATM   18  C   UNL     1     -43.602  59.445 -51.863  1.00  0.00     0.059 A 
HETATM   19  C   UNL     1     -44.827  60.096 -52.080  1.00  0.00    -0.032 A 
HETATM   20  C   UNL     1     -46.115  59.767 -51.380  1.00  0.00     0.050 C 
HETATM   21  C   UNL     1     -44.862  61.158 -53.003  1.00  0.00     0.028 A 
HETATM   22  C   UNL     1     -43.692  61.572 -53.617  1.00  0.00     0.117 A 
HETATM   23  N   UNL     1     -42.493  61.014 -53.381  1.00  0.00    -0.271 NA
HETATM   24  C   UNL     1     -42.481  59.973 -52.515  1.00  0.00     0.146 A 
ENDBRANCH   1  18
TORSDOF 5
ENDMDL
