MODEL 1
REMARK VINA RESULT:      -7.3      0.000      0.000
REMARK  10 active torsions:
REMARK  status: ('A' for Active; 'I' for Inactive)
REMARK    1  A    between atoms: C_3  and  C_4 
REMARK    2  A    between atoms: C_4  and  C_5 
REMARK       I    between atoms: C_5  and  N_6 
REMARK    3  A    between atoms: N_6  and  C_7 
REMARK    4  A    between atoms: C_7  and  C_8 
REMARK    5  A    between atoms: C_8  and  O_9 
REMARK    6  A    between atoms: C_15  and  N_16 
REMARK    7  A    between atoms: N_16  and  C_17 
REMARK    8  A    between atoms: C_26  and  C_27 
REMARK    9  A    between atoms: C_27  and  O_28 
REMARK   10  A    between atoms: C_30  and  O_31 
ROOT
HETATM    1  C   UNL     1     -44.000  56.454 -51.061  1.00  0.00     0.016 C 
HETATM    2  C   UNL     1     -42.853  57.206 -51.811  1.00  0.00    -0.030 C 
HETATM    3  C   UNL     1     -42.628  56.554 -53.248  1.00  0.00     0.056 C 
HETATM    4  C   UNL     1     -43.653  57.063 -54.235  1.00  0.00     0.056 C 
HETATM    5  C   UNL     1     -44.534  58.090 -53.973  1.00  0.00     0.012 C 
HETATM    6  S   UNL     1     -45.551  58.354 -55.306  1.00  0.00    -0.055 SA
HETATM    7  C   UNL     1     -44.567  57.283 -56.240  1.00  0.00     0.172 C 
HETATM    8  N   UNL     1     -43.669  56.615 -55.544  1.00  0.00    -0.227 NA
HETATM    9  C   UNL     1     -44.590  58.896 -52.725  1.00  0.00     0.055 C 
HETATM   10  C   UNL     1     -43.266  58.736 -51.925  1.00  0.00     0.012 C 
HETATM   11  C   UNL     1     -42.095  59.742 -52.334  1.00  0.00     0.008 C 
HETATM   12  C   UNL     1     -42.412  61.095 -51.631  1.00  0.00     0.020 C 
HETATM   13  C   UNL     1     -40.718  59.250 -51.786  1.00  0.00     0.128 C 
HETATM   14  C   UNL     1     -40.870  58.346 -50.571  1.00  0.00     0.033 C 
HETATM   15  C   UNL     1     -41.571  57.038 -50.936  1.00  0.00     0.013 C 
ENDROOT
BRANCH   3  16
HETATM   16  C   UNL     1     -42.609  55.015 -53.203  1.00  0.00     0.114 C 
BRANCH  16  17
HETATM   17  C   UNL     1     -41.289  54.427 -53.651  1.00  0.00     0.218 C 
HETATM   18  N   UNL     1     -41.155  53.077 -53.441  1.00  0.00    -0.359 N 
HETATM   19  H   UNL     1     -42.016  52.524 -53.447  1.00  0.00     0.162 HD
HETATM   20  O   UNL     1     -40.398  55.136 -54.114  1.00  0.00    -0.274 OA
BRANCH  18  21
HETATM   21  C   UNL     1     -39.920  52.393 -53.782  1.00  0.00     0.148 C 
BRANCH  21  22
HETATM   22  C   UNL     1     -39.502  51.389 -52.704  1.00  0.00     0.186 C 
BRANCH  22  23
HETATM   23  O   UNL     1     -39.729  50.033 -53.098  1.00  0.00    -0.394 OA
HETATM   24  C   UNL     1     -39.725  49.867 -54.511  1.00  0.00     0.201 C 
ENDBRANCH  22  23
ENDBRANCH  21  22
ENDBRANCH  18  21
ENDBRANCH  16  17
ENDBRANCH   3  16
BRANCH  11  25
HETATM   25  C   UNL     1     -41.941  60.038 -53.851  1.00  0.00     0.176 C 
BRANCH  25  26
HETATM   26  O   UNL     1     -42.394  61.341 -54.203  1.00  0.00    -0.400 OA
HETATM   27  H   UNL     1     -43.351  61.261 -54.365  1.00  0.00     0.209 HD
ENDBRANCH  25  26
ENDBRANCH  11  25
BRANCH   7  28
HETATM   28  N   UNL     1     -44.754  57.226 -57.583  1.00  0.00    -0.334 N 
HETATM   29  H   UNL     1     -45.537  57.785 -57.906  1.00  0.00     0.168 HD
BRANCH  28  30
HETATM   30  C   UNL     1     -43.680  57.327 -58.503  1.00  0.00     0.051 A 
HETATM   31  C   UNL     1     -43.216  56.286 -59.309  1.00  0.00     0.145 A 
HETATM   32  N   UNL     1     -42.181  56.386 -60.187  1.00  0.00    -0.271 NA
HETATM   33  C   UNL     1     -41.591  57.593 -60.292  1.00  0.00     0.116 A 
HETATM   34  C   UNL     1     -41.999  58.706 -59.581  1.00  0.00     0.021 A 
HETATM   35  C   UNL     1     -43.064  58.570 -58.690  1.00  0.00     0.032 A 
ENDBRANCH  28  30
ENDBRANCH   7  28
BRANCH  13  36
HETATM   36  O   UNL     1     -39.992  58.543 -52.791  1.00  0.00    -0.395 OA
HETATM   37  H   UNL     1     -39.801  59.161 -53.520  1.00  0.00     0.210 HD
ENDBRANCH  13  36
TORSDOF 10
ENDMDL
MODEL 2
REMARK VINA RESULT:      -7.0      3.564      7.500
REMARK  10 active torsions:
REMARK  status: ('A' for Active; 'I' for Inactive)
REMARK    1  A    between atoms: C_3  and  C_4 
REMARK    2  A    between atoms: C_4  and  C_5 
REMARK       I    between atoms: C_5  and  N_6 
REMARK    3  A    between atoms: N_6  and  C_7 
REMARK    4  A    between atoms: C_7  and  C_8 
REMARK    5  A    between atoms: C_8  and  O_9 
REMARK    6  A    between atoms: C_15  and  N_16 
REMARK    7  A    between atoms: N_16  and  C_17 
REMARK    8  A    between atoms: C_26  and  C_27 
REMARK    9  A    between atoms: C_27  and  O_28 
REMARK   10  A    between atoms: C_30  and  O_31 
ROOT
HETATM    1  C   UNL     1     -41.662  58.861 -58.537  1.00  0.00     0.016 C 
HETATM    2  C   UNL     1     -43.113  58.830 -57.955  1.00  0.00    -0.030 C 
HETATM    3  C   UNL     1     -43.547  57.326 -57.661  1.00  0.00     0.056 C 
HETATM    4  C   UNL     1     -42.974  56.850 -56.345  1.00  0.00     0.056 C 
HETATM    5  C   UNL     1     -42.331  57.668 -55.443  1.00  0.00     0.012 C 
HETATM    6  S   UNL     1     -41.797  56.770 -54.104  1.00  0.00    -0.055 SA
HETATM    7  C   UNL     1     -42.705  55.416 -54.678  1.00  0.00     0.172 C 
HETATM    8  N   UNL     1     -43.199  55.561 -55.892  1.00  0.00    -0.227 NA
HETATM    9  C   UNL     1     -42.141  59.137 -55.574  1.00  0.00     0.055 C 
HETATM   10  C   UNL     1     -43.127  59.710 -56.632  1.00  0.00     0.012 C 
HETATM   11  C   UNL     1     -44.571  60.105 -56.077  1.00  0.00     0.008 C 
HETATM   12  C   UNL     1     -44.415  61.498 -55.397  1.00  0.00     0.020 C 
HETATM   13  C   UNL     1     -45.593  60.275 -57.245  1.00  0.00     0.128 C 
HETATM   14  C   UNL     1     -44.911  60.610 -58.564  1.00  0.00     0.033 C 
HETATM   15  C   UNL     1     -44.038  59.454 -59.048  1.00  0.00     0.013 C 
ENDROOT
BRANCH   3  16
HETATM   16  C   UNL     1     -43.182  56.368 -58.809  1.00  0.00     0.114 C 
BRANCH  16  17
HETATM   17  C   UNL     1     -44.341  56.098 -59.744  1.00  0.00     0.218 C 
HETATM   18  N   UNL     1     -45.579  56.411 -59.239  1.00  0.00    -0.359 N 
HETATM   19  H   UNL     1     -45.614  57.163 -58.547  1.00  0.00     0.162 HD
HETATM   20  O   UNL     1     -44.165  55.584 -60.847  1.00  0.00    -0.274 OA
BRANCH  18  21
HETATM   21  C   UNL     1     -46.781  56.158 -60.013  1.00  0.00     0.148 C 
BRANCH  21  22
HETATM   22  C   UNL     1     -47.209  57.382 -60.827  1.00  0.00     0.186 C 
BRANCH  22  23
HETATM   23  O   UNL     1     -47.384  58.547 -60.016  1.00  0.00    -0.394 OA
HETATM   24  C   UNL     1     -47.780  59.685 -60.772  1.00  0.00     0.201 C 
ENDBRANCH  22  23
ENDBRANCH  21  22
ENDBRANCH  18  21
ENDBRANCH  16  17
ENDBRANCH   3  16
BRANCH  11  25
HETATM   25  C   UNL     1     -45.189  59.147 -55.021  1.00  0.00     0.176 C 
BRANCH  25  26
HETATM   26  O   UNL     1     -45.896  59.841 -54.000  1.00  0.00    -0.400 OA
HETATM   27  H   UNL     1     -45.582  60.762 -54.028  1.00  0.00     0.209 HD
ENDBRANCH  25  26
ENDBRANCH  11  25
BRANCH   7  28
HETATM   28  N   UNL     1     -42.873  54.347 -53.860  1.00  0.00    -0.334 N 
HETATM   29  H   UNL     1     -43.646  53.748 -54.131  1.00  0.00     0.168 HD
BRANCH  28  30
HETATM   30  C   UNL     1     -41.785  53.555 -53.415  1.00  0.00     0.051 A 
HETATM   31  C   UNL     1     -41.286  53.540 -52.111  1.00  0.00     0.145 A 
HETATM   32  N   UNL     1     -40.238  52.782 -51.690  1.00  0.00    -0.271 NA
HETATM   33  C   UNL     1     -39.669  51.972 -52.605  1.00  0.00     0.116 A 
HETATM   34  C   UNL     1     -40.111  51.868 -53.911  1.00  0.00     0.021 A 
HETATM   35  C   UNL     1     -41.189  52.658 -54.311  1.00  0.00     0.032 A 
ENDBRANCH  28  30
ENDBRANCH   7  28
BRANCH  13  36
HETATM   36  O   UNL     1     -46.366  59.089 -57.423  1.00  0.00    -0.395 OA
HETATM   37  H   UNL     1     -46.514  58.962 -58.378  1.00  0.00     0.210 HD
ENDBRANCH  13  36
TORSDOF 10
ENDMDL
MODEL 3
REMARK VINA RESULT:      -7.0      2.894      6.746
REMARK  10 active torsions:
REMARK  status: ('A' for Active; 'I' for Inactive)
REMARK    1  A    between atoms: C_3  and  C_4 
REMARK    2  A    between atoms: C_4  and  C_5 
REMARK       I    between atoms: C_5  and  N_6 
REMARK    3  A    between atoms: N_6  and  C_7 
REMARK    4  A    between atoms: C_7  and  C_8 
REMARK    5  A    between atoms: C_8  and  O_9 
REMARK    6  A    between atoms: C_15  and  N_16 
REMARK    7  A    between atoms: N_16  and  C_17 
REMARK    8  A    between atoms: C_26  and  C_27 
REMARK    9  A    between atoms: C_27  and  O_28 
REMARK   10  A    between atoms: C_30  and  O_31 
ROOT
HETATM    1  C   UNL     1     -40.521  58.765 -53.557  1.00  0.00     0.016 C 
HETATM    2  C   UNL     1     -41.943  58.158 -53.328  1.00  0.00    -0.030 C 
HETATM    3  C   UNL     1     -41.874  56.568 -53.413  1.00  0.00     0.056 C 
HETATM    4  C   UNL     1     -41.378  55.983 -52.110  1.00  0.00     0.056 C 
HETATM    5  C   UNL     1     -41.199  56.713 -50.955  1.00  0.00     0.012 C 
HETATM    6  S   UNL     1     -40.599  55.721 -49.714  1.00  0.00    -0.055 SA
HETATM    7  C   UNL     1     -40.889  54.338 -50.710  1.00  0.00     0.172 C 
HETATM    8  N   UNL     1     -41.212  54.617 -51.957  1.00  0.00    -0.227 NA
HETATM    9  C   UNL     1     -41.508  58.156 -50.776  1.00  0.00     0.055 C 
HETATM   10  C   UNL     1     -42.458  58.643 -51.906  1.00  0.00     0.012 C 
HETATM   11  C   UNL     1     -44.016  58.437 -51.625  1.00  0.00     0.008 C 
HETATM   12  C   UNL     1     -44.453  59.603 -50.689  1.00  0.00     0.020 C 
HETATM   13  C   UNL     1     -44.845  58.569 -52.942  1.00  0.00     0.128 C 
HETATM   14  C   UNL     1     -44.129  59.404 -53.993  1.00  0.00     0.033 C 
HETATM   15  C   UNL     1     -42.849  58.718 -54.470  1.00  0.00     0.013 C 
ENDROOT
BRANCH   3  16
HETATM   16  C   UNL     1     -41.032  56.074 -54.604  1.00  0.00     0.114 C 
BRANCH  16  17
HETATM   17  C   UNL     1     -41.849  55.326 -55.635  1.00  0.00     0.218 C 
HETATM   18  N   UNL     1     -42.191  56.058 -56.745  1.00  0.00    -0.359 N 
HETATM   19  H   UNL     1     -41.552  56.811 -57.013  1.00  0.00     0.162 HD
HETATM   20  O   UNL     1     -42.214  54.168 -55.443  1.00  0.00    -0.274 OA
BRANCH  18  21
HETATM   21  C   UNL     1     -43.014  55.477 -57.791  1.00  0.00     0.148 C 
BRANCH  21  22
HETATM   22  C   UNL     1     -43.681  56.546 -58.661  1.00  0.00     0.186 C 
BRANCH  22  23
HETATM   23  O   UNL     1     -44.808  56.042 -59.382  1.00  0.00    -0.394 OA
HETATM   24  C   UNL     1     -44.569  54.757 -59.943  1.00  0.00     0.201 C 
ENDBRANCH  22  23
ENDBRANCH  21  22
ENDBRANCH  18  21
ENDBRANCH  16  17
ENDBRANCH   3  16
BRANCH  11  25
HETATM   25  C   UNL     1     -44.420  57.110 -50.923  1.00  0.00     0.176 C 
BRANCH  25  26
HETATM   26  O   UNL     1     -45.830  56.919 -50.884  1.00  0.00    -0.400 OA
HETATM   27  H   UNL     1     -46.219  57.794 -50.710  1.00  0.00     0.209 HD
ENDBRANCH  25  26
ENDBRANCH  11  25
BRANCH   7  28
HETATM   28  N   UNL     1     -40.801  53.102 -50.155  1.00  0.00    -0.334 N 
HETATM   29  H   UNL     1     -41.615  52.846 -49.608  1.00  0.00     0.168 HD
BRANCH  28  30
HETATM   30  C   UNL     1     -40.336  51.977 -50.882  1.00  0.00     0.051 A 
HETATM   31  C   UNL     1     -39.873  52.009 -52.199  1.00  0.00     0.145 A 
HETATM   32  N   UNL     1     -39.432  50.925 -52.893  1.00  0.00    -0.271 NA
HETATM   33  C   UNL     1     -39.424  49.748 -52.237  1.00  0.00     0.116 A 
HETATM   34  C   UNL     1     -39.813  49.607 -50.918  1.00  0.00     0.021 A 
HETATM   35  C   UNL     1     -40.258  50.738 -50.233  1.00  0.00     0.032 A 
ENDBRANCH  28  30
ENDBRANCH   7  28
BRANCH  13  36
HETATM   36  O   UNL     1     -45.128  57.284 -53.497  1.00  0.00    -0.395 OA
HETATM   37  H   UNL     1     -46.018  57.314 -53.894  1.00  0.00     0.210 HD
ENDBRANCH  13  36
TORSDOF 10
ENDMDL
MODEL 4
REMARK VINA RESULT:      -6.9      3.053      6.140
REMARK  10 active torsions:
REMARK  status: ('A' for Active; 'I' for Inactive)
REMARK    1  A    between atoms: C_3  and  C_4 
REMARK    2  A    between atoms: C_4  and  C_5 
REMARK       I    between atoms: C_5  and  N_6 
REMARK    3  A    between atoms: N_6  and  C_7 
REMARK    4  A    between atoms: C_7  and  C_8 
REMARK    5  A    between atoms: C_8  and  O_9 
REMARK    6  A    between atoms: C_15  and  N_16 
REMARK    7  A    between atoms: N_16  and  C_17 
REMARK    8  A    between atoms: C_26  and  C_27 
REMARK    9  A    between atoms: C_27  and  O_28 
REMARK   10  A    between atoms: C_30  and  O_31 
ROOT
HETATM    1  C   UNL     1     -40.236  58.657 -52.945  1.00  0.00     0.016 C 
HETATM    2  C   UNL     1     -41.338  57.752 -52.305  1.00  0.00    -0.030 C 
HETATM    3  C   UNL     1     -42.782  58.312 -52.679  1.00  0.00     0.056 C 
HETATM    4  C   UNL     1     -43.184  57.876 -54.069  1.00  0.00     0.056 C 
HETATM    5  C   UNL     1     -42.480  56.964 -54.825  1.00  0.00     0.012 C 
HETATM    6  S   UNL     1     -43.217  56.756 -56.341  1.00  0.00    -0.055 SA
HETATM    7  C   UNL     1     -44.573  57.671 -55.782  1.00  0.00     0.172 C 
HETATM    8  N   UNL     1     -44.393  58.266 -54.620  1.00  0.00    -0.227 NA
HETATM    9  C   UNL     1     -41.265  56.225 -54.395  1.00  0.00     0.055 C 
HETATM   10  C   UNL     1     -41.130  56.273 -52.846  1.00  0.00     0.012 C 
HETATM   11  C   UNL     1     -41.914  55.128 -52.056  1.00  0.00     0.008 C 
HETATM   12  C   UNL     1     -41.028  53.849 -52.141  1.00  0.00     0.020 C 
HETATM   13  C   UNL     1     -42.056  55.489 -50.544  1.00  0.00     0.128 C 
HETATM   14  C   UNL     1     -40.978  56.457 -50.078  1.00  0.00     0.033 C 
HETATM   15  C   UNL     1     -41.118  57.817 -50.761  1.00  0.00     0.013 C 
ENDROOT
BRANCH   3  16
HETATM   16  C   UNL     1     -42.885  59.840 -52.520  1.00  0.00     0.114 C 
BRANCH  16  17
HETATM   17  C   UNL     1     -44.153  60.278 -51.821  1.00  0.00     0.218 C 
HETATM   18  N   UNL     1     -44.358  59.715 -50.586  1.00  0.00    -0.359 N 
HETATM   19  H   UNL     1     -43.522  59.447 -50.060  1.00  0.00     0.162 HD
HETATM   20  O   UNL     1     -44.951  61.039 -52.363  1.00  0.00    -0.274 OA
BRANCH  18  21
HETATM   21  C   UNL     1     -45.559  60.012 -49.825  1.00  0.00     0.148 C 
BRANCH  21  22
HETATM   22  C   UNL     1     -45.293  61.013 -48.698  1.00  0.00     0.186 C 
BRANCH  22  23
HETATM   23  O   UNL     1     -46.341  61.035 -47.725  1.00  0.00    -0.394 OA
HETATM   24  C   UNL     1     -45.987  60.359 -46.525  1.00  0.00     0.201 C 
ENDBRANCH  22  23
ENDBRANCH  21  22
ENDBRANCH  18  21
ENDBRANCH  16  17
ENDBRANCH   3  16
BRANCH  11  25
HETATM   25  C   UNL     1     -43.317  54.751 -52.605  1.00  0.00     0.176 C 
BRANCH  25  26
HETATM   26  O   UNL     1     -44.023  53.867 -51.740  1.00  0.00    -0.400 OA
HETATM   27  H   UNL     1     -43.346  53.378 -51.239  1.00  0.00     0.209 HD
ENDBRANCH  25  26
ENDBRANCH  11  25
BRANCH   7  28
HETATM   28  N   UNL     1     -45.704  57.688 -56.532  1.00  0.00    -0.334 N 
HETATM   29  H   UNL     1     -46.531  57.954 -56.010  1.00  0.00     0.168 HD
BRANCH  28  30
HETATM   30  C   UNL     1     -45.746  58.265 -57.826  1.00  0.00     0.051 A 
HETATM   31  C   UNL     1     -45.104  59.449 -58.197  1.00  0.00     0.145 A 
HETATM   32  N   UNL     1     -45.152  60.001 -59.440  1.00  0.00    -0.271 NA
HETATM   33  C   UNL     1     -45.852  59.329 -60.375  1.00  0.00     0.116 A 
HETATM   34  C   UNL     1     -46.486  58.124 -60.133  1.00  0.00     0.021 A 
HETATM   35  C   UNL     1     -46.417  57.584 -58.849  1.00  0.00     0.032 A 
ENDBRANCH  28  30
ENDBRANCH   7  28
BRANCH  13  36
HETATM   36  O   UNL     1     -43.333  56.068 -50.276  1.00  0.00    -0.395 OA
HETATM   37  H   UNL     1     -43.421  56.179 -49.312  1.00  0.00     0.210 HD
ENDBRANCH  13  36
TORSDOF 10
ENDMDL
MODEL 5
REMARK VINA RESULT:      -6.7      2.886      6.789
REMARK  10 active torsions:
REMARK  status: ('A' for Active; 'I' for Inactive)
REMARK    1  A    between atoms: C_3  and  C_4 
REMARK    2  A    between atoms: C_4  and  C_5 
REMARK       I    between atoms: C_5  and  N_6 
REMARK    3  A    between atoms: N_6  and  C_7 
REMARK    4  A    between atoms: C_7  and  C_8 
REMARK    5  A    between atoms: C_8  and  O_9 
REMARK    6  A    between atoms: C_15  and  N_16 
REMARK    7  A    between atoms: N_16  and  C_17 
REMARK    8  A    between atoms: C_26  and  C_27 
REMARK    9  A    between atoms: C_27  and  O_28 
REMARK   10  A    between atoms: C_30  and  O_31 
ROOT
HETATM    1  C   UNL     1     -42.269  56.538 -60.157  1.00  0.00     0.016 C 
HETATM    2  C   UNL     1     -43.625  56.881 -59.458  1.00  0.00    -0.030 C 
HETATM    3  C   UNL     1     -43.423  56.923 -57.878  1.00  0.00     0.056 C 
HETATM    4  C   UNL     1     -42.828  58.245 -57.448  1.00  0.00     0.056 C 
HETATM    5  C   UNL     1     -42.666  59.327 -58.286  1.00  0.00     0.012 C 
HETATM    6  S   UNL     1     -41.935  60.615 -57.455  1.00  0.00    -0.055 SA
HETATM    7  C   UNL     1     -42.145  59.750 -55.974  1.00  0.00     0.172 C 
HETATM    8  N   UNL     1     -42.541  58.501 -56.119  1.00  0.00    -0.227 NA
HETATM    9  C   UNL     1     -43.089  59.402 -59.709  1.00  0.00     0.055 C 
HETATM   10  C   UNL     1     -44.122  58.282 -60.019  1.00  0.00     0.012 C 
HETATM   11  C   UNL     1     -45.644  58.652 -59.712  1.00  0.00     0.008 C 
HETATM   12  C   UNL     1     -46.141  59.509 -60.914  1.00  0.00     0.020 C 
HETATM   13  C   UNL     1     -46.533  57.369 -59.663  1.00  0.00     0.128 C 
HETATM   14  C   UNL     1     -45.933  56.221 -60.461  1.00  0.00     0.033 C 
HETATM   15  C   UNL     1     -44.619  55.741 -59.844  1.00  0.00     0.013 C 
ENDROOT
BRANCH   3  16
HETATM   16  C   UNL     1     -42.591  55.738 -57.355  1.00  0.00     0.114 C 
BRANCH  16  17
HETATM   17  C   UNL     1     -43.176  55.110 -56.109  1.00  0.00     0.218 C 
HETATM   18  N   UNL     1     -43.127  55.897 -54.985  1.00  0.00    -0.359 N 
HETATM   19  H   UNL     1     -43.147  56.909 -55.134  1.00  0.00     0.162 HD
HETATM   20  O   UNL     1     -43.606  53.959 -56.116  1.00  0.00    -0.274 OA
BRANCH  18  21
HETATM   21  C   UNL     1     -43.612  55.400 -53.710  1.00  0.00     0.148 C 
BRANCH  21  22
HETATM   22  C   UNL     1     -42.469  54.965 -52.790  1.00  0.00     0.186 C 
BRANCH  22  23
HETATM   23  O   UNL     1     -42.019  53.635 -53.064  1.00  0.00    -0.394 OA
HETATM   24  C   UNL     1     -40.601  53.536 -53.105  1.00  0.00     0.201 C 
ENDBRANCH  22  23
ENDBRANCH  21  22
ENDBRANCH  18  21
ENDBRANCH  16  17
ENDBRANCH   3  16
BRANCH  11  25
HETATM   25  C   UNL     1     -45.905  59.477 -58.421  1.00  0.00     0.176 C 
BRANCH  25  26
HETATM   26  O   UNL     1     -47.267  59.870 -58.289  1.00  0.00    -0.400 OA
HETATM   27  H   UNL     1     -47.257  60.823 -58.093  1.00  0.00     0.209 HD
ENDBRANCH  25  26
ENDBRANCH  11  25
BRANCH   7  28
HETATM   28  N   UNL     1     -41.931  60.398 -54.801  1.00  0.00    -0.334 N 
HETATM   29  H   UNL     1     -42.459  61.259 -54.713  1.00  0.00     0.168 HD
BRANCH  28  30
HETATM   30  C   UNL     1     -41.901  59.722 -53.555  1.00  0.00     0.051 A 
HETATM   31  C   UNL     1     -42.988  59.593 -52.688  1.00  0.00     0.145 A 
HETATM   32  N   UNL     1     -42.953  58.947 -51.491  1.00  0.00    -0.271 NA
HETATM   33  C   UNL     1     -41.784  58.373 -51.147  1.00  0.00     0.116 A 
HETATM   34  C   UNL     1     -40.658  58.395 -51.949  1.00  0.00     0.021 A 
HETATM   35  C   UNL     1     -40.726  59.064 -53.170  1.00  0.00     0.032 A 
ENDBRANCH  28  30
ENDBRANCH   7  28
BRANCH  13  36
HETATM   36  O   UNL     1     -46.728  56.934 -58.318  1.00  0.00    -0.395 OA
HETATM   37  H   UNL     1     -47.383  56.212 -58.323  1.00  0.00     0.210 HD
ENDBRANCH  13  36
TORSDOF 10
ENDMDL
MODEL 6
REMARK VINA RESULT:      -6.7      1.330      1.701
REMARK  10 active torsions:
REMARK  status: ('A' for Active; 'I' for Inactive)
REMARK    1  A    between atoms: C_3  and  C_4 
REMARK    2  A    between atoms: C_4  and  C_5 
REMARK       I    between atoms: C_5  and  N_6 
REMARK    3  A    between atoms: N_6  and  C_7 
REMARK    4  A    between atoms: C_7  and  C_8 
REMARK    5  A    between atoms: C_8  and  O_9 
REMARK    6  A    between atoms: C_15  and  N_16 
REMARK    7  A    between atoms: N_16  and  C_17 
REMARK    8  A    between atoms: C_26  and  C_27 
REMARK    9  A    between atoms: C_27  and  O_28 
REMARK   10  A    between atoms: C_30  and  O_31 
ROOT
HETATM    1  C   UNL     1     -44.721  56.987 -51.885  1.00  0.00     0.016 C 
HETATM    2  C   UNL     1     -43.475  57.785 -52.391  1.00  0.00    -0.030 C 
HETATM    3  C   UNL     1     -43.082  57.301 -53.858  1.00  0.00     0.056 C 
HETATM    4  C   UNL     1     -43.964  57.959 -54.894  1.00  0.00     0.056 C 
HETATM    5  C   UNL     1     -44.852  58.977 -54.618  1.00  0.00     0.012 C 
HETATM    6  S   UNL     1     -45.688  59.431 -56.024  1.00  0.00    -0.055 SA
HETATM    7  C   UNL     1     -44.614  58.447 -56.954  1.00  0.00     0.172 C 
HETATM    8  N   UNL     1     -43.823  57.671 -56.240  1.00  0.00    -0.227 NA
HETATM    9  C   UNL     1     -45.051  59.629 -53.297  1.00  0.00     0.055 C 
HETATM   10  C   UNL     1     -43.841  59.330 -52.366  1.00  0.00     0.012 C 
HETATM   11  C   UNL     1     -42.610  60.338 -52.501  1.00  0.00     0.008 C 
HETATM   12  C   UNL     1     -42.988  61.608 -51.682  1.00  0.00     0.020 C 
HETATM   13  C   UNL     1     -41.323  59.738 -51.852  1.00  0.00     0.128 C 
HETATM   14  C   UNL     1     -41.644  58.701 -50.786  1.00  0.00     0.033 C 
HETATM   15  C   UNL     1     -42.317  57.470 -51.392  1.00  0.00     0.013 C 
ENDROOT
BRANCH   3  16
HETATM   16  C   UNL     1     -43.097  55.769 -54.001  1.00  0.00     0.114 C 
BRANCH  16  17
HETATM   17  C   UNL     1     -41.722  55.150 -53.876  1.00  0.00     0.218 C 
HETATM   18  N   UNL     1     -41.686  53.942 -53.224  1.00  0.00    -0.359 N 
HETATM   19  H   UNL     1     -42.529  53.365 -53.282  1.00  0.00     0.162 HD
HETATM   20  O   UNL     1     -40.720  55.731 -54.288  1.00  0.00    -0.274 OA
BRANCH  18  21
HETATM   21  C   UNL     1     -40.425  53.261 -52.994  1.00  0.00     0.148 C 
BRANCH  21  22
HETATM   22  C   UNL     1     -40.118  52.234 -54.087  1.00  0.00     0.186 C 
BRANCH  22  23
HETATM   23  O   UNL     1     -39.377  51.114 -53.596  1.00  0.00    -0.394 OA
HETATM   24  C   UNL     1     -39.638  49.922 -54.327  1.00  0.00     0.201 C 
ENDBRANCH  22  23
ENDBRANCH  21  22
ENDBRANCH  18  21
ENDBRANCH  16  17
ENDBRANCH   3  16
BRANCH  11  25
HETATM   25  C   UNL     1     -42.260  60.808 -53.940  1.00  0.00     0.176 C 
BRANCH  25  26
HETATM   26  O   UNL     1     -42.671  62.147 -54.193  1.00  0.00    -0.400 OA
HETATM   27  H   UNL     1     -43.363  62.348 -53.538  1.00  0.00     0.209 HD
ENDBRANCH  25  26
ENDBRANCH  11  25
BRANCH   7  28
HETATM   28  N   UNL     1     -44.631  58.558 -58.307  1.00  0.00    -0.334 N 
HETATM   29  H   UNL     1     -43.898  59.157 -58.672  1.00  0.00     0.168 HD
BRANCH  28  30
HETATM   30  C   UNL     1     -44.805  57.437 -59.157  1.00  0.00     0.051 A 
HETATM   31  C   UNL     1     -43.771  56.644 -59.659  1.00  0.00     0.145 A 
HETATM   32  N   UNL     1     -43.944  55.572 -60.478  1.00  0.00    -0.271 NA
HETATM   33  C   UNL     1     -45.213  55.251 -60.797  1.00  0.00     0.116 A 
HETATM   34  C   UNL     1     -46.316  55.935 -60.319  1.00  0.00     0.021 A 
HETATM   35  C   UNL     1     -46.105  57.028 -59.479  1.00  0.00     0.032 A 
ENDBRANCH  28  30
ENDBRANCH   7  28
BRANCH  13  36
HETATM   36  O   UNL     1     -40.489  59.132 -52.839  1.00  0.00    -0.395 OA
HETATM   37  H   UNL     1     -41.041  58.539 -53.380  1.00  0.00     0.210 HD
ENDBRANCH  13  36
TORSDOF 10
ENDMDL
MODEL 7
REMARK VINA RESULT:      -6.5      3.676      6.694
REMARK  10 active torsions:
REMARK  status: ('A' for Active; 'I' for Inactive)
REMARK    1  A    between atoms: C_3  and  C_4 
REMARK    2  A    between atoms: C_4  and  C_5 
REMARK       I    between atoms: C_5  and  N_6 
REMARK    3  A    between atoms: N_6  and  C_7 
REMARK    4  A    between atoms: C_7  and  C_8 
REMARK    5  A    between atoms: C_8  and  O_9 
REMARK    6  A    between atoms: C_15  and  N_16 
REMARK    7  A    between atoms: N_16  and  C_17 
REMARK    8  A    between atoms: C_26  and  C_27 
REMARK    9  A    between atoms: C_27  and  O_28 
REMARK   10  A    between atoms: C_30  and  O_31 
ROOT
HETATM    1  C   UNL     1     -42.674  61.324 -53.787  1.00  0.00     0.016 C 
HETATM    2  C   UNL     1     -44.065  60.888 -53.222  1.00  0.00    -0.030 C 
HETATM    3  C   UNL     1     -44.473  59.470 -53.824  1.00  0.00     0.056 C 
HETATM    4  C   UNL     1     -43.782  58.352 -53.077  1.00  0.00     0.056 C 
HETATM    5  C   UNL     1     -43.056  58.530 -51.919  1.00  0.00     0.012 C 
HETATM    6  S   UNL     1     -42.403  57.053 -51.395  1.00  0.00    -0.055 SA
HETATM    7  C   UNL     1     -43.363  56.235 -52.578  1.00  0.00     0.172 C 
HETATM    8  N   UNL     1     -43.966  57.029 -53.440  1.00  0.00    -0.227 NA
HETATM    9  C   UNL     1     -42.877  59.812 -51.188  1.00  0.00     0.055 C 
HETATM   10  C   UNL     1     -43.955  60.839 -51.638  1.00  0.00     0.012 C 
HETATM   11  C   UNL     1     -45.341  60.764 -50.848  1.00  0.00     0.008 C 
HETATM   12  C   UNL     1     -45.120  61.514 -49.501  1.00  0.00     0.020 C 
HETATM   13  C   UNL     1     -46.466  61.525 -51.619  1.00  0.00     0.128 C 
HETATM   14  C   UNL     1     -45.908  62.596 -52.546  1.00  0.00     0.033 C 
HETATM   15  C   UNL     1     -45.085  61.979 -53.676  1.00  0.00     0.013 C 
ENDROOT
BRANCH   3  16
HETATM   16  C   UNL     1     -44.217  59.373 -55.339  1.00  0.00     0.114 C 
BRANCH  16  17
HETATM   17  C   UNL     1     -45.493  59.331 -56.152  1.00  0.00     0.218 C 
HETATM   18  N   UNL     1     -45.897  58.075 -56.531  1.00  0.00    -0.359 N 
HETATM   19  H   UNL     1     -45.629  57.302 -55.917  1.00  0.00     0.162 HD
HETATM   20  O   UNL     1     -46.074  60.362 -56.482  1.00  0.00    -0.274 OA
BRANCH  18  21
HETATM   21  C   UNL     1     -47.079  57.894 -57.354  1.00  0.00     0.148 C 
BRANCH  21  22
HETATM   22  C   UNL     1     -46.746  57.891 -58.848  1.00  0.00     0.186 C 
BRANCH  22  23
HETATM   23  O   UNL     1     -45.799  56.878 -59.198  1.00  0.00    -0.394 OA
HETATM   24  C   UNL     1     -46.263  56.034 -60.245  1.00  0.00     0.201 C 
ENDBRANCH  22  23
ENDBRANCH  21  22
ENDBRANCH  18  21
ENDBRANCH  16  17
ENDBRANCH   3  16
BRANCH  11  25
HETATM   25  C   UNL     1     -45.860  59.342 -50.502  1.00  0.00     0.176 C 
BRANCH  25  26
HETATM   26  O   UNL     1     -45.880  59.093 -49.100  1.00  0.00    -0.400 OA
HETATM   27  H   UNL     1     -44.957  59.163 -48.799  1.00  0.00     0.209 HD
ENDBRANCH  25  26
ENDBRANCH  11  25
BRANCH   7  28
HETATM   28  N   UNL     1     -43.457  54.882 -52.523  1.00  0.00    -0.334 N 
HETATM   29  H   UNL     1     -44.302  54.518 -52.947  1.00  0.00     0.168 HD
BRANCH  28  30
HETATM   30  C   UNL     1     -42.362  54.034 -52.826  1.00  0.00     0.051 A 
HETATM   31  C   UNL     1     -41.995  53.629 -54.111  1.00  0.00     0.145 A 
HETATM   32  N   UNL     1     -40.946  52.810 -54.396  1.00  0.00    -0.271 NA
HETATM   33  C   UNL     1     -40.203  52.392 -53.353  1.00  0.00     0.116 A 
HETATM   34  C   UNL     1     -40.444  52.769 -52.045  1.00  0.00     0.021 A 
HETATM   35  C   UNL     1     -41.526  53.610 -51.785  1.00  0.00     0.032 A 
ENDBRANCH  28  30
ENDBRANCH   7  28
BRANCH  13  36
HETATM   36  O   UNL     1     -47.255  60.621 -52.393  1.00  0.00    -0.395 OA
HETATM   37  H   UNL     1     -46.806  59.756 -52.400  1.00  0.00     0.210 HD
ENDBRANCH  13  36
TORSDOF 10
ENDMDL
MODEL 8
REMARK VINA RESULT:      -6.3      2.708      3.628
REMARK  10 active torsions:
REMARK  status: ('A' for Active; 'I' for Inactive)
REMARK    1  A    between atoms: C_3  and  C_4 
REMARK    2  A    between atoms: C_4  and  C_5 
REMARK       I    between atoms: C_5  and  N_6 
REMARK    3  A    between atoms: N_6  and  C_7 
REMARK    4  A    between atoms: C_7  and  C_8 
REMARK    5  A    between atoms: C_8  and  O_9 
REMARK    6  A    between atoms: C_15  and  N_16 
REMARK    7  A    between atoms: N_16  and  C_17 
REMARK    8  A    between atoms: C_26  and  C_27 
REMARK    9  A    between atoms: C_27  and  O_28 
REMARK   10  A    between atoms: C_30  and  O_31 
ROOT
HETATM    1  C   UNL     1     -45.359  57.403 -54.984  1.00  0.00     0.016 C 
HETATM    2  C   UNL     1     -44.002  57.598 -54.233  1.00  0.00    -0.030 C 
HETATM    3  C   UNL     1     -42.820  57.774 -55.287  1.00  0.00     0.056 C 
HETATM    4  C   UNL     1     -42.774  59.193 -55.809  1.00  0.00     0.056 C 
HETATM    5  C   UNL     1     -43.526  60.228 -55.298  1.00  0.00     0.012 C 
HETATM    6  S   UNL     1     -43.230  61.659 -56.164  1.00  0.00    -0.055 SA
HETATM    7  C   UNL     1     -41.917  60.874 -56.968  1.00  0.00     0.172 C 
HETATM    8  N   UNL     1     -41.841  59.575 -56.758  1.00  0.00    -0.227 NA
HETATM    9  C   UNL     1     -44.450  60.147 -54.137  1.00  0.00     0.055 C 
HETATM   10  C   UNL     1     -44.143  58.875 -53.297  1.00  0.00     0.012 C 
HETATM   11  C   UNL     1     -43.011  59.047 -52.184  1.00  0.00     0.008 C 
HETATM   12  C   UNL     1     -43.691  59.743 -50.968  1.00  0.00     0.020 C 
HETATM   13  C   UNL     1     -42.496  57.658 -51.690  1.00  0.00     0.128 C 
HETATM   14  C   UNL     1     -43.523  56.555 -51.898  1.00  0.00     0.033 C 
HETATM   15  C   UNL     1     -43.779  56.307 -53.384  1.00  0.00     0.013 C 
ENDROOT
BRANCH   3  16
HETATM   16  C   UNL     1     -42.897  56.756 -56.439  1.00  0.00     0.114 C 
BRANCH  16  17
HETATM   17  C   UNL     1     -42.382  55.387 -56.052  1.00  0.00     0.218 C 
HETATM   18  N   UNL     1     -41.109  55.371 -55.535  1.00  0.00    -0.359 N 
HETATM   19  H   UNL     1     -40.803  56.216 -55.046  1.00  0.00     0.162 HD
HETATM   20  O   UNL     1     -43.050  54.374 -56.247  1.00  0.00    -0.274 OA
BRANCH  18  21
HETATM   21  C   UNL     1     -40.475  54.118 -55.166  1.00  0.00     0.148 C 
BRANCH  21  22
HETATM   22  C   UNL     1     -40.961  53.605 -53.808  1.00  0.00     0.186 C 
BRANCH  22  23
HETATM   23  O   UNL     1     -40.624  54.487 -52.734  1.00  0.00    -0.394 OA
HETATM   24  C   UNL     1     -40.856  53.907 -51.457  1.00  0.00     0.201 C 
ENDBRANCH  22  23
ENDBRANCH  21  22
ENDBRANCH  18  21
ENDBRANCH  16  17
ENDBRANCH   3  16
BRANCH  11  25
HETATM   25  C   UNL     1     -41.783  59.913 -52.580  1.00  0.00     0.176 C 
BRANCH  25  26
HETATM   26  O   UNL     1     -40.750  59.878 -51.600  1.00  0.00    -0.400 OA
HETATM   27  H   UNL     1     -41.173  59.598 -50.769  1.00  0.00     0.209 HD
ENDBRANCH  25  26
ENDBRANCH  11  25
BRANCH   7  28
HETATM   28  N   UNL     1     -41.061  61.624 -57.708  1.00  0.00    -0.334 N 
HETATM   29  H   UNL     1     -40.090  61.512 -57.440  1.00  0.00     0.168 HD
BRANCH  28  30
HETATM   30  C   UNL     1     -41.163  61.718 -59.119  1.00  0.00     0.051 A 
HETATM   31  C   UNL     1     -42.126  61.073 -59.898  1.00  0.00     0.145 A 
HETATM   32  N   UNL     1     -42.216  61.164 -61.253  1.00  0.00    -0.271 NA
HETATM   33  C   UNL     1     -41.320  61.960 -61.868  1.00  0.00     0.116 A 
HETATM   34  C   UNL     1     -40.355  62.685 -61.193  1.00  0.00     0.021 A 
HETATM   35  C   UNL     1     -40.289  62.572 -59.805  1.00  0.00     0.032 A 
ENDBRANCH  28  30
ENDBRANCH   7  28
BRANCH  13  36
HETATM   36  O   UNL     1     -41.292  57.292 -52.364  1.00  0.00    -0.395 OA
HETATM   37  H   UNL     1     -40.637  58.000 -52.223  1.00  0.00     0.210 HD
ENDBRANCH  13  36
TORSDOF 10
ENDMDL
MODEL 9
REMARK VINA RESULT:      -6.3      2.865      6.387
REMARK  10 active torsions:
REMARK  status: ('A' for Active; 'I' for Inactive)
REMARK    1  A    between atoms: C_3  and  C_4 
REMARK    2  A    between atoms: C_4  and  C_5 
REMARK       I    between atoms: C_5  and  N_6 
REMARK    3  A    between atoms: N_6  and  C_7 
REMARK    4  A    between atoms: C_7  and  C_8 
REMARK    5  A    between atoms: C_8  and  O_9 
REMARK    6  A    between atoms: C_15  and  N_16 
REMARK    7  A    between atoms: N_16  and  C_17 
REMARK    8  A    between atoms: C_26  and  C_27 
REMARK    9  A    between atoms: C_27  and  O_28 
REMARK   10  A    between atoms: C_30  and  O_31 
ROOT
HETATM    1  C   UNL     1     -41.325  60.092 -53.899  1.00  0.00     0.016 C 
HETATM    2  C   UNL     1     -42.767  59.612 -53.531  1.00  0.00    -0.030 C 
HETATM    3  C   UNL     1     -42.909  58.052 -53.822  1.00  0.00     0.056 C 
HETATM    4  C   UNL     1     -42.315  57.239 -52.694  1.00  0.00     0.056 C 
HETATM    5  C   UNL     1     -41.887  57.776 -51.499  1.00  0.00     0.012 C 
HETATM    6  S   UNL     1     -41.249  56.561 -50.498  1.00  0.00    -0.055 SA
HETATM    7  C   UNL     1     -41.846  55.371 -51.601  1.00  0.00     0.172 C 
HETATM    8  N   UNL     1     -42.302  55.856 -52.739  1.00  0.00    -0.227 NA
HETATM    9  C   UNL     1     -41.985  59.203 -51.096  1.00  0.00     0.055 C 
HETATM   10  C   UNL     1     -43.014  59.943 -51.997  1.00  0.00     0.012 C 
HETATM   11  C   UNL     1     -44.531  59.865 -51.506  1.00  0.00     0.008 C 
HETATM   12  C   UNL     1     -44.684  60.927 -50.376  1.00  0.00     0.020 C 
HETATM   13  C   UNL     1     -45.512  60.268 -52.652  1.00  0.00     0.128 C 
HETATM   14  C   UNL     1     -44.849  61.163 -53.690  1.00  0.00     0.033 C 
HETATM   15  C   UNL     1     -43.744  60.421 -54.440  1.00  0.00     0.013 C 
ENDROOT
BRANCH   3  16
HETATM   16  C   UNL     1     -42.310  57.646 -55.180  1.00  0.00     0.114 C 
BRANCH  16  17
HETATM   17  C   UNL     1     -43.362  57.279 -56.204  1.00  0.00     0.218 C 
HETATM   18  N   UNL     1     -42.877  56.983 -57.454  1.00  0.00    -0.359 N 
HETATM   19  H   UNL     1     -41.930  56.598 -57.498  1.00  0.00     0.162 HD
HETATM   20  O   UNL     1     -44.560  57.305 -55.927  1.00  0.00    -0.274 OA
BRANCH  18  21
HETATM   21  C   UNL     1     -43.781  56.660 -58.543  1.00  0.00     0.148 C 
BRANCH  21  22
HETATM   22  C   UNL     1     -43.125  55.751 -59.585  1.00  0.00     0.186 C 
BRANCH  22  23
HETATM   23  O   UNL     1     -42.047  56.391 -60.272  1.00  0.00    -0.394 OA
HETATM   24  C   UNL     1     -42.265  57.785 -60.454  1.00  0.00     0.201 C 
ENDBRANCH  22  23
ENDBRANCH  21  22
ENDBRANCH  18  21
ENDBRANCH  16  17
ENDBRANCH   3  16
BRANCH  11  25
HETATM   25  C   UNL     1     -44.996  58.503 -50.921  1.00  0.00     0.176 C 
BRANCH  25  26
HETATM   26  O   UNL     1     -46.323  58.553 -50.406  1.00  0.00    -0.400 OA
HETATM   27  H   UNL     1     -46.507  59.490 -50.219  1.00  0.00     0.209 HD
ENDBRANCH  25  26
ENDBRANCH  11  25
BRANCH   7  28
HETATM   28  N   UNL     1     -41.837  54.067 -51.225  1.00  0.00    -0.334 N 
HETATM   29  H   UNL     1     -42.764  53.676 -51.100  1.00  0.00     0.168 HD
BRANCH  28  30
HETATM   30  C   UNL     1     -40.989  53.108 -51.834  1.00  0.00     0.051 A 
HETATM   31  C   UNL     1     -40.198  52.186 -51.145  1.00  0.00     0.145 A 
HETATM   32  N   UNL     1     -39.382  51.270 -51.734  1.00  0.00    -0.271 NA
HETATM   33  C   UNL     1     -39.369  51.248 -53.081  1.00  0.00     0.116 A 
HETATM   34  C   UNL     1     -40.147  52.081 -53.865  1.00  0.00     0.021 A 
HETATM   35  C   UNL     1     -40.975  53.007 -53.230  1.00  0.00     0.032 A 
ENDBRANCH  28  30
ENDBRANCH   7  28
BRANCH  13  36
HETATM   36  O   UNL     1     -46.028  59.113 -53.312  1.00  0.00    -0.395 OA
HETATM   37  H   UNL     1     -46.649  58.668 -52.706  1.00  0.00     0.210 HD
ENDBRANCH  13  36
TORSDOF 10
ENDMDL
MODEL 10
REMARK VINA RESULT:      -6.2      3.381      8.205
REMARK  10 active torsions:
REMARK  status: ('A' for Active; 'I' for Inactive)
REMARK    1  A    between atoms: C_3  and  C_4 
REMARK    2  A    between atoms: C_4  and  C_5 
REMARK       I    between atoms: C_5  and  N_6 
REMARK    3  A    between atoms: N_6  and  C_7 
REMARK    4  A    between atoms: C_7  and  C_8 
REMARK    5  A    between atoms: C_8  and  O_9 
REMARK    6  A    between atoms: C_15  and  N_16 
REMARK    7  A    between atoms: N_16  and  C_17 
REMARK    8  A    between atoms: C_26  and  C_27 
REMARK    9  A    between atoms: C_27  and  O_28 
REMARK   10  A    between atoms: C_30  and  O_31 
ROOT
HETATM    1  C   UNL     1     -45.477  60.711 -57.250  1.00  0.00     0.016 C 
HETATM    2  C   UNL     1     -44.506  59.741 -57.998  1.00  0.00    -0.030 C 
HETATM    3  C   UNL     1     -43.117  59.658 -57.221  1.00  0.00     0.056 C 
HETATM    4  C   UNL     1     -43.215  58.709 -56.048  1.00  0.00     0.056 C 
HETATM    5  C   UNL     1     -44.296  57.889 -55.807  1.00  0.00     0.012 C 
HETATM    6  S   UNL     1     -44.056  56.997 -54.382  1.00  0.00    -0.055 SA
HETATM    7  C   UNL     1     -42.418  57.547 -54.340  1.00  0.00     0.172 C 
HETATM    8  N   UNL     1     -42.134  58.496 -55.210  1.00  0.00    -0.227 NA
HETATM    9  C   UNL     1     -45.500  57.755 -56.667  1.00  0.00     0.055 C 
HETATM   10  C   UNL     1     -45.209  58.319 -58.086  1.00  0.00     0.012 C 
HETATM   11  C   UNL     1     -44.556  57.284 -59.112  1.00  0.00     0.008 C 
HETATM   12  C   UNL     1     -45.722  56.402 -59.650  1.00  0.00     0.020 C 
HETATM   13  C   UNL     1     -43.938  58.027 -60.339  1.00  0.00     0.128 C 
HETATM   14  C   UNL     1     -44.581  59.386 -60.575  1.00  0.00     0.033 C 
HETATM   15  C   UNL     1     -44.292  60.346 -59.422  1.00  0.00     0.013 C 
ENDROOT
BRANCH   3  16
HETATM   16  C   UNL     1     -42.601  61.040 -56.782  1.00  0.00     0.114 C 
BRANCH  16  17
HETATM   17  C   UNL     1     -41.418  61.516 -57.596  1.00  0.00     0.218 C 
HETATM   18  N   UNL     1     -41.345  62.876 -57.773  1.00  0.00    -0.359 N 
HETATM   19  H   UNL     1     -41.755  63.456 -57.037  1.00  0.00     0.162 HD
HETATM   20  O   UNL     1     -40.627  60.720 -58.098  1.00  0.00    -0.274 OA
BRANCH  18  21
HETATM   21  C   UNL     1     -40.285  63.463 -58.573  1.00  0.00     0.148 C 
BRANCH  21  22
HETATM   22  C   UNL     1     -40.698  63.635 -60.038  1.00  0.00     0.186 C 
BRANCH  22  23
HETATM   23  O   UNL     1     -40.202  62.586 -60.874  1.00  0.00    -0.394 OA
HETATM   24  C   UNL     1     -40.138  62.964 -62.244  1.00  0.00     0.201 C 
ENDBRANCH  22  23
ENDBRANCH  21  22
ENDBRANCH  18  21
ENDBRANCH  16  17
ENDBRANCH   3  16
BRANCH  11  25
HETATM   25  C   UNL     1     -43.484  56.322 -58.530  1.00  0.00     0.176 C 
BRANCH  25  26
HETATM   26  O   UNL     1     -43.963  54.990 -58.388  1.00  0.00    -0.400 OA
HETATM   27  H   UNL     1     -43.686  54.514 -59.191  1.00  0.00     0.209 HD
ENDBRANCH  25  26
ENDBRANCH  11  25
BRANCH   7  28
HETATM   28  N   UNL     1     -41.554  56.965 -53.469  1.00  0.00    -0.334 N 
HETATM   29  H   UNL     1     -41.779  57.144 -52.497  1.00  0.00     0.168 HD
BRANCH  28  30
HETATM   30  C   UNL     1     -41.111  55.627 -53.623  1.00  0.00     0.051 A 
HETATM   31  C   UNL     1     -41.126  54.658 -52.618  1.00  0.00     0.145 A 
HETATM   32  N   UNL     1     -40.695  53.377 -52.769  1.00  0.00    -0.271 NA
HETATM   33  C   UNL     1     -40.249  53.028 -53.991  1.00  0.00     0.116 A 
HETATM   34  C   UNL     1     -40.234  53.890 -55.072  1.00  0.00     0.021 A 
HETATM   35  C   UNL     1     -40.684  55.196 -54.885  1.00  0.00     0.032 A 
ENDBRANCH  28  30
ENDBRANCH   7  28
BRANCH  13  36
HETATM   36  O   UNL     1     -42.533  58.213 -60.167  1.00  0.00    -0.395 OA
HETATM   37  H   UNL     1     -42.346  59.169 -60.204  1.00  0.00     0.210 HD
ENDBRANCH  13  36
TORSDOF 10
ENDMDL
