MODEL 1
REMARK VINA RESULT:      -9.2      0.000      0.000
REMARK  5 active torsions:
REMARK  status: ('A' for Active; 'I' for Inactive)
REMARK    1  A    between atoms: C_2  and  C_3 
REMARK    2  A    between atoms: N_4  and  C_6 
REMARK    3  A    between atoms: C_6  and  C_7 
REMARK    4  A    between atoms: N_14  and  C_16 
REMARK    5  A    between atoms: C_16  and  C_17 
ROOT
HETATM    1  C   UNL     1     -43.735  57.832 -55.779  1.00  0.00    -0.032 A 
HETATM    2  C   UNL     1     -42.496  57.457 -55.214  1.00  0.00     0.020 A 
HETATM    3  C   UNL     1     -42.378  57.138 -53.846  1.00  0.00     0.002 A 
HETATM    4  C   UNL     1     -43.522  57.207 -53.050  1.00  0.00     0.076 A 
HETATM    5  O   UNL     1     -43.461  56.969 -51.707  1.00  0.00    -0.349 OA
HETATM    6  C   UNL     1     -43.252  55.581 -51.418  1.00  0.00     0.203 C 
HETATM    7  C   UNL     1     -41.759  55.260 -51.311  1.00  0.00     0.262 C 
HETATM    8  N   UNL     1     -41.026  55.344 -52.645  1.00  0.00    -0.061 N 
HETATM    9  H   UNL     1     -40.043  55.178 -52.402  1.00  0.00     0.280 HD
HETATM   10  C   UNL     1     -41.057  56.739 -53.240  1.00  0.00     0.276 C 
HETATM   11  C   UNL     1     -44.752  57.580 -53.585  1.00  0.00     0.038 A 
HETATM   12  C   UNL     1     -44.865  57.864 -54.947  1.00  0.00     0.011 A 
ENDROOT
BRANCH   1  13
HETATM   13  C   UNL     1     -43.835  58.117 -57.265  1.00  0.00     0.274 C 
BRANCH  13  14
HETATM   14  N   UNL     1     -44.806  57.258 -58.031  1.00  0.00    -0.053 N 
HETATM   15  C   UNL     1     -44.128  56.336 -59.092  1.00  0.00     0.279 C 
HETATM   16  C   UNL     1     -45.169  55.401 -59.749  1.00  0.00     0.248 C 
HETATM   17  N   UNL     1     -46.419  55.922 -59.970  1.00  0.00    -0.358 N 
HETATM   18  O   UNL     1     -44.889  54.270 -60.121  1.00  0.00    -0.271 OA
HETATM   19  C   UNL     1     -47.003  56.986 -59.171  1.00  0.00     0.150 C 
HETATM   20  H   UNL     1     -47.052  55.257 -60.413  1.00  0.00     0.162 HD
HETATM   21  C   UNL     1     -45.988  58.003 -58.630  1.00  0.00     0.256 C 
HETATM   22  H   UNL     1     -45.201  56.589 -57.361  1.00  0.00     0.281 HD
BRANCH  15  23
HETATM   23  C   UNL     1     -43.392  57.163 -60.158  1.00  0.00     0.038 C 
HETATM   24  C   UNL     1     -41.883  56.948 -60.125  1.00  0.00     0.007 C 
ENDBRANCH  15  23
ENDBRANCH  13  14
ENDBRANCH   1  13
BRANCH   8  25
HETATM   25  C   UNL     1     -41.376  54.272 -53.651  1.00  0.00     0.274 C 
BRANCH  25  26
HETATM   26  C   UNL     1     -40.758  52.929 -53.372  1.00  0.00    -0.029 A 
HETATM   27  C   UNL     1     -40.767  51.920 -54.347  1.00  0.00     0.054 A 
HETATM   28  C   UNL     1     -40.198  50.675 -54.072  1.00  0.00     0.155 A 
HETATM   29  F   UNL     1     -40.221  49.732 -55.020  1.00  0.00    -0.203 F 
HETATM   30  C   UNL     1     -39.621  50.421 -52.837  1.00  0.00     0.154 A 
HETATM   31  F   UNL     1     -39.077  49.227 -52.576  1.00  0.00    -0.203 F 
HETATM   32  C   UNL     1     -39.604  51.409 -51.858  1.00  0.00     0.046 A 
HETATM   33  C   UNL     1     -40.170  52.660 -52.123  1.00  0.00     0.012 A 
ENDBRANCH  25  26
ENDBRANCH   8  25
TORSDOF 5
ENDMDL
MODEL 2
REMARK VINA RESULT:      -9.1      1.452      2.176
REMARK  5 active torsions:
REMARK  status: ('A' for Active; 'I' for Inactive)
REMARK    1  A    between atoms: C_2  and  C_3 
REMARK    2  A    between atoms: N_4  and  C_6 
REMARK    3  A    between atoms: C_6  and  C_7 
REMARK    4  A    between atoms: N_14  and  C_16 
REMARK    5  A    between atoms: C_16  and  C_17 
ROOT
HETATM    1  C   UNL     1     -43.137  57.081 -56.293  1.00  0.00    -0.032 A 
HETATM    2  C   UNL     1     -42.119  56.685 -55.397  1.00  0.00     0.020 A 
HETATM    3  C   UNL     1     -42.103  57.125 -54.058  1.00  0.00     0.002 A 
HETATM    4  C   UNL     1     -43.123  57.975 -53.630  1.00  0.00     0.076 A 
HETATM    5  O   UNL     1     -43.132  58.484 -52.364  1.00  0.00    -0.349 OA
HETATM    6  C   UNL     1     -43.453  57.485 -51.388  1.00  0.00     0.203 C 
HETATM    7  C   UNL     1     -42.187  56.804 -50.860  1.00  0.00     0.262 C 
HETATM    8  N   UNL     1     -41.501  55.921 -51.896  1.00  0.00    -0.061 N 
HETATM    9  H   UNL     1     -40.647  55.600 -51.425  1.00  0.00     0.280 HD
HETATM   10  C   UNL     1     -41.018  56.704 -53.101  1.00  0.00     0.276 C 
HETATM   11  C   UNL     1     -44.134  58.383 -54.497  1.00  0.00     0.038 A 
HETATM   12  C   UNL     1     -44.157  57.917 -55.813  1.00  0.00     0.011 A 
ENDROOT
BRANCH   1  13
HETATM   13  C   UNL     1     -43.149  56.546 -57.711  1.00  0.00     0.274 C 
BRANCH  13  14
HETATM   14  N   UNL     1     -44.039  57.281 -58.678  1.00  0.00    -0.053 N 
HETATM   15  C   UNL     1     -45.094  56.370 -59.380  1.00  0.00     0.279 C 
HETATM   16  C   UNL     1     -46.044  57.211 -60.261  1.00  0.00     0.248 C 
HETATM   17  N   UNL     1     -45.495  58.282 -60.920  1.00  0.00    -0.358 N 
HETATM   18  O   UNL     1     -47.219  56.912 -60.426  1.00  0.00    -0.271 OA
HETATM   19  C   UNL     1     -44.330  59.010 -60.446  1.00  0.00     0.150 C 
HETATM   20  H   UNL     1     -46.174  58.787 -61.489  1.00  0.00     0.162 HD
HETATM   21  C   UNL     1     -43.309  58.150 -59.690  1.00  0.00     0.256 C 
HETATM   22  H   UNL     1     -44.618  57.919 -58.121  1.00  0.00     0.281 HD
BRANCH  15  23
HETATM   23  C   UNL     1     -44.412  55.271 -60.212  1.00  0.00     0.038 C 
HETATM   24  C   UNL     1     -44.780  53.868 -59.739  1.00  0.00     0.007 C 
ENDBRANCH  15  23
ENDBRANCH  13  14
ENDBRANCH   1  13
BRANCH   8  25
HETATM   25  C   UNL     1     -42.245  54.662 -52.277  1.00  0.00     0.274 C 
BRANCH  25  26
HETATM   26  C   UNL     1     -41.367  53.542 -52.763  1.00  0.00    -0.029 A 
HETATM   27  C   UNL     1     -40.529  52.852 -51.874  1.00  0.00     0.054 A 
HETATM   28  C   UNL     1     -39.711  51.820 -52.339  1.00  0.00     0.155 A 
HETATM   29  F   UNL     1     -38.923  51.179 -51.470  1.00  0.00    -0.203 F 
HETATM   30  C   UNL     1     -39.717  51.467 -53.680  1.00  0.00     0.154 A 
HETATM   31  F   UNL     1     -38.932  50.479 -54.124  1.00  0.00    -0.203 F 
HETATM   32  C   UNL     1     -40.539  52.141 -54.577  1.00  0.00     0.046 A 
HETATM   33  C   UNL     1     -41.363  53.175 -54.122  1.00  0.00     0.012 A 
ENDBRANCH  25  26
ENDBRANCH   8  25
TORSDOF 5
ENDMDL
MODEL 3
REMARK VINA RESULT:      -8.6      4.248      6.301
REMARK  5 active torsions:
REMARK  status: ('A' for Active; 'I' for Inactive)
REMARK    1  A    between atoms: C_2  and  C_3 
REMARK    2  A    between atoms: N_4  and  C_6 
REMARK    3  A    between atoms: C_6  and  C_7 
REMARK    4  A    between atoms: N_14  and  C_16 
REMARK    5  A    between atoms: C_16  and  C_17 
ROOT
HETATM    1  C   UNL     1     -42.222  54.637 -55.457  1.00  0.00    -0.032 A 
HETATM    2  C   UNL     1     -42.880  54.739 -54.211  1.00  0.00     0.020 A 
HETATM    3  C   UNL     1     -42.333  54.176 -53.040  1.00  0.00     0.002 A 
HETATM    4  C   UNL     1     -41.115  53.502 -53.139  1.00  0.00     0.076 A 
HETATM    5  O   UNL     1     -40.562  52.883 -52.055  1.00  0.00    -0.349 OA
HETATM    6  C   UNL     1     -40.050  53.826 -51.105  1.00  0.00     0.203 C 
HETATM    7  C   UNL     1     -41.113  54.193 -50.066  1.00  0.00     0.262 C 
HETATM    8  N   UNL     1     -42.256  55.023 -50.640  1.00  0.00    -0.061 N 
HETATM    9  H   UNL     1     -42.910  55.125 -49.855  1.00  0.00     0.280 HD
HETATM   10  C   UNL     1     -43.033  54.282 -51.710  1.00  0.00     0.276 C 
HETATM   11  C   UNL     1     -40.452  53.384 -54.358  1.00  0.00     0.038 A 
HETATM   12  C   UNL     1     -40.987  53.972 -55.505  1.00  0.00     0.011 A 
ENDROOT
BRANCH   1  13
HETATM   13  C   UNL     1     -42.816  55.300 -56.684  1.00  0.00     0.274 C 
BRANCH  13  14
HETATM   14  N   UNL     1     -42.297  56.678 -56.997  1.00  0.00    -0.053 N 
HETATM   15  C   UNL     1     -42.748  57.768 -55.975  1.00  0.00     0.279 C 
HETATM   16  C   UNL     1     -42.081  59.125 -56.292  1.00  0.00     0.248 C 
HETATM   17  N   UNL     1     -41.906  59.437 -57.617  1.00  0.00    -0.358 N 
HETATM   18  O   UNL     1     -41.776  59.924 -55.416  1.00  0.00    -0.271 OA
HETATM   19  C   UNL     1     -41.751  58.444 -58.665  1.00  0.00     0.150 C 
HETATM   20  H   UNL     1     -41.469  60.348 -57.754  1.00  0.00     0.162 HD
HETATM   21  C   UNL     1     -42.527  57.142 -58.427  1.00  0.00     0.256 C 
HETATM   22  H   UNL     1     -41.279  56.647 -56.868  1.00  0.00     0.281 HD
BRANCH  15  23
HETATM   23  C   UNL     1     -44.279  57.908 -55.952  1.00  0.00     0.038 C 
HETATM   24  C   UNL     1     -44.863  57.709 -54.557  1.00  0.00     0.007 C 
ENDBRANCH  15  23
ENDBRANCH  13  14
ENDBRANCH   1  13
BRANCH   8  25
HETATM   25  C   UNL     1     -41.897  56.434 -51.049  1.00  0.00     0.274 C 
BRANCH  25  26
HETATM   26  C   UNL     1     -43.065  57.380 -51.111  1.00  0.00    -0.029 A 
HETATM   27  C   UNL     1     -42.869  58.742 -51.387  1.00  0.00     0.054 A 
HETATM   28  C   UNL     1     -43.961  59.611 -51.433  1.00  0.00     0.155 A 
HETATM   29  F   UNL     1     -43.745  60.904 -51.698  1.00  0.00    -0.203 F 
HETATM   30  C   UNL     1     -45.246  59.142 -51.206  1.00  0.00     0.154 A 
HETATM   31  F   UNL     1     -46.290  59.977 -51.250  1.00  0.00    -0.203 F 
HETATM   32  C   UNL     1     -45.459  57.796 -50.930  1.00  0.00     0.046 A 
HETATM   33  C   UNL     1     -44.374  56.916 -50.882  1.00  0.00     0.012 A 
ENDBRANCH  25  26
ENDBRANCH   8  25
TORSDOF 5
ENDMDL
MODEL 4
REMARK VINA RESULT:      -8.4      2.449      3.369
REMARK  5 active torsions:
REMARK  status: ('A' for Active; 'I' for Inactive)
REMARK    1  A    between atoms: C_2  and  C_3 
REMARK    2  A    between atoms: N_4  and  C_6 
REMARK    3  A    between atoms: C_6  and  C_7 
REMARK    4  A    between atoms: N_14  and  C_16 
REMARK    5  A    between atoms: C_16  and  C_17 
ROOT
HETATM    1  C   UNL     1     -43.817  58.584 -54.709  1.00  0.00    -0.032 A 
HETATM    2  C   UNL     1     -42.582  58.202 -54.140  1.00  0.00     0.020 A 
HETATM    3  C   UNL     1     -42.002  58.932 -53.082  1.00  0.00     0.002 A 
HETATM    4  C   UNL     1     -42.678  60.056 -52.606  1.00  0.00     0.076 A 
HETATM    5  O   UNL     1     -42.142  60.838 -51.625  1.00  0.00    -0.349 OA
HETATM    6  C   UNL     1     -42.167  60.189 -50.348  1.00  0.00     0.203 C 
HETATM    7  C   UNL     1     -40.878  59.399 -50.107  1.00  0.00     0.262 C 
HETATM    8  N   UNL     1     -40.746  58.172 -51.001  1.00  0.00    -0.061 N 
HETATM    9  H   UNL     1     -39.817  57.797 -50.776  1.00  0.00     0.280 HD
HETATM   10  C   UNL     1     -40.684  58.528 -52.474  1.00  0.00     0.276 C 
HETATM   11  C   UNL     1     -43.894  60.453 -53.156  1.00  0.00     0.038 A 
HETATM   12  C   UNL     1     -44.475  59.706 -54.183  1.00  0.00     0.011 A 
ENDROOT
BRANCH   1  13
HETATM   13  C   UNL     1     -44.434  57.745 -55.811  1.00  0.00     0.274 C 
BRANCH  13  14
HETATM   14  N   UNL     1     -43.703  57.756 -57.127  1.00  0.00    -0.053 N 
HETATM   15  C   UNL     1     -43.345  56.334 -57.661  1.00  0.00     0.279 C 
HETATM   16  C   UNL     1     -42.708  56.421 -59.066  1.00  0.00     0.248 C 
HETATM   17  N   UNL     1     -41.880  57.489 -59.307  1.00  0.00    -0.358 N 
HETATM   18  O   UNL     1     -42.870  55.553 -59.912  1.00  0.00    -0.271 OA
HETATM   19  C   UNL     1     -41.998  58.770 -58.633  1.00  0.00     0.150 C 
HETATM   20  H   UNL     1     -41.487  57.480 -60.248  1.00  0.00     0.162 HD
HETATM   21  C   UNL     1     -42.497  58.681 -57.184  1.00  0.00     0.256 C 
HETATM   22  H   UNL     1     -44.364  58.107 -57.829  1.00  0.00     0.281 HD
BRANCH  15  23
HETATM   23  C   UNL     1     -42.413  55.595 -56.687  1.00  0.00     0.038 C 
HETATM   24  C   UNL     1     -43.117  54.455 -55.958  1.00  0.00     0.007 C 
ENDBRANCH  15  23
ENDBRANCH  13  14
ENDBRANCH   1  13
BRANCH   8  25
HETATM   25  C   UNL     1     -41.712  57.046 -50.713  1.00  0.00     0.274 C 
BRANCH  25  26
HETATM   26  C   UNL     1     -41.153  55.669 -50.946  1.00  0.00    -0.029 A 
HETATM   27  C   UNL     1     -41.432  54.974 -52.134  1.00  0.00     0.054 A 
HETATM   28  C   UNL     1     -40.914  53.694 -52.334  1.00  0.00     0.155 A 
HETATM   29  F   UNL     1     -41.196  53.055 -53.475  1.00  0.00    -0.203 F 
HETATM   30  C   UNL     1     -40.122  53.094 -51.366  1.00  0.00     0.154 A 
HETATM   31  F   UNL     1     -39.628  51.866 -51.560  1.00  0.00    -0.203 F 
HETATM   32  C   UNL     1     -39.837  53.766 -50.182  1.00  0.00     0.046 A 
HETATM   33  C   UNL     1     -40.349  55.050 -49.971  1.00  0.00     0.012 A 
ENDBRANCH  25  26
ENDBRANCH   8  25
TORSDOF 5
ENDMDL
MODEL 5
REMARK VINA RESULT:      -8.3      2.253      2.672
REMARK  5 active torsions:
REMARK  status: ('A' for Active; 'I' for Inactive)
REMARK    1  A    between atoms: C_2  and  C_3 
REMARK    2  A    between atoms: N_4  and  C_6 
REMARK    3  A    between atoms: C_6  and  C_7 
REMARK    4  A    between atoms: N_14  and  C_16 
REMARK    5  A    between atoms: C_16  and  C_17 
ROOT
HETATM    1  C   UNL     1     -43.104  60.234 -55.908  1.00  0.00    -0.032 A 
HETATM    2  C   UNL     1     -42.032  59.532 -55.314  1.00  0.00     0.020 A 
HETATM    3  C   UNL     1     -41.752  59.642 -53.937  1.00  0.00     0.002 A 
HETATM    4  C   UNL     1     -42.563  60.473 -53.162  1.00  0.00     0.076 A 
HETATM    5  O   UNL     1     -42.308  60.669 -51.836  1.00  0.00    -0.349 OA
HETATM    6  C   UNL     1     -42.620  59.509 -51.054  1.00  0.00     0.203 C 
HETATM    7  C   UNL     1     -41.401  58.593 -50.919  1.00  0.00     0.262 C 
HETATM    8  N   UNL     1     -41.012  57.908 -52.224  1.00  0.00    -0.061 N 
HETATM    9  H   UNL     1     -40.153  57.397 -51.993  1.00  0.00     0.280 HD
HETATM   10  C   UNL     1     -40.607  58.896 -53.301  1.00  0.00     0.276 C 
HETATM   11  C   UNL     1     -43.622  61.178 -53.728  1.00  0.00     0.038 A 
HETATM   12  C   UNL     1     -43.910  61.039 -55.087  1.00  0.00     0.011 A 
ENDROOT
BRANCH   1  13
HETATM   13  C   UNL     1     -43.406  60.051 -57.382  1.00  0.00     0.274 C 
BRANCH  13  14
HETATM   14  N   UNL     1     -44.284  58.876 -57.727  1.00  0.00    -0.053 N 
HETATM   15  C   UNL     1     -43.637  57.883 -58.742  1.00  0.00     0.279 C 
HETATM   16  C   UNL     1     -44.542  56.649 -58.953  1.00  0.00     0.248 C 
HETATM   17  N   UNL     1     -45.897  56.866 -58.953  1.00  0.00    -0.358 N 
HETATM   18  O   UNL     1     -44.087  55.535 -59.178  1.00  0.00    -0.271 OA
HETATM   19  C   UNL     1     -46.540  57.953 -58.236  1.00  0.00     0.150 C 
HETATM   20  H   UNL     1     -46.434  56.012 -59.106  1.00  0.00     0.162 HD
HETATM   21  C   UNL     1     -45.702  59.235 -58.143  1.00  0.00     0.256 C 
HETATM   22  H   UNL     1     -44.372  58.313 -56.875  1.00  0.00     0.281 HD
BRANCH  15  23
HETATM   23  C   UNL     1     -43.340  58.575 -60.083  1.00  0.00     0.038 C 
HETATM   24  C   UNL     1     -41.876  58.451 -60.492  1.00  0.00     0.007 C 
ENDBRANCH  15  23
ENDBRANCH  13  14
ENDBRANCH   1  13
BRANCH   8  25
HETATM   25  C   UNL     1     -41.980  56.861 -52.726  1.00  0.00     0.274 C 
BRANCH  25  26
HETATM   26  C   UNL     1     -41.349  55.534 -53.048  1.00  0.00    -0.029 A 
HETATM   27  C   UNL     1     -40.998  55.208 -54.367  1.00  0.00     0.054 A 
HETATM   28  C   UNL     1     -40.423  53.969 -54.653  1.00  0.00     0.155 A 
HETATM   29  F   UNL     1     -40.098  53.685 -55.920  1.00  0.00    -0.203 F 
HETATM   30  C   UNL     1     -40.192  53.048 -53.642  1.00  0.00     0.154 A 
HETATM   31  F   UNL     1     -39.641  51.861 -53.920  1.00  0.00    -0.203 F 
HETATM   32  C   UNL     1     -40.534  53.353 -52.329  1.00  0.00     0.046 A 
HETATM   33  C   UNL     1     -41.111  54.591 -52.030  1.00  0.00     0.012 A 
ENDBRANCH  25  26
ENDBRANCH   8  25
TORSDOF 5
ENDMDL
MODEL 6
REMARK VINA RESULT:      -8.2      3.988      6.146
REMARK  5 active torsions:
REMARK  status: ('A' for Active; 'I' for Inactive)
REMARK    1  A    between atoms: C_2  and  C_3 
REMARK    2  A    between atoms: N_4  and  C_6 
REMARK    3  A    between atoms: C_6  and  C_7 
REMARK    4  A    between atoms: N_14  and  C_16 
REMARK    5  A    between atoms: C_16  and  C_17 
ROOT
HETATM    1  C   UNL     1     -42.421  54.186 -54.444  1.00  0.00    -0.032 A 
HETATM    2  C   UNL     1     -42.924  54.896 -53.331  1.00  0.00     0.020 A 
HETATM    3  C   UNL     1     -42.463  54.637 -52.023  1.00  0.00     0.002 A 
HETATM    4  C   UNL     1     -41.493  53.650 -51.848  1.00  0.00     0.076 A 
HETATM    5  O   UNL     1     -41.050  53.311 -50.602  1.00  0.00    -0.349 OA
HETATM    6  C   UNL     1     -40.222  54.332 -50.032  1.00  0.00     0.203 C 
HETATM    7  C   UNL     1     -41.055  55.324 -49.216  1.00  0.00     0.262 C 
HETATM    8  N   UNL     1     -41.963  56.198 -50.074  1.00  0.00    -0.061 N 
HETATM    9  H   UNL     1     -42.499  56.748 -49.392  1.00  0.00     0.280 HD
HETATM   10  C   UNL     1     -42.999  55.392 -50.834  1.00  0.00     0.276 C 
HETATM   11  C   UNL     1     -40.988  52.934 -52.930  1.00  0.00     0.038 A 
HETATM   12  C   UNL     1     -41.428  53.218 -54.224  1.00  0.00     0.011 A 
ENDROOT
BRANCH   1  13
HETATM   13  C   UNL     1     -42.903  54.527 -55.840  1.00  0.00     0.274 C 
BRANCH  13  14
HETATM   14  N   UNL     1     -43.231  55.977 -56.081  1.00  0.00    -0.053 N 
HETATM   15  C   UNL     1     -43.894  56.251 -57.467  1.00  0.00     0.279 C 
HETATM   16  C   UNL     1     -44.310  57.734 -57.591  1.00  0.00     0.248 C 
HETATM   17  N   UNL     1     -43.479  58.662 -57.017  1.00  0.00    -0.358 N 
HETATM   18  O   UNL     1     -45.296  58.085 -58.225  1.00  0.00    -0.271 OA
HETATM   19  C   UNL     1     -42.623  58.383 -55.876  1.00  0.00     0.150 C 
HETATM   20  H   UNL     1     -43.807  59.619 -57.143  1.00  0.00     0.162 HD
HETATM   21  C   UNL     1     -42.088  56.946 -55.821  1.00  0.00     0.256 C 
HETATM   22  H   UNL     1     -43.972  56.227 -55.416  1.00  0.00     0.281 HD
BRANCH  15  23
HETATM   23  C   UNL     1     -42.957  55.851 -58.618  1.00  0.00     0.038 C 
HETATM   24  C   UNL     1     -43.719  55.429 -59.871  1.00  0.00     0.007 C 
ENDBRANCH  15  23
ENDBRANCH  13  14
ENDBRANCH   1  13
BRANCH   8  25
HETATM   25  C   UNL     1     -41.260  57.214 -50.944  1.00  0.00     0.274 C 
BRANCH  25  26
HETATM   26  C   UNL     1     -42.011  58.504 -51.128  1.00  0.00    -0.029 A 
HETATM   27  C   UNL     1     -43.055  58.599 -52.062  1.00  0.00     0.054 A 
HETATM   28  C   UNL     1     -43.738  59.805 -52.228  1.00  0.00     0.155 A 
HETATM   29  F   UNL     1     -44.729  59.866 -53.125  1.00  0.00    -0.203 F 
HETATM   30  C   UNL     1     -43.395  60.919 -51.478  1.00  0.00     0.154 A 
HETATM   31  F   UNL     1     -44.051  62.074 -51.641  1.00  0.00    -0.203 F 
HETATM   32  C   UNL     1     -42.363  60.845 -50.549  1.00  0.00     0.046 A 
HETATM   33  C   UNL     1     -41.672  59.642 -50.373  1.00  0.00     0.012 A 
ENDBRANCH  25  26
ENDBRANCH   8  25
TORSDOF 5
ENDMDL
MODEL 7
REMARK VINA RESULT:      -8.2      4.209      7.535
REMARK  5 active torsions:
REMARK  status: ('A' for Active; 'I' for Inactive)
REMARK    1  A    between atoms: C_2  and  C_3 
REMARK    2  A    between atoms: N_4  and  C_6 
REMARK    3  A    between atoms: C_6  and  C_7 
REMARK    4  A    between atoms: N_14  and  C_16 
REMARK    5  A    between atoms: C_16  and  C_17 
ROOT
HETATM    1  C   UNL     1     -41.472  58.041 -51.658  1.00  0.00    -0.032 A 
HETATM    2  C   UNL     1     -41.136  57.625 -52.965  1.00  0.00     0.020 A 
HETATM    3  C   UNL     1     -40.938  56.264 -53.277  1.00  0.00     0.002 A 
HETATM    4  C   UNL     1     -41.076  55.325 -52.254  1.00  0.00     0.076 A 
HETATM    5  O   UNL     1     -40.838  54.000 -52.477  1.00  0.00    -0.349 OA
HETATM    6  C   UNL     1     -41.867  53.398 -53.271  1.00  0.00     0.203 C 
HETATM    7  C   UNL     1     -41.528  53.475 -54.762  1.00  0.00     0.262 C 
HETATM    8  N   UNL     1     -41.587  54.892 -55.321  1.00  0.00    -0.061 N 
HETATM    9  H   UNL     1     -41.271  54.791 -56.293  1.00  0.00     0.280 HD
HETATM   10  C   UNL     1     -40.578  55.818 -54.670  1.00  0.00     0.276 C 
HETATM   11  C   UNL     1     -41.401  55.714 -50.957  1.00  0.00     0.038 A 
HETATM   12  C   UNL     1     -41.626  57.061 -50.665  1.00  0.00     0.011 A 
ENDROOT
BRANCH   1  13
HETATM   13  C   UNL     1     -41.729  59.508 -51.372  1.00  0.00     0.274 C 
BRANCH  13  14
HETATM   14  N   UNL     1     -42.987  59.812 -50.601  1.00  0.00    -0.053 N 
HETATM   15  C   UNL     1     -44.289  59.311 -51.299  1.00  0.00     0.279 C 
HETATM   16  C   UNL     1     -45.520  59.550 -50.397  1.00  0.00     0.248 C 
HETATM   17  N   UNL     1     -45.526  60.699 -49.645  1.00  0.00    -0.358 N 
HETATM   18  O   UNL     1     -46.483  58.795 -50.390  1.00  0.00    -0.271 OA
HETATM   19  C   UNL     1     -44.321  61.370 -49.190  1.00  0.00     0.150 C 
HETATM   20  H   UNL     1     -46.369  60.798 -49.081  1.00  0.00     0.162 HD
HETATM   21  C   UNL     1     -43.130  61.257 -50.151  1.00  0.00     0.256 C 
HETATM   22  H   UNL     1     -42.952  59.249 -49.744  1.00  0.00     0.281 HD
BRANCH  15  23
HETATM   23  C   UNL     1     -44.480  59.985 -52.668  1.00  0.00     0.038 C 
HETATM   24  C   UNL     1     -44.965  59.010 -53.736  1.00  0.00     0.007 C 
ENDBRANCH  15  23
ENDBRANCH  13  14
ENDBRANCH   1  13
BRANCH   8  25
HETATM   25  C   UNL     1     -42.967  55.502 -55.411  1.00  0.00     0.274 C 
BRANCH  25  26
HETATM   26  C   UNL     1     -43.279  56.145 -56.734  1.00  0.00    -0.029 A 
HETATM   27  C   UNL     1     -43.829  57.436 -56.792  1.00  0.00     0.054 A 
HETATM   28  C   UNL     1     -44.123  58.017 -58.026  1.00  0.00     0.155 A 
HETATM   29  F   UNL     1     -44.646  59.248 -58.052  1.00  0.00    -0.203 F 
HETATM   30  C   UNL     1     -43.878  57.330 -59.206  1.00  0.00     0.154 A 
HETATM   31  F   UNL     1     -44.161  57.890 -60.388  1.00  0.00    -0.203 F 
HETATM   32  C   UNL     1     -43.335  56.050 -59.168  1.00  0.00     0.046 A 
HETATM   33  C   UNL     1     -43.036  55.458 -57.938  1.00  0.00     0.012 A 
ENDBRANCH  25  26
ENDBRANCH   8  25
TORSDOF 5
ENDMDL
MODEL 8
REMARK VINA RESULT:      -8.1      3.935      5.461
REMARK  5 active torsions:
REMARK  status: ('A' for Active; 'I' for Inactive)
REMARK    1  A    between atoms: C_2  and  C_3 
REMARK    2  A    between atoms: N_4  and  C_6 
REMARK    3  A    between atoms: C_6  and  C_7 
REMARK    4  A    between atoms: N_14  and  C_16 
REMARK    5  A    between atoms: C_16  and  C_17 
ROOT
HETATM    1  C   UNL     1     -43.482  56.342 -56.169  1.00  0.00    -0.032 A 
HETATM    2  C   UNL     1     -43.681  56.528 -54.783  1.00  0.00     0.020 A 
HETATM    3  C   UNL     1     -43.219  55.587 -53.840  1.00  0.00     0.002 A 
HETATM    4  C   UNL     1     -42.559  54.451 -54.309  1.00  0.00     0.076 A 
HETATM    5  O   UNL     1     -42.141  53.474 -53.452  1.00  0.00    -0.349 OA
HETATM    6  C   UNL     1     -41.019  53.895 -52.667  1.00  0.00     0.203 C 
HETATM    7  C   UNL     1     -41.474  54.535 -51.353  1.00  0.00     0.262 C 
HETATM    8  N   UNL     1     -42.157  55.885 -51.544  1.00  0.00    -0.061 N 
HETATM    9  H   UNL     1     -42.464  56.146 -50.600  1.00  0.00     0.280 HD
HETATM   10  C   UNL     1     -43.431  55.782 -52.361  1.00  0.00     0.276 C 
HETATM   11  C   UNL     1     -42.357  54.245 -55.672  1.00  0.00     0.038 A 
HETATM   12  C   UNL     1     -42.791  55.197 -56.596  1.00  0.00     0.011 A 
ENDROOT
BRANCH   1  13
HETATM   13  C   UNL     1     -43.947  57.400 -57.150  1.00  0.00     0.274 C 
BRANCH  13  14
HETATM   14  N   UNL     1     -44.810  56.908 -58.282  1.00  0.00    -0.053 N 
HETATM   15  C   UNL     1     -44.010  56.538 -59.569  1.00  0.00     0.279 C 
HETATM   16  C   UNL     1     -44.944  55.929 -60.639  1.00  0.00     0.248 C 
HETATM   17  N   UNL     1     -46.210  56.451 -60.727  1.00  0.00    -0.358 N 
HETATM   18  O   UNL     1     -44.567  55.068 -61.422  1.00  0.00    -0.271 OA
HETATM   19  C   UNL     1     -46.910  57.062 -59.610  1.00  0.00     0.150 C 
HETATM   20  H   UNL     1     -46.769  56.011 -61.457  1.00  0.00     0.162 HD
HETATM   21  C   UNL     1     -46.000  57.793 -58.614  1.00  0.00     0.256 C 
HETATM   22  H   UNL     1     -45.200  56.006 -57.985  1.00  0.00     0.281 HD
BRANCH  15  23
HETATM   23  C   UNL     1     -43.266  57.761 -60.130  1.00  0.00     0.038 C 
HETATM   24  C   UNL     1     -41.759  57.542 -60.210  1.00  0.00     0.007 C 
ENDBRANCH  15  23
ENDBRANCH  13  14
ENDBRANCH   1  13
BRANCH   8  25
HETATM   25  C   UNL     1     -41.260  57.012 -52.000  1.00  0.00     0.274 C 
BRANCH  25  26
HETATM   26  C   UNL     1     -41.675  58.374 -51.516  1.00  0.00    -0.029 A 
HETATM   27  C   UNL     1     -42.752  59.049 -52.112  1.00  0.00     0.054 A 
HETATM   28  C   UNL     1     -43.121  60.316 -51.659  1.00  0.00     0.155 A 
HETATM   29  F   UNL     1     -44.152  60.936 -52.244  1.00  0.00    -0.203 F 
HETATM   30  C   UNL     1     -42.431  60.922 -50.620  1.00  0.00     0.154 A 
HETATM   31  F   UNL     1     -42.787  62.138 -50.188  1.00  0.00    -0.203 F 
HETATM   32  C   UNL     1     -41.361  60.270 -50.018  1.00  0.00     0.046 A 
HETATM   33  C   UNL     1     -40.982  59.000 -50.463  1.00  0.00     0.012 A 
ENDBRANCH  25  26
ENDBRANCH   8  25
TORSDOF 5
ENDMDL
MODEL 9
REMARK VINA RESULT:      -8.0      2.219      3.165
REMARK  5 active torsions:
REMARK  status: ('A' for Active; 'I' for Inactive)
REMARK    1  A    between atoms: C_2  and  C_3 
REMARK    2  A    between atoms: N_4  and  C_6 
REMARK    3  A    between atoms: C_6  and  C_7 
REMARK    4  A    between atoms: N_14  and  C_16 
REMARK    5  A    between atoms: C_16  and  C_17 
ROOT
HETATM    1  C   UNL     1     -43.630  58.244 -55.685  1.00  0.00    -0.032 A 
HETATM    2  C   UNL     1     -42.480  57.712 -55.061  1.00  0.00     0.020 A 
HETATM    3  C   UNL     1     -41.993  58.234 -53.845  1.00  0.00     0.002 A 
HETATM    4  C   UNL     1     -42.675  59.304 -53.266  1.00  0.00     0.076 A 
HETATM    5  O   UNL     1     -42.220  59.893 -52.122  1.00  0.00    -0.349 OA
HETATM    6  C   UNL     1     -42.409  59.054 -50.976  1.00  0.00     0.203 C 
HETATM    7  C   UNL     1     -41.185  58.166 -50.735  1.00  0.00     0.262 C 
HETATM    8  N   UNL     1     -41.002  57.089 -51.797  1.00  0.00    -0.061 N 
HETATM    9  H   UNL     1     -40.117  56.634 -51.543  1.00  0.00     0.280 HD
HETATM   10  C   UNL     1     -40.765  57.668 -53.179  1.00  0.00     0.276 C 
HETATM   11  C   UNL     1     -43.807  59.848 -53.866  1.00  0.00     0.038 A 
HETATM   12  C   UNL     1     -44.300  59.305 -55.054  1.00  0.00     0.011 A 
ENDROOT
BRANCH   1  13
HETATM   13  C   UNL     1     -44.154  57.623 -56.964  1.00  0.00     0.274 C 
BRANCH  13  14
HETATM   14  N   UNL     1     -43.219  57.673 -58.144  1.00  0.00    -0.053 N 
HETATM   15  C   UNL     1     -43.326  58.989 -58.976  1.00  0.00     0.279 C 
HETATM   16  C   UNL     1     -42.258  59.019 -60.092  1.00  0.00     0.248 C 
HETATM   17  N   UNL     1     -41.965  57.826 -60.704  1.00  0.00    -0.358 N 
HETATM   18  O   UNL     1     -41.736  60.060 -60.470  1.00  0.00    -0.271 OA
HETATM   19  C   UNL     1     -42.108  56.533 -60.058  1.00  0.00     0.150 C 
HETATM   20  H   UNL     1     -41.259  57.919 -61.435  1.00  0.00     0.162 HD
HETATM   21  C   UNL     1     -43.260  56.451 -59.048  1.00  0.00     0.256 C 
HETATM   22  H   UNL     1     -42.267  57.715 -57.765  1.00  0.00     0.281 HD
BRANCH  15  23
HETATM   23  C   UNL     1     -44.734  59.159 -59.569  1.00  0.00     0.038 C 
HETATM   24  C   UNL     1     -45.398  60.461 -59.131  1.00  0.00     0.007 C 
ENDBRANCH  15  23
ENDBRANCH  13  14
ENDBRANCH   1  13
BRANCH   8  25
HETATM   25  C   UNL     1     -42.036  55.987 -51.795  1.00  0.00     0.274 C 
BRANCH  25  26
HETATM   26  C   UNL     1     -41.594  54.717 -52.470  1.00  0.00    -0.029 A 
HETATM   27  C   UNL     1     -40.609  53.902 -51.890  1.00  0.00     0.054 A 
HETATM   28  C   UNL     1     -40.202  52.732 -52.532  1.00  0.00     0.155 A 
HETATM   29  F   UNL     1     -39.262  51.974 -51.956  1.00  0.00    -0.203 F 
HETATM   30  C   UNL     1     -40.761  52.361 -53.746  1.00  0.00     0.154 A 
HETATM   31  F   UNL     1     -40.368  51.239 -54.359  1.00  0.00    -0.203 F 
HETATM   32  C   UNL     1     -41.736  53.157 -54.337  1.00  0.00     0.046 A 
HETATM   33  C   UNL     1     -42.153  54.332 -53.703  1.00  0.00     0.012 A 
ENDBRANCH  25  26
ENDBRANCH   8  25
TORSDOF 5
ENDMDL
MODEL 10
REMARK VINA RESULT:      -7.9      3.484      7.761
REMARK  5 active torsions:
REMARK  status: ('A' for Active; 'I' for Inactive)
REMARK    1  A    between atoms: C_2  and  C_3 
REMARK    2  A    between atoms: N_4  and  C_6 
REMARK    3  A    between atoms: C_6  and  C_7 
REMARK    4  A    between atoms: N_14  and  C_16 
REMARK    5  A    between atoms: C_16  and  C_17 
ROOT
HETATM    1  C   UNL     1     -41.921  57.218 -54.506  1.00  0.00    -0.032 A 
HETATM    2  C   UNL     1     -43.153  57.347 -55.186  1.00  0.00     0.020 A 
HETATM    3  C   UNL     1     -43.777  58.602 -55.348  1.00  0.00     0.002 A 
HETATM    4  C   UNL     1     -43.149  59.726 -54.811  1.00  0.00     0.076 A 
HETATM    5  O   UNL     1     -43.730  60.959 -54.881  1.00  0.00    -0.349 OA
HETATM    6  C   UNL     1     -43.705  61.487 -56.212  1.00  0.00     0.203 C 
HETATM    7  C   UNL     1     -44.970  61.099 -56.982  1.00  0.00     0.262 C 
HETATM    8  N   UNL     1     -45.043  59.612 -57.312  1.00  0.00    -0.061 N 
HETATM    9  H   UNL     1     -45.963  59.499 -57.755  1.00  0.00     0.280 HD
HETATM   10  C   UNL     1     -45.091  58.742 -56.071  1.00  0.00     0.276 C 
HETATM   11  C   UNL     1     -41.937  59.620 -54.132  1.00  0.00     0.038 A 
HETATM   12  C   UNL     1     -41.312  58.379 -54.004  1.00  0.00     0.011 A 
ENDROOT
BRANCH   1  13
HETATM   13  C   UNL     1     -41.255  55.861 -54.397  1.00  0.00     0.274 C 
BRANCH  13  14
HETATM   14  N   UNL     1     -41.264  55.238 -53.026  1.00  0.00    -0.053 N 
HETATM   15  C   UNL     1     -40.541  53.857 -52.957  1.00  0.00     0.279 C 
HETATM   16  C   UNL     1     -40.485  53.340 -51.502  1.00  0.00     0.248 C 
HETATM   17  N   UNL     1     -41.574  53.600 -50.709  1.00  0.00    -0.358 N 
HETATM   18  O   UNL     1     -39.550  52.671 -51.081  1.00  0.00    -0.271 OA
HETATM   19  C   UNL     1     -42.455  54.739 -50.897  1.00  0.00     0.150 C 
HETATM   20  H   UNL     1     -41.475  53.224 -49.766  1.00  0.00     0.162 HD
HETATM   21  C   UNL     1     -42.629  55.173 -52.359  1.00  0.00     0.256 C 
HETATM   22  H   UNL     1     -40.683  55.834 -52.427  1.00  0.00     0.281 HD
BRANCH  15  23
HETATM   23  C   UNL     1     -41.221  52.827 -53.874  1.00  0.00     0.038 C 
HETATM   24  C   UNL     1     -40.262  51.739 -54.343  1.00  0.00     0.007 C 
ENDBRANCH  15  23
ENDBRANCH  13  14
ENDBRANCH   1  13
BRANCH   8  25
HETATM   25  C   UNL     1     -44.044  59.119 -58.333  1.00  0.00     0.274 C 
BRANCH  25  26
HETATM   26  C   UNL     1     -44.346  57.757 -58.894  1.00  0.00    -0.029 A 
HETATM   27  C   UNL     1     -45.630  57.446 -59.369  1.00  0.00     0.054 A 
HETATM   28  C   UNL     1     -45.900  56.175 -59.877  1.00  0.00     0.155 A 
HETATM   29  F   UNL     1     -47.132  55.907 -60.324  1.00  0.00    -0.203 F 
HETATM   30  C   UNL     1     -44.908  55.207 -59.919  1.00  0.00     0.154 A 
HETATM   31  F   UNL     1     -45.170  53.989 -60.406  1.00  0.00    -0.203 F 
HETATM   32  C   UNL     1     -43.631  55.495 -59.451  1.00  0.00     0.046 A 
HETATM   33  C   UNL     1     -43.348  56.766 -58.940  1.00  0.00     0.012 A 
ENDBRANCH  25  26
ENDBRANCH   8  25
TORSDOF 5
ENDMDL
