MODEL 1
REMARK VINA RESULT:      -8.7      0.000      0.000
REMARK  7 active torsions:
REMARK  status: ('A' for Active; 'I' for Inactive)
REMARK    1  A    between atoms: C_3  and  N_4 
REMARK       I    between atoms: N_4  and  C_5 
REMARK    2  A    between atoms: C_5  and  C_6 
REMARK       I    between atoms: C_6  and  N_7 
REMARK    3  A    between atoms: N_7  and  C_8 
REMARK    4  A    between atoms: C_8  and  C_9 
REMARK    5  A    between atoms: C_9  and  C_10 
REMARK    6  A    between atoms: C_12  and  O_13 
REMARK    7  A    between atoms: N_20  and  C_21 
ROOT
HETATM    1  N   UNL     1     -41.841  55.919 -55.245  1.00  0.00    -0.302 N 
HETATM    2  C   UNL     1     -43.111  56.429 -55.362  1.00  0.00     0.315 C 
HETATM    3  O   UNL     1     -44.085  56.335 -54.630  1.00  0.00    -0.262 OA
HETATM    4  H   UNL     1     -41.210  56.123 -56.012  1.00  0.00     0.171 HD
ENDROOT
BRANCH   2   5
HETATM    5  C   UNL     1     -43.254  57.237 -56.669  1.00  0.00     0.309 C 
HETATM    6  N   UNL     1     -42.131  57.225 -57.466  1.00  0.00    -0.353 N 
HETATM    7  H   UNL     1     -41.303  56.795 -57.059  1.00  0.00     0.162 HD
HETATM    8  O   UNL     1     -44.303  57.821 -56.905  1.00  0.00    -0.262 OA
BRANCH   6   9
HETATM    9  C   UNL     1     -42.051  58.020 -58.672  1.00  0.00     0.128 C 
BRANCH   9  10
HETATM   10  C   UNL     1     -42.190  57.169 -59.933  1.00  0.00     0.058 C 
BRANCH  10  11
HETATM   11  C   UNL     1     -43.554  56.532 -60.027  1.00  0.00    -0.054 A 
HETATM   12  C   UNL     1     -43.725  55.163 -59.772  1.00  0.00     0.043 A 
HETATM   13  C   UNL     1     -44.989  54.589 -59.894  1.00  0.00     0.066 A 
HETATM   14  C   UNL     1     -46.088  55.353 -60.269  1.00  0.00     0.036 A 
HETATM   15  C   UNL     1     -45.926  56.713 -60.526  1.00  0.00     0.003 A 
HETATM   16  C   UNL     1     -44.665  57.300 -60.409  1.00  0.00     0.007 A 
BRANCH  13  17
HETATM   17  O   UNL     1     -45.193  53.262 -59.656  1.00  0.00    -0.361 OA
HETATM   18  H   UNL     1     -45.754  53.169 -58.870  1.00  0.00     0.217 HD
ENDBRANCH  13  17
ENDBRANCH  10  11
ENDBRANCH   9  10
ENDBRANCH   6   9
ENDBRANCH   2   5
BRANCH   1  19
HETATM   19  C   UNL     1     -41.365  55.171 -54.197  1.00  0.00     0.158 A 
HETATM   20  C   UNL     1     -41.156  55.671 -52.890  1.00  0.00     0.003 A 
HETATM   21  C   UNL     1     -41.396  57.035 -52.360  1.00  0.00     0.054 C 
HETATM   22  C   UNL     1     -40.706  54.579 -52.177  1.00  0.00     0.129 A 
HETATM   23  N   UNL     1     -40.617  53.517 -53.045  1.00  0.00    -0.241 N 
HETATM   24  N   UNL     1     -41.066  53.879 -54.274  1.00  0.00    -0.149 NA
BRANCH  23  25
HETATM   25  C   UNL     1     -40.210  52.168 -52.810  1.00  0.00     0.079 A 
HETATM   26  C   UNL     1     -40.076  51.579 -51.543  1.00  0.00     0.062 A 
HETATM   27 CL   UNL     1     -40.181  52.409 -50.030  1.00  0.00    -0.082 Cl
HETATM   28  C   UNL     1     -39.723  50.222 -51.440  1.00  0.00     0.026 A 
HETATM   29  C   UNL     1     -39.487  49.449 -52.575  1.00  0.00     0.002 A 
HETATM   30  C   UNL     1     -39.583  50.031 -53.832  1.00  0.00     0.002 A 
HETATM   31  C   UNL     1     -39.933  51.377 -53.949  1.00  0.00     0.033 A 
ENDBRANCH  23  25
ENDBRANCH   1  19
TORSDOF 7
ENDMDL
MODEL 2
REMARK VINA RESULT:      -8.6      1.883      2.169
REMARK  7 active torsions:
REMARK  status: ('A' for Active; 'I' for Inactive)
REMARK    1  A    between atoms: C_3  and  N_4 
REMARK       I    between atoms: N_4  and  C_5 
REMARK    2  A    between atoms: C_5  and  C_6 
REMARK       I    between atoms: C_6  and  N_7 
REMARK    3  A    between atoms: N_7  and  C_8 
REMARK    4  A    between atoms: C_8  and  C_9 
REMARK    5  A    between atoms: C_9  and  C_10 
REMARK    6  A    between atoms: C_12  and  O_13 
REMARK    7  A    between atoms: N_20  and  C_21 
ROOT
HETATM    1  N   UNL     1     -42.512  57.340 -55.275  1.00  0.00    -0.302 N 
HETATM    2  C   UNL     1     -41.958  58.596 -55.223  1.00  0.00     0.315 C 
HETATM    3  O   UNL     1     -41.261  59.132 -54.374  1.00  0.00    -0.262 OA
HETATM    4  H   UNL     1     -43.079  57.140 -56.091  1.00  0.00     0.171 HD
ENDROOT
BRANCH   2   5
HETATM    5  C   UNL     1     -42.332  59.407 -56.481  1.00  0.00     0.309 C 
HETATM    6  N   UNL     1     -43.380  58.881 -57.202  1.00  0.00    -0.353 N 
HETATM    7  H   UNL     1     -43.709  57.965 -56.901  1.00  0.00     0.162 HD
HETATM    8  O   UNL     1     -41.699  60.418 -56.756  1.00  0.00    -0.262 OA
BRANCH   6   9
HETATM    9  C   UNL     1     -43.789  59.450 -58.467  1.00  0.00     0.128 C 
BRANCH   9  10
HETATM   10  C   UNL     1     -43.255  58.654 -59.657  1.00  0.00     0.058 C 
BRANCH  10  11
HETATM   11  C   UNL     1     -43.974  57.337 -59.813  1.00  0.00    -0.054 A 
HETATM   12  C   UNL     1     -45.372  57.291 -59.910  1.00  0.00     0.043 A 
HETATM   13  C   UNL     1     -46.018  56.061 -60.024  1.00  0.00     0.066 A 
HETATM   14  C   UNL     1     -45.296  54.874 -60.041  1.00  0.00     0.036 A 
HETATM   15  C   UNL     1     -43.906  54.911 -59.942  1.00  0.00     0.003 A 
HETATM   16  C   UNL     1     -43.247  56.136 -59.826  1.00  0.00     0.007 A 
BRANCH  13  17
HETATM   17  O   UNL     1     -47.376  55.977 -60.118  1.00  0.00    -0.361 OA
HETATM   18  H   UNL     1     -47.646  56.285 -60.997  1.00  0.00     0.217 HD
ENDBRANCH  13  17
ENDBRANCH  10  11
ENDBRANCH   9  10
ENDBRANCH   6   9
ENDBRANCH   2   5
BRANCH   1  19
HETATM   19  C   UNL     1     -42.365  56.353 -54.332  1.00  0.00     0.158 A 
HETATM   20  C   UNL     1     -43.074  56.306 -53.108  1.00  0.00     0.003 A 
HETATM   21  C   UNL     1     -44.094  57.243 -52.581  1.00  0.00     0.054 C 
HETATM   22  C   UNL     1     -42.633  55.146 -52.506  1.00  0.00     0.129 A 
HETATM   23  N   UNL     1     -41.683  54.581 -53.324  1.00  0.00    -0.241 N 
HETATM   24  N   UNL     1     -41.558  55.306 -54.465  1.00  0.00    -0.149 NA
BRANCH  23  25
HETATM   25  C   UNL     1     -40.927  53.380 -53.163  1.00  0.00     0.079 A 
HETATM   26  C   UNL     1     -40.250  53.009 -51.991  1.00  0.00     0.062 A 
HETATM   27 CL   UNL     1     -40.031  54.006 -50.595  1.00  0.00    -0.082 Cl
HETATM   28  C   UNL     1     -39.585  51.771 -51.932  1.00  0.00     0.026 A 
HETATM   29  C   UNL     1     -39.572  50.907 -53.026  1.00  0.00     0.002 A 
HETATM   30  C   UNL     1     -40.209  51.279 -54.201  1.00  0.00     0.002 A 
HETATM   31  C   UNL     1     -40.874  52.505 -54.272  1.00  0.00     0.033 A 
ENDBRANCH  23  25
ENDBRANCH   1  19
TORSDOF 7
ENDMDL
MODEL 3
REMARK VINA RESULT:      -8.6      3.315      8.172
REMARK  7 active torsions:
REMARK  status: ('A' for Active; 'I' for Inactive)
REMARK    1  A    between atoms: C_3  and  N_4 
REMARK       I    between atoms: N_4  and  C_5 
REMARK    2  A    between atoms: C_5  and  C_6 
REMARK       I    between atoms: C_6  and  N_7 
REMARK    3  A    between atoms: N_7  and  C_8 
REMARK    4  A    between atoms: C_8  and  C_9 
REMARK    5  A    between atoms: C_9  and  C_10 
REMARK    6  A    between atoms: C_12  and  O_13 
REMARK    7  A    between atoms: N_20  and  C_21 
ROOT
HETATM    1  N   UNL     1     -42.121  56.615 -53.700  1.00  0.00    -0.302 N 
HETATM    2  C   UNL     1     -42.758  56.779 -52.494  1.00  0.00     0.315 C 
HETATM    3  O   UNL     1     -43.760  57.411 -52.194  1.00  0.00    -0.262 OA
HETATM    4  H   UNL     1     -41.279  56.051 -53.682  1.00  0.00     0.171 HD
ENDROOT
BRANCH   2   5
HETATM    5  C   UNL     1     -42.016  56.013 -51.379  1.00  0.00     0.309 C 
HETATM    6  N   UNL     1     -41.857  54.668 -51.628  1.00  0.00    -0.353 N 
HETATM    7  H   UNL     1     -42.343  54.308 -52.447  1.00  0.00     0.162 HD
HETATM    8  O   UNL     1     -41.640  56.614 -50.382  1.00  0.00    -0.262 OA
BRANCH   6   9
HETATM    9  C   UNL     1     -41.285  53.778 -50.641  1.00  0.00     0.128 C 
BRANCH   9  10
HETATM   10  C   UNL     1     -39.877  53.324 -51.023  1.00  0.00     0.058 C 
BRANCH  10  11
HETATM   11  C   UNL     1     -39.907  52.242 -52.075  1.00  0.00    -0.054 A 
HETATM   12  C   UNL     1     -39.576  50.918 -51.751  1.00  0.00     0.043 A 
HETATM   13  C   UNL     1     -39.582  49.940 -52.744  1.00  0.00     0.066 A 
HETATM   14  C   UNL     1     -39.909  50.257 -54.057  1.00  0.00     0.036 A 
HETATM   15  C   UNL     1     -40.236  51.571 -54.387  1.00  0.00     0.003 A 
HETATM   16  C   UNL     1     -40.233  52.560 -53.402  1.00  0.00     0.007 A 
BRANCH  13  17
HETATM   17  O   UNL     1     -39.264  48.644 -52.466  1.00  0.00    -0.361 OA
HETATM   18  H   UNL     1     -38.732  48.291 -53.197  1.00  0.00     0.217 HD
ENDBRANCH  13  17
ENDBRANCH  10  11
ENDBRANCH   9  10
ENDBRANCH   6   9
ENDBRANCH   2   5
BRANCH   1  19
HETATM   19  C   UNL     1     -42.522  57.141 -54.903  1.00  0.00     0.158 A 
HETATM   20  C   UNL     1     -42.372  58.499 -55.270  1.00  0.00     0.003 A 
HETATM   21  C   UNL     1     -41.771  59.616 -54.501  1.00  0.00     0.054 C 
HETATM   22  C   UNL     1     -42.880  58.563 -56.551  1.00  0.00     0.129 A 
HETATM   23  N   UNL     1     -43.341  57.311 -56.883  1.00  0.00    -0.241 N 
HETATM   24  N   UNL     1     -43.076  56.434 -55.881  1.00  0.00    -0.149 NA
BRANCH  23  25
HETATM   25  C   UNL     1     -43.952  56.845 -58.088  1.00  0.00     0.079 A 
HETATM   26  C   UNL     1     -45.126  57.372 -58.649  1.00  0.00     0.062 A 
HETATM   27 CL   UNL     1     -46.163  58.538 -57.904  1.00  0.00    -0.082 Cl
HETATM   28  C   UNL     1     -45.600  56.868 -59.873  1.00  0.00     0.026 A 
HETATM   29  C   UNL     1     -44.933  55.839 -60.536  1.00  0.00     0.002 A 
HETATM   30  C   UNL     1     -43.791  55.288 -59.973  1.00  0.00     0.002 A 
HETATM   31  C   UNL     1     -43.308  55.780 -58.759  1.00  0.00     0.033 A 
ENDBRANCH  23  25
ENDBRANCH   1  19
TORSDOF 7
ENDMDL
MODEL 4
REMARK VINA RESULT:      -8.5      2.359      2.865
REMARK  7 active torsions:
REMARK  status: ('A' for Active; 'I' for Inactive)
REMARK    1  A    between atoms: C_3  and  N_4 
REMARK       I    between atoms: N_4  and  C_5 
REMARK    2  A    between atoms: C_5  and  C_6 
REMARK       I    between atoms: C_6  and  N_7 
REMARK    3  A    between atoms: N_7  and  C_8 
REMARK    4  A    between atoms: C_8  and  C_9 
REMARK    5  A    between atoms: C_9  and  C_10 
REMARK    6  A    between atoms: C_12  and  O_13 
REMARK    7  A    between atoms: N_20  and  C_21 
ROOT
HETATM    1  N   UNL     1     -42.453  57.945 -54.059  1.00  0.00    -0.302 N 
HETATM    2  C   UNL     1     -41.594  59.016 -54.089  1.00  0.00     0.315 C 
HETATM    3  O   UNL     1     -40.548  59.225 -53.492  1.00  0.00    -0.262 OA
HETATM    4  H   UNL     1     -43.279  58.024 -54.641  1.00  0.00     0.171 HD
ENDROOT
BRANCH   2   5
HETATM    5  C   UNL     1     -42.110  60.099 -55.059  1.00  0.00     0.309 C 
HETATM    6  N   UNL     1     -41.967  59.780 -56.390  1.00  0.00    -0.353 N 
HETATM    7  H   UNL     1     -41.436  58.934 -56.589  1.00  0.00     0.162 HD
HETATM    8  O   UNL     1     -42.584  61.134 -54.609  1.00  0.00    -0.262 OA
BRANCH   6   9
HETATM    9  C   UNL     1     -42.294  60.726 -57.435  1.00  0.00     0.128 C 
BRANCH   9  10
HETATM   10  C   UNL     1     -43.498  60.277 -58.261  1.00  0.00     0.058 C 
BRANCH  10  11
HETATM   11  C   UNL     1     -43.384  58.830 -58.671  1.00  0.00    -0.054 A 
HETATM   12  C   UNL     1     -42.264  58.371 -59.378  1.00  0.00     0.043 A 
HETATM   13  C   UNL     1     -42.192  57.036 -59.772  1.00  0.00     0.066 A 
HETATM   14  C   UNL     1     -43.220  56.148 -59.477  1.00  0.00     0.036 A 
HETATM   15  C   UNL     1     -44.338  56.597 -58.777  1.00  0.00     0.003 A 
HETATM   16  C   UNL     1     -44.423  57.932 -58.378  1.00  0.00     0.007 A 
BRANCH  13  17
HETATM   17  O   UNL     1     -41.119  56.555 -60.462  1.00  0.00    -0.361 OA
HETATM   18  H   UNL     1     -41.319  55.653 -60.758  1.00  0.00     0.217 HD
ENDBRANCH  13  17
ENDBRANCH  10  11
ENDBRANCH   9  10
ENDBRANCH   6   9
ENDBRANCH   2   5
BRANCH   1  19
HETATM   19  C   UNL     1     -42.289  56.799 -53.320  1.00  0.00     0.158 A 
HETATM   20  C   UNL     1     -42.947  56.538 -52.095  1.00  0.00     0.003 A 
HETATM   21  C   UNL     1     -43.923  57.378 -51.359  1.00  0.00     0.054 C 
HETATM   22  C   UNL     1     -42.509  55.281 -51.735  1.00  0.00     0.129 A 
HETATM   23  N   UNL     1     -41.607  54.862 -52.686  1.00  0.00    -0.241 N 
HETATM   24  N   UNL     1     -41.513  55.783 -53.679  1.00  0.00    -0.149 NA
BRANCH  23  25
HETATM   25  C   UNL     1     -40.872  53.641 -52.781  1.00  0.00     0.079 A 
HETATM   26  C   UNL     1     -40.106  53.081 -51.747  1.00  0.00     0.062 A 
HETATM   27 CL   UNL     1     -39.740  53.844 -50.238  1.00  0.00    -0.082 Cl
HETATM   28  C   UNL     1     -39.473  51.841 -51.940  1.00  0.00     0.026 A 
HETATM   29  C   UNL     1     -39.578  51.159 -53.152  1.00  0.00     0.002 A 
HETATM   30  C   UNL     1     -40.304  51.720 -54.193  1.00  0.00     0.002 A 
HETATM   31  C   UNL     1     -40.939  52.950 -54.013  1.00  0.00     0.033 A 
ENDBRANCH  23  25
ENDBRANCH   1  19
TORSDOF 7
ENDMDL
MODEL 5
REMARK VINA RESULT:      -8.4      4.300      9.631
REMARK  7 active torsions:
REMARK  status: ('A' for Active; 'I' for Inactive)
REMARK    1  A    between atoms: C_3  and  N_4 
REMARK       I    between atoms: N_4  and  C_5 
REMARK    2  A    between atoms: C_5  and  C_6 
REMARK       I    between atoms: C_6  and  N_7 
REMARK    3  A    between atoms: N_7  and  C_8 
REMARK    4  A    between atoms: C_8  and  C_9 
REMARK    5  A    between atoms: C_9  and  C_10 
REMARK    6  A    between atoms: C_12  and  O_13 
REMARK    7  A    between atoms: N_20  and  C_21 
ROOT
HETATM    1  N   UNL     1     -42.646  57.844 -56.696  1.00  0.00    -0.302 N 
HETATM    2  C   UNL     1     -42.806  56.512 -56.987  1.00  0.00     0.315 C 
HETATM    3  O   UNL     1     -43.093  55.946 -58.032  1.00  0.00    -0.262 OA
HETATM    4  H   UNL     1     -42.426  58.063 -55.731  1.00  0.00     0.171 HD
ENDROOT
BRANCH   2   5
HETATM    5  C   UNL     1     -42.576  55.649 -55.729  1.00  0.00     0.309 C 
HETATM    6  N   UNL     1     -41.256  55.536 -55.355  1.00  0.00    -0.353 N 
HETATM    7  H   UNL     1     -40.576  55.925 -56.005  1.00  0.00     0.162 HD
HETATM    8  O   UNL     1     -43.534  55.132 -55.170  1.00  0.00    -0.262 OA
BRANCH   6   9
HETATM    9  C   UNL     1     -40.849  54.675 -54.266  1.00  0.00     0.128 C 
BRANCH   9  10
HETATM   10  C   UNL     1     -40.467  53.277 -54.749  1.00  0.00     0.058 C 
BRANCH  10  11
HETATM   11  C   UNL     1     -40.142  52.360 -53.596  1.00  0.00    -0.054 A 
HETATM   12  C   UNL     1     -39.861  51.004 -53.816  1.00  0.00     0.043 A 
HETATM   13  C   UNL     1     -39.592  50.167 -52.734  1.00  0.00     0.066 A 
HETATM   14  C   UNL     1     -39.601  50.657 -51.433  1.00  0.00     0.036 A 
HETATM   15  C   UNL     1     -39.883  52.002 -51.206  1.00  0.00     0.003 A 
HETATM   16  C   UNL     1     -40.155  52.850 -52.281  1.00  0.00     0.007 A 
BRANCH  13  17
HETATM   17  O   UNL     1     -39.316  48.844 -52.910  1.00  0.00    -0.361 OA
HETATM   18  H   UNL     1     -39.387  48.634 -53.854  1.00  0.00     0.217 HD
ENDBRANCH  13  17
ENDBRANCH  10  11
ENDBRANCH   9  10
ENDBRANCH   6   9
ENDBRANCH   2   5
BRANCH   1  19
HETATM   19  C   UNL     1     -42.757  58.884 -57.586  1.00  0.00     0.158 A 
HETATM   20  C   UNL     1     -43.984  59.375 -58.090  1.00  0.00     0.003 A 
HETATM   21  C   UNL     1     -45.366  58.926 -57.793  1.00  0.00     0.054 C 
HETATM   22  C   UNL     1     -43.619  60.420 -58.913  1.00  0.00     0.129 A 
HETATM   23  N   UNL     1     -42.245  60.494 -58.916  1.00  0.00    -0.241 N 
HETATM   24  N   UNL     1     -41.727  59.574 -58.062  1.00  0.00    -0.149 NA
BRANCH  23  25
HETATM   25  C   UNL     1     -41.374  61.396 -59.598  1.00  0.00     0.079 A 
HETATM   26  C   UNL     1     -41.370  61.615 -60.985  1.00  0.00     0.062 A 
HETATM   27 CL   UNL     1     -42.268  60.706 -62.151  1.00  0.00    -0.082 Cl
HETATM   28  C   UNL     1     -40.503  62.575 -61.537  1.00  0.00     0.026 A 
HETATM   29  C   UNL     1     -39.630  63.305 -60.733  1.00  0.00     0.002 A 
HETATM   30  C   UNL     1     -39.601  63.072 -59.365  1.00  0.00     0.002 A 
HETATM   31  C   UNL     1     -40.458  62.123 -58.804  1.00  0.00     0.033 A 
ENDBRANCH  23  25
ENDBRANCH   1  19
TORSDOF 7
ENDMDL
MODEL 6
REMARK VINA RESULT:      -8.4      5.148      8.457
REMARK  7 active torsions:
REMARK  status: ('A' for Active; 'I' for Inactive)
REMARK    1  A    between atoms: C_3  and  N_4 
REMARK       I    between atoms: N_4  and  C_5 
REMARK    2  A    between atoms: C_5  and  C_6 
REMARK       I    between atoms: C_6  and  N_7 
REMARK    3  A    between atoms: N_7  and  C_8 
REMARK    4  A    between atoms: C_8  and  C_9 
REMARK    5  A    between atoms: C_9  and  C_10 
REMARK    6  A    between atoms: C_12  and  O_13 
REMARK    7  A    between atoms: N_20  and  C_21 
ROOT
HETATM    1  N   UNL     1     -43.484  56.447 -52.263  1.00  0.00    -0.302 N 
HETATM    2  C   UNL     1     -43.227  57.454 -51.364  1.00  0.00     0.315 C 
HETATM    3  O   UNL     1     -42.173  57.885 -50.920  1.00  0.00    -0.262 OA
HETATM    4  H   UNL     1     -44.463  56.264 -52.454  1.00  0.00     0.171 HD
ENDROOT
BRANCH   2   5
HETATM    5  C   UNL     1     -44.542  58.093 -50.873  1.00  0.00     0.309 C 
HETATM    6  N   UNL     1     -44.450  59.441 -50.606  1.00  0.00    -0.353 N 
HETATM    7  H   UNL     1     -43.512  59.837 -50.643  1.00  0.00     0.162 HD
HETATM    8  O   UNL     1     -45.541  57.397 -50.747  1.00  0.00    -0.262 OA
BRANCH   6   9
HETATM    9  C   UNL     1     -45.555  60.176 -50.031  1.00  0.00     0.128 C 
BRANCH   9  10
HETATM   10  C   UNL     1     -45.184  61.625 -49.722  1.00  0.00     0.058 C 
BRANCH  10  11
HETATM   11  C   UNL     1     -45.157  61.888 -48.237  1.00  0.00    -0.054 A 
HETATM   12  C   UNL     1     -45.078  60.827 -47.323  1.00  0.00     0.043 A 
HETATM   13  C   UNL     1     -45.084  61.091 -45.954  1.00  0.00     0.066 A 
HETATM   14  C   UNL     1     -45.170  62.394 -45.478  1.00  0.00     0.036 A 
HETATM   15  C   UNL     1     -45.252  63.453 -46.379  1.00  0.00     0.003 A 
HETATM   16  C   UNL     1     -45.248  63.202 -47.753  1.00  0.00     0.007 A 
BRANCH  13  17
HETATM   17  O   UNL     1     -45.010  60.085 -45.036  1.00  0.00    -0.361 OA
HETATM   18  H   UNL     1     -44.150  59.646 -45.124  1.00  0.00     0.217 HD
ENDBRANCH  13  17
ENDBRANCH  10  11
ENDBRANCH   9  10
ENDBRANCH   6   9
ENDBRANCH   2   5
BRANCH   1  19
HETATM   19  C   UNL     1     -42.545  55.684 -52.911  1.00  0.00     0.158 A 
HETATM   20  C   UNL     1     -41.844  56.095 -54.070  1.00  0.00     0.003 A 
HETATM   21  C   UNL     1     -41.937  57.373 -54.816  1.00  0.00     0.054 C 
HETATM   22  C   UNL     1     -41.000  55.041 -54.348  1.00  0.00     0.129 A 
HETATM   23  N   UNL     1     -41.238  54.054 -53.420  1.00  0.00    -0.241 N 
HETATM   24  N   UNL     1     -42.157  54.477 -52.514  1.00  0.00    -0.149 NA
BRANCH  23  25
HETATM   25  C   UNL     1     -40.631  52.770 -53.265  1.00  0.00     0.079 A 
HETATM   26  C   UNL     1     -39.973  52.327 -52.107  1.00  0.00     0.062 A 
HETATM   27 CL   UNL     1     -39.595  53.301 -50.728  1.00  0.00    -0.082 Cl
HETATM   28  C   UNL     1     -39.465  51.018 -52.052  1.00  0.00     0.026 A 
HETATM   29  C   UNL     1     -39.587  50.151 -53.137  1.00  0.00     0.002 A 
HETATM   30  C   UNL     1     -40.206  50.590 -54.299  1.00  0.00     0.002 A 
HETATM   31  C   UNL     1     -40.716  51.887 -54.366  1.00  0.00     0.033 A 
ENDBRANCH  23  25
ENDBRANCH   1  19
TORSDOF 7
ENDMDL
MODEL 7
REMARK VINA RESULT:      -8.0      5.535      7.439
REMARK  7 active torsions:
REMARK  status: ('A' for Active; 'I' for Inactive)
REMARK    1  A    between atoms: C_3  and  N_4 
REMARK       I    between atoms: N_4  and  C_5 
REMARK    2  A    between atoms: C_5  and  C_6 
REMARK       I    between atoms: C_6  and  N_7 
REMARK    3  A    between atoms: N_7  and  C_8 
REMARK    4  A    between atoms: C_8  and  C_9 
REMARK    5  A    between atoms: C_9  and  C_10 
REMARK    6  A    between atoms: C_12  and  O_13 
REMARK    7  A    between atoms: N_20  and  C_21 
ROOT
HETATM    1  N   UNL     1     -40.757  56.119 -50.696  1.00  0.00    -0.302 N 
HETATM    2  C   UNL     1     -41.919  56.762 -51.044  1.00  0.00     0.315 C 
HETATM    3  O   UNL     1     -42.988  56.329 -51.449  1.00  0.00    -0.262 OA
HETATM    4  H   UNL     1     -39.990  56.715 -50.407  1.00  0.00     0.171 HD
ENDROOT
BRANCH   2   5
HETATM    5  C   UNL     1     -41.766  58.288 -50.876  1.00  0.00     0.309 C 
HETATM    6  N   UNL     1     -42.507  59.031 -51.768  1.00  0.00    -0.353 N 
HETATM    7  H   UNL     1     -42.972  58.505 -52.505  1.00  0.00     0.162 HD
HETATM    8  O   UNL     1     -41.023  58.728 -50.009  1.00  0.00    -0.262 OA
BRANCH   6   9
HETATM    9  C   UNL     1     -42.398  60.473 -51.826  1.00  0.00     0.128 C 
BRANCH   9  10
HETATM   10  C   UNL     1     -43.765  61.154 -51.824  1.00  0.00     0.058 C 
BRANCH  10  11
HETATM   11  C   UNL     1     -44.234  61.459 -50.423  1.00  0.00    -0.054 A 
HETATM   12  C   UNL     1     -44.924  60.496 -49.672  1.00  0.00     0.043 A 
HETATM   13  C   UNL     1     -45.374  60.809 -48.391  1.00  0.00     0.066 A 
HETATM   14  C   UNL     1     -45.151  62.066 -47.842  1.00  0.00     0.036 A 
HETATM   15  C   UNL     1     -44.468  63.029 -48.582  1.00  0.00     0.003 A 
HETATM   16  C   UNL     1     -44.014  62.730 -49.868  1.00  0.00     0.007 A 
BRANCH  13  17
HETATM   17  O   UNL     1     -46.049  59.899 -47.633  1.00  0.00    -0.361 OA
HETATM   18  H   UNL     1     -45.567  59.058 -47.653  1.00  0.00     0.217 HD
ENDBRANCH  13  17
ENDBRANCH  10  11
ENDBRANCH   9  10
ENDBRANCH   6   9
ENDBRANCH   2   5
BRANCH   1  19
HETATM   19  C   UNL     1     -40.552  54.761 -50.706  1.00  0.00     0.158 A 
HETATM   20  C   UNL     1     -40.513  53.951 -49.546  1.00  0.00     0.003 A 
HETATM   21  C   UNL     1     -40.685  54.341 -48.126  1.00  0.00     0.054 C 
HETATM   22  C   UNL     1     -40.315  52.675 -50.030  1.00  0.00     0.129 A 
HETATM   23  N   UNL     1     -40.200  52.756 -51.398  1.00  0.00    -0.241 N 
HETATM   24  N   UNL     1     -40.392  54.036 -51.807  1.00  0.00    -0.149 NA
BRANCH  23  25
HETATM   25  C   UNL     1     -39.992  51.727 -52.366  1.00  0.00     0.079 A 
HETATM   26  C   UNL     1     -39.719  50.384 -52.065  1.00  0.00     0.062 A 
HETATM   27 CL   UNL     1     -39.387  49.752 -50.489  1.00  0.00    -0.082 Cl
HETATM   28  C   UNL     1     -39.591  49.448 -53.106  1.00  0.00     0.026 A 
HETATM   29  C   UNL     1     -39.714  49.832 -54.440  1.00  0.00     0.002 A 
HETATM   30  C   UNL     1     -39.949  51.164 -54.751  1.00  0.00     0.002 A 
HETATM   31  C   UNL     1     -40.080  52.103 -53.726  1.00  0.00     0.033 A 
ENDBRANCH  23  25
ENDBRANCH   1  19
TORSDOF 7
ENDMDL
MODEL 8
REMARK VINA RESULT:      -7.9      4.051      9.877
REMARK  7 active torsions:
REMARK  status: ('A' for Active; 'I' for Inactive)
REMARK    1  A    between atoms: C_3  and  N_4 
REMARK       I    between atoms: N_4  and  C_5 
REMARK    2  A    between atoms: C_5  and  C_6 
REMARK       I    between atoms: C_6  and  N_7 
REMARK    3  A    between atoms: N_7  and  C_8 
REMARK    4  A    between atoms: C_8  and  C_9 
REMARK    5  A    between atoms: C_9  and  C_10 
REMARK    6  A    between atoms: C_12  and  O_13 
REMARK    7  A    between atoms: N_20  and  C_21 
ROOT
HETATM    1  N   UNL     1     -43.974  56.552 -57.629  1.00  0.00    -0.302 N 
HETATM    2  C   UNL     1     -42.755  57.157 -57.442  1.00  0.00     0.315 C 
HETATM    3  O   UNL     1     -42.109  57.903 -58.162  1.00  0.00    -0.262 OA
HETATM    4  H   UNL     1     -44.290  55.950 -56.877  1.00  0.00     0.171 HD
ENDROOT
BRANCH   2   5
HETATM    5  C   UNL     1     -42.162  56.771 -56.071  1.00  0.00     0.309 C 
HETATM    6  N   UNL     1     -41.457  55.589 -56.073  1.00  0.00    -0.353 N 
HETATM    7  H   UNL     1     -41.504  55.045 -56.933  1.00  0.00     0.162 HD
HETATM    8  O   UNL     1     -42.353  57.498 -55.105  1.00  0.00    -0.262 OA
BRANCH   6   9
HETATM    9  C   UNL     1     -40.929  55.020 -54.852  1.00  0.00     0.128 C 
BRANCH   9  10
HETATM   10  C   UNL     1     -41.772  53.849 -54.349  1.00  0.00     0.058 C 
BRANCH  10  11
HETATM   11  C   UNL     1     -40.921  52.799 -53.678  1.00  0.00    -0.054 A 
HETATM   12  C   UNL     1     -40.572  51.621 -54.353  1.00  0.00     0.043 A 
HETATM   13  C   UNL     1     -39.811  50.650 -53.704  1.00  0.00     0.066 A 
HETATM   14  C   UNL     1     -39.393  50.830 -52.391  1.00  0.00     0.036 A 
HETATM   15  C   UNL     1     -39.738  51.997 -51.712  1.00  0.00     0.003 A 
HETATM   16  C   UNL     1     -40.501  52.976 -52.351  1.00  0.00     0.007 A 
BRANCH  13  17
HETATM   17  O   UNL     1     -39.454  49.492 -54.328  1.00  0.00    -0.361 OA
HETATM   18  H   UNL     1     -39.906  49.448 -55.185  1.00  0.00     0.217 HD
ENDBRANCH  13  17
ENDBRANCH  10  11
ENDBRANCH   9  10
ENDBRANCH   6   9
ENDBRANCH   2   5
BRANCH   1  19
HETATM   19  C   UNL     1     -44.785  56.695 -58.727  1.00  0.00     0.158 A 
HETATM   20  C   UNL     1     -45.027  55.674 -59.678  1.00  0.00     0.003 A 
HETATM   21  C   UNL     1     -44.507  54.286 -59.714  1.00  0.00     0.054 C 
HETATM   22  C   UNL     1     -45.908  56.246 -60.573  1.00  0.00     0.129 A 
HETATM   23  N   UNL     1     -46.124  57.546 -60.178  1.00  0.00    -0.241 N 
HETATM   24  N   UNL     1     -45.465  57.798 -59.019  1.00  0.00    -0.149 NA
BRANCH  23  25
HETATM   25  C   UNL     1     -46.949  58.558 -60.757  1.00  0.00     0.079 A 
HETATM   26  C   UNL     1     -48.060  58.315 -61.580  1.00  0.00     0.062 A 
HETATM   27 CL   UNL     1     -48.529  56.774 -62.211  1.00  0.00    -0.082 Cl
HETATM   28  C   UNL     1     -48.833  59.393 -62.044  1.00  0.00     0.026 A 
HETATM   29  C   UNL     1     -48.506  60.708 -61.717  1.00  0.00     0.002 A 
HETATM   30  C   UNL     1     -47.389  60.962 -60.933  1.00  0.00     0.002 A 
HETATM   31  C   UNL     1     -46.615  59.900 -60.464  1.00  0.00     0.033 A 
ENDBRANCH  23  25
ENDBRANCH   1  19
TORSDOF 7
ENDMDL
MODEL 9
REMARK VINA RESULT:      -7.9      4.934      6.046
REMARK  7 active torsions:
REMARK  status: ('A' for Active; 'I' for Inactive)
REMARK    1  A    between atoms: C_3  and  N_4 
REMARK       I    between atoms: N_4  and  C_5 
REMARK    2  A    between atoms: C_5  and  C_6 
REMARK       I    between atoms: C_6  and  N_7 
REMARK    3  A    between atoms: N_7  and  C_8 
REMARK    4  A    between atoms: C_8  and  C_9 
REMARK    5  A    between atoms: C_9  and  C_10 
REMARK    6  A    between atoms: C_12  and  O_13 
REMARK    7  A    between atoms: N_20  and  C_21 
ROOT
HETATM    1  N   UNL     1     -42.787  55.854 -51.588  1.00  0.00    -0.302 N 
HETATM    2  C   UNL     1     -44.008  55.957 -50.968  1.00  0.00     0.315 C 
HETATM    3  O   UNL     1     -44.576  55.212 -50.182  1.00  0.00    -0.262 OA
HETATM    4  H   UNL     1     -42.549  56.606 -52.225  1.00  0.00     0.171 HD
ENDROOT
BRANCH   2   5
HETATM    5  C   UNL     1     -44.727  57.253 -51.395  1.00  0.00     0.309 C 
HETATM    6  N   UNL     1     -44.433  57.667 -52.675  1.00  0.00    -0.353 N 
HETATM    7  H   UNL     1     -43.695  57.151 -53.149  1.00  0.00     0.162 HD
HETATM    8  O   UNL     1     -45.473  57.817 -50.606  1.00  0.00    -0.262 OA
BRANCH   6   9
HETATM    9  C   UNL     1     -44.931  58.920 -53.198  1.00  0.00     0.128 C 
BRANCH   9  10
HETATM   10  C   UNL     1     -44.061  60.105 -52.780  1.00  0.00     0.058 C 
BRANCH  10  11
HETATM   11  C   UNL     1     -42.644  59.679 -52.486  1.00  0.00    -0.054 A 
HETATM   12  C   UNL     1     -42.117  59.789 -51.191  1.00  0.00     0.043 A 
HETATM   13  C   UNL     1     -40.796  59.418 -50.947  1.00  0.00     0.066 A 
HETATM   14  C   UNL     1     -39.988  58.940 -51.972  1.00  0.00     0.036 A 
HETATM   15  C   UNL     1     -40.503  58.831 -53.262  1.00  0.00     0.003 A 
HETATM   16  C   UNL     1     -41.824  59.201 -53.519  1.00  0.00     0.007 A 
BRANCH  13  17
HETATM   17  O   UNL     1     -40.249  59.513 -49.702  1.00  0.00    -0.361 OA
HETATM   18  H   UNL     1     -40.009  58.623 -49.399  1.00  0.00     0.217 HD
ENDBRANCH  13  17
ENDBRANCH  10  11
ENDBRANCH   9  10
ENDBRANCH   6   9
ENDBRANCH   2   5
BRANCH   1  19
HETATM   19  C   UNL     1     -41.879  54.838 -51.419  1.00  0.00     0.158 A 
HETATM   20  C   UNL     1     -41.070  54.674 -50.269  1.00  0.00     0.003 A 
HETATM   21  C   UNL     1     -41.016  55.498 -49.037  1.00  0.00     0.054 C 
HETATM   22  C   UNL     1     -40.348  53.527 -50.523  1.00  0.00     0.129 A 
HETATM   23  N   UNL     1     -40.693  53.082 -51.778  1.00  0.00    -0.241 N 
HETATM   24  N   UNL     1     -41.667  53.869 -52.302  1.00  0.00    -0.149 NA
BRANCH  23  25
HETATM   25  C   UNL     1     -40.237  51.941 -52.507  1.00  0.00     0.079 A 
HETATM   26  C   UNL     1     -39.977  50.681 -51.946  1.00  0.00     0.062 A 
HETATM   27 CL   UNL     1     -39.965  50.313 -50.256  1.00  0.00    -0.082 Cl
HETATM   28  C   UNL     1     -39.588  49.615 -52.777  1.00  0.00     0.026 A 
HETATM   29  C   UNL     1     -39.437  49.790 -54.151  1.00  0.00     0.002 A 
HETATM   30  C   UNL     1     -39.658  51.040 -54.711  1.00  0.00     0.002 A 
HETATM   31  C   UNL     1     -40.047  52.106 -53.898  1.00  0.00     0.033 A 
ENDBRANCH  23  25
ENDBRANCH   1  19
TORSDOF 7
ENDMDL
MODEL 10
REMARK VINA RESULT:      -7.8      3.914      4.973
REMARK  7 active torsions:
REMARK  status: ('A' for Active; 'I' for Inactive)
REMARK    1  A    between atoms: C_3  and  N_4 
REMARK       I    between atoms: N_4  and  C_5 
REMARK    2  A    between atoms: C_5  and  C_6 
REMARK       I    between atoms: C_6  and  N_7 
REMARK    3  A    between atoms: N_7  and  C_8 
REMARK    4  A    between atoms: C_8  and  C_9 
REMARK    5  A    between atoms: C_9  and  C_10 
REMARK    6  A    between atoms: C_12  and  O_13 
REMARK    7  A    between atoms: N_20  and  C_21 
ROOT
HETATM    1  N   UNL     1     -42.431  58.025 -53.826  1.00  0.00    -0.302 N 
HETATM    2  C   UNL     1     -41.789  59.196 -53.506  1.00  0.00     0.315 C 
HETATM    3  O   UNL     1     -41.012  59.465 -52.601  1.00  0.00    -0.262 OA
HETATM    4  H   UNL     1     -43.053  58.065 -54.625  1.00  0.00     0.171 HD
ENDROOT
BRANCH   2   5
HETATM    5  C   UNL     1     -42.171  60.314 -54.497  1.00  0.00     0.309 C 
HETATM    6  N   UNL     1     -41.977  59.986 -55.821  1.00  0.00    -0.353 N 
HETATM    7  H   UNL     1     -41.497  59.105 -55.993  1.00  0.00     0.162 HD
HETATM    8  O   UNL     1     -42.595  61.380 -54.071  1.00  0.00    -0.262 OA
BRANCH   6   9
HETATM    9  C   UNL     1     -42.177  60.954 -56.877  1.00  0.00     0.128 C 
BRANCH   9  10
HETATM   10  C   UNL     1     -41.996  60.338 -58.264  1.00  0.00     0.058 C 
BRANCH  10  11
HETATM   11  C   UNL     1     -41.266  61.273 -59.197  1.00  0.00    -0.054 A 
HETATM   12  C   UNL     1     -40.310  62.174 -58.705  1.00  0.00     0.043 A 
HETATM   13  C   UNL     1     -39.669  63.049 -59.580  1.00  0.00     0.066 A 
HETATM   14  C   UNL     1     -39.965  63.046 -60.938  1.00  0.00     0.036 A 
HETATM   15  C   UNL     1     -40.917  62.157 -61.433  1.00  0.00     0.003 A 
HETATM   16  C   UNL     1     -41.567  61.276 -60.567  1.00  0.00     0.007 A 
BRANCH  13  17
HETATM   17  O   UNL     1     -38.735  63.939 -59.138  1.00  0.00    -0.361 OA
HETATM   18  H   UNL     1     -39.154  64.809 -59.046  1.00  0.00     0.217 HD
ENDBRANCH  13  17
ENDBRANCH  10  11
ENDBRANCH   9  10
ENDBRANCH   6   9
ENDBRANCH   2   5
BRANCH   1  19
HETATM   19  C   UNL     1     -42.303  56.827 -53.166  1.00  0.00     0.158 A 
HETATM   20  C   UNL     1     -43.047  56.466 -52.018  1.00  0.00     0.003 A 
HETATM   21  C   UNL     1     -44.090  57.235 -51.297  1.00  0.00     0.054 C 
HETATM   22  C   UNL     1     -42.615  55.189 -51.722  1.00  0.00     0.129 A 
HETATM   23  N   UNL     1     -41.638  54.855 -52.630  1.00  0.00    -0.241 N 
HETATM   24  N   UNL     1     -41.485  55.851 -53.540  1.00  0.00    -0.149 NA
BRANCH  23  25
HETATM   25  C   UNL     1     -40.877  53.653 -52.762  1.00  0.00     0.079 A 
HETATM   26  C   UNL     1     -40.081  53.091 -51.751  1.00  0.00     0.062 A 
HETATM   27 CL   UNL     1     -39.708  53.832 -50.234  1.00  0.00    -0.082 Cl
HETATM   28  C   UNL     1     -39.423  51.870 -51.980  1.00  0.00     0.026 A 
HETATM   29  C   UNL     1     -39.532  51.210 -53.203  1.00  0.00     0.002 A 
HETATM   30  C   UNL     1     -40.289  51.774 -54.221  1.00  0.00     0.002 A 
HETATM   31  C   UNL     1     -40.948  52.986 -54.006  1.00  0.00     0.033 A 
ENDBRANCH  23  25
ENDBRANCH   1  19
TORSDOF 7
ENDMDL
