MODEL 1
REMARK VINA RESULT:      -7.8      0.000      0.000
REMARK  10 active torsions:
REMARK  status: ('A' for Active; 'I' for Inactive)
REMARK    1  A    between atoms: C_6  and  N_7 
REMARK    2  A    between atoms: C_8  and  S_9 
REMARK    3  A    between atoms: S_9  and  C_10 
REMARK    4  A    between atoms: C_10  and  C_11 
REMARK       I    between atoms: C_11  and  N_12 
REMARK    5  A    between atoms: N_12  and  C_13 
REMARK    6  A    between atoms: C_13  and  C_14 
REMARK    7  A    between atoms: C_14  and  C_15 
REMARK    8  A    between atoms: C_18  and  S_19 
REMARK    9  A    between atoms: S_19  and  N_20 
REMARK   10  A    between atoms: C_29  and  N_30 
ROOT
HETATM    1  N   UNL     1     -42.706  56.908 -56.135  1.00  0.00    -0.276 N 
HETATM    2  C   UNL     1     -42.397  58.126 -56.664  1.00  0.00     0.177 A 
HETATM    3  N   UNL     1     -42.438  58.434 -57.973  1.00  0.00    -0.204 NA
HETATM    4  C   UNL     1     -42.899  57.425 -58.712  1.00  0.00     0.162 A 
HETATM    5  C   UNL     1     -43.286  56.180 -58.260  1.00  0.00     0.081 A 
HETATM    6  C   UNL     1     -43.164  55.872 -56.894  1.00  0.00     0.124 A 
HETATM    7  N   UNL     1     -43.098  57.440 -60.062  1.00  0.00    -0.260 N 
HETATM    8  H   UNL     1     -42.920  58.201 -60.712  1.00  0.00     0.191 HD
HETATM    9  N   UNL     1     -43.606  56.288 -60.528  1.00  0.00    -0.177 NA
HETATM   10  C   UNL     1     -43.743  55.520 -59.441  1.00  0.00     0.068 A 
HETATM   11  C   UNL     1     -44.332  54.163 -59.582  1.00  0.00     0.073 C 
ENDROOT
BRANCH   2  12
HETATM   12  S   UNL     1     -42.092  59.538 -55.602  1.00  0.00    -0.082 SA
BRANCH  12  13
HETATM   13  C   UNL     1     -43.539  60.575 -55.990  1.00  0.00     0.185 C 
BRANCH  13  14
HETATM   14  C   UNL     1     -44.701  60.164 -55.108  1.00  0.00     0.227 C 
HETATM   15  N   UNL     1     -45.807  59.594 -55.671  1.00  0.00    -0.360 N 
HETATM   16  H   UNL     1     -46.552  59.456 -54.993  1.00  0.00     0.162 HD
HETATM   17  O   UNL     1     -44.660  60.336 -53.890  1.00  0.00    -0.273 OA
BRANCH  15  18
HETATM   18  C   UNL     1     -46.161  59.538 -57.083  1.00  0.00     0.127 C 
BRANCH  18  19
HETATM   19  C   UNL     1     -46.346  58.109 -57.608  1.00  0.00     0.058 C 
BRANCH  19  20
HETATM   20  C   UNL     1     -46.869  58.070 -59.026  1.00  0.00    -0.057 A 
HETATM   21  C   UNL     1     -47.262  59.247 -59.680  1.00  0.00     0.009 A 
HETATM   22  C   UNL     1     -47.805  59.197 -60.965  1.00  0.00     0.025 A 
HETATM   23  C   UNL     1     -47.938  57.964 -61.609  1.00  0.00     0.074 A 
HETATM   24  C   UNL     1     -47.538  56.785 -60.977  1.00  0.00     0.025 A 
HETATM   25  C   UNL     1     -47.000  56.840 -59.691  1.00  0.00     0.009 A 
BRANCH  23  26
HETATM   26  S   UNL     1     -48.701  57.888 -63.204  1.00  0.00     0.239 S 
HETATM   27  O   UNL     1     -50.111  57.624 -63.041  1.00  0.00    -0.206 OA
HETATM   28  O   UNL     1     -48.205  58.980 -64.011  1.00  0.00    -0.206 OA
BRANCH  26  29
HETATM   29  N   UNL     1     -48.033  56.491 -63.846  1.00  0.00    -0.225 NA
HETATM   30  H   UNL     1     -47.057  56.658 -64.098  1.00  0.00     0.136 HD
HETATM   31  H   UNL     1     -48.156  55.715 -63.193  1.00  0.00     0.136 HD
ENDBRANCH  26  29
ENDBRANCH  23  26
ENDBRANCH  19  20
ENDBRANCH  18  19
ENDBRANCH  15  18
ENDBRANCH  13  14
ENDBRANCH  12  13
ENDBRANCH   2  12
BRANCH   1  32
HETATM   32  C   UNL     1     -42.537  56.701 -54.722  1.00  0.00     0.045 A 
HETATM   33  C   UNL     1     -43.585  57.012 -53.862  1.00  0.00     0.054 A 
HETATM   34  C   UNL     1     -43.393  56.834 -52.492  1.00  0.00     0.042 A 
HETATM   35  C   UNL     1     -42.169  56.348 -51.991  1.00  0.00    -0.040 A 
HETATM   36 CL   UNL     1     -44.702  57.233 -51.444  1.00  0.00    -0.084 Cl
HETATM   37  C   UNL     1     -41.939  56.158 -50.515  1.00  0.00     0.050 C 
HETATM   38  C   UNL     1     -41.139  56.027 -52.894  1.00  0.00     0.011 A 
HETATM   39  C   UNL     1     -41.317  56.198 -54.264  1.00  0.00     0.031 A 
ENDBRANCH   1  32
BRANCH   6  40
HETATM   40  N   UNL     1     -43.481  54.628 -56.368  1.00  0.00    -0.384 N 
HETATM   41  H   UNL     1     -43.191  53.794 -56.869  1.00  0.00     0.157 HD
HETATM   42  H   UNL     1     -43.701  54.479 -55.391  1.00  0.00     0.157 HD
ENDBRANCH   6  40
TORSDOF 10
ENDMDL
MODEL 2
REMARK VINA RESULT:      -7.7      4.641      8.694
REMARK  10 active torsions:
REMARK  status: ('A' for Active; 'I' for Inactive)
REMARK    1  A    between atoms: C_6  and  N_7 
REMARK    2  A    between atoms: C_8  and  S_9 
REMARK    3  A    between atoms: S_9  and  C_10 
REMARK    4  A    between atoms: C_10  and  C_11 
REMARK       I    between atoms: C_11  and  N_12 
REMARK    5  A    between atoms: N_12  and  C_13 
REMARK    6  A    between atoms: C_13  and  C_14 
REMARK    7  A    between atoms: C_14  and  C_15 
REMARK    8  A    between atoms: C_18  and  S_19 
REMARK    9  A    between atoms: S_19  and  N_20 
REMARK   10  A    between atoms: C_29  and  N_30 
ROOT
HETATM    1  N   UNL     1     -42.354  59.347 -58.884  1.00  0.00    -0.276 N 
HETATM    2  C   UNL     1     -42.064  59.632 -57.582  1.00  0.00     0.177 A 
HETATM    3  N   UNL     1     -41.383  60.712 -57.160  1.00  0.00    -0.204 NA
HETATM    4  C   UNL     1     -41.077  61.536 -58.161  1.00  0.00     0.162 A 
HETATM    5  C   UNL     1     -41.374  61.358 -59.497  1.00  0.00     0.081 A 
HETATM    6  C   UNL     1     -42.028  60.185 -59.909  1.00  0.00     0.124 A 
HETATM    7  N   UNL     1     -40.428  62.732 -58.051  1.00  0.00    -0.260 N 
HETATM    8  H   UNL     1     -40.069  63.173 -57.209  1.00  0.00     0.191 HD
HETATM    9  N   UNL     1     -40.291  63.362 -59.228  1.00  0.00    -0.177 NA
HETATM   10  C   UNL     1     -40.878  62.547 -60.113  1.00  0.00     0.068 A 
HETATM   11  C   UNL     1     -40.952  62.959 -61.539  1.00  0.00     0.073 C 
ENDROOT
BRANCH   2  12
HETATM   12  S   UNL     1     -42.771  58.661 -56.251  1.00  0.00    -0.082 SA
BRANCH  12  13
HETATM   13  C   UNL     1     -41.753  59.216 -54.846  1.00  0.00     0.185 C 
BRANCH  13  14
HETATM   14  C   UNL     1     -42.518  58.999 -53.556  1.00  0.00     0.227 C 
HETATM   15  N   UNL     1     -42.250  57.902 -52.787  1.00  0.00    -0.360 N 
HETATM   16  H   UNL     1     -42.893  57.818 -52.005  1.00  0.00     0.162 HD
HETATM   17  O   UNL     1     -43.379  59.800 -53.191  1.00  0.00    -0.273 OA
BRANCH  15  18
HETATM   18  C   UNL     1     -41.475  56.725 -53.153  1.00  0.00     0.127 C 
BRANCH  18  19
HETATM   19  C   UNL     1     -41.306  55.725 -52.003  1.00  0.00     0.058 C 
BRANCH  19  20
HETATM   20  C   UNL     1     -40.868  54.357 -52.475  1.00  0.00    -0.057 A 
HETATM   21  C   UNL     1     -41.112  53.939 -53.792  1.00  0.00     0.009 A 
HETATM   22  C   UNL     1     -40.763  52.652 -54.204  1.00  0.00     0.025 A 
HETATM   23  C   UNL     1     -40.149  51.782 -53.299  1.00  0.00     0.074 A 
HETATM   24  C   UNL     1     -39.887  52.187 -51.988  1.00  0.00     0.025 A 
HETATM   25  C   UNL     1     -40.241  53.475 -51.581  1.00  0.00     0.009 A 
BRANCH  23  26
HETATM   26  S   UNL     1     -39.781  50.123 -53.792  1.00  0.00     0.239 S 
HETATM   27  O   UNL     1     -38.713  50.145 -54.763  1.00  0.00    -0.206 OA
HETATM   28  O   UNL     1     -39.743  49.284 -52.616  1.00  0.00    -0.206 OA
BRANCH  26  29
HETATM   29  N   UNL     1     -41.168  49.692 -54.630  1.00  0.00    -0.225 NA
HETATM   30  H   UNL     1     -41.035  49.859 -55.629  1.00  0.00     0.136 HD
HETATM   31  H   UNL     1     -41.420  48.727 -54.411  1.00  0.00     0.136 HD
ENDBRANCH  26  29
ENDBRANCH  23  26
ENDBRANCH  19  20
ENDBRANCH  18  19
ENDBRANCH  15  18
ENDBRANCH  13  14
ENDBRANCH  12  13
ENDBRANCH   2  12
BRANCH   1  32
HETATM   32  C   UNL     1     -43.021  58.112 -59.193  1.00  0.00     0.045 A 
HETATM   33  C   UNL     1     -44.412  58.086 -59.241  1.00  0.00     0.054 A 
HETATM   34  C   UNL     1     -45.043  56.873 -59.512  1.00  0.00     0.042 A 
HETATM   35  C   UNL     1     -44.293  55.702 -59.735  1.00  0.00    -0.040 A 
HETATM   36 CL   UNL     1     -46.766  56.863 -59.559  1.00  0.00    -0.084 Cl
HETATM   37  C   UNL     1     -44.957  54.380 -60.020  1.00  0.00     0.050 C 
HETATM   38  C   UNL     1     -42.888  55.770 -59.697  1.00  0.00     0.011 A 
HETATM   39  C   UNL     1     -42.243  56.975 -59.429  1.00  0.00     0.031 A 
ENDBRANCH   1  32
BRANCH   6  40
HETATM   40  N   UNL     1     -42.315  59.906 -61.237  1.00  0.00    -0.384 N 
HETATM   41  H   UNL     1     -41.714  59.266 -61.747  1.00  0.00     0.157 HD
HETATM   42  H   UNL     1     -43.231  60.041 -61.647  1.00  0.00     0.157 HD
ENDBRANCH   6  40
TORSDOF 10
ENDMDL
MODEL 3
REMARK VINA RESULT:      -7.4      5.121      9.064
REMARK  10 active torsions:
REMARK  status: ('A' for Active; 'I' for Inactive)
REMARK    1  A    between atoms: C_6  and  N_7 
REMARK    2  A    between atoms: C_8  and  S_9 
REMARK    3  A    between atoms: S_9  and  C_10 
REMARK    4  A    between atoms: C_10  and  C_11 
REMARK       I    between atoms: C_11  and  N_12 
REMARK    5  A    between atoms: N_12  and  C_13 
REMARK    6  A    between atoms: C_13  and  C_14 
REMARK    7  A    between atoms: C_14  and  C_15 
REMARK    8  A    between atoms: C_18  and  S_19 
REMARK    9  A    between atoms: S_19  and  N_20 
REMARK   10  A    between atoms: C_29  and  N_30 
ROOT
HETATM    1  N   UNL     1     -43.475  59.234 -52.153  1.00  0.00    -0.276 N 
HETATM    2  C   UNL     1     -43.227  59.402 -53.484  1.00  0.00     0.177 A 
HETATM    3  N   UNL     1     -43.813  60.322 -54.270  1.00  0.00    -0.204 NA
HETATM    4  C   UNL     1     -44.625  61.126 -53.583  1.00  0.00     0.162 A 
HETATM    5  C   UNL     1     -44.895  61.067 -52.231  1.00  0.00     0.081 A 
HETATM    6  C   UNL     1     -44.316  60.049 -51.455  1.00  0.00     0.124 A 
HETATM    7  N   UNL     1     -45.330  62.181 -54.086  1.00  0.00    -0.260 N 
HETATM    8  H   UNL     1     -45.359  62.511 -55.047  1.00  0.00     0.191 HD
HETATM    9  N   UNL     1     -46.037  62.831 -53.150  1.00  0.00    -0.177 NA
HETATM   10  C   UNL     1     -45.768  62.176 -52.014  1.00  0.00     0.068 A 
HETATM   11  C   UNL     1     -46.359  62.661 -50.740  1.00  0.00     0.073 C 
ENDROOT
BRANCH   2  12
HETATM   12  S   UNL     1     -41.896  58.510 -54.289  1.00  0.00    -0.082 SA
BRANCH  12  13
HETATM   13  C   UNL     1     -42.805  57.681 -55.633  1.00  0.00     0.185 C 
BRANCH  13  14
HETATM   14  C   UNL     1     -43.635  56.552 -55.054  1.00  0.00     0.227 C 
HETATM   15  N   UNL     1     -43.129  55.284 -55.034  1.00  0.00    -0.360 N 
HETATM   16  H   UNL     1     -43.815  54.605 -54.715  1.00  0.00     0.162 HD
HETATM   17  O   UNL     1     -44.759  56.764 -54.602  1.00  0.00    -0.273 OA
BRANCH  15  18
HETATM   18  C   UNL     1     -41.955  54.780 -55.735  1.00  0.00     0.127 C 
BRANCH  18  19
HETATM   19  C   UNL     1     -40.667  54.870 -54.907  1.00  0.00     0.058 C 
BRANCH  19  20
HETATM   20  C   UNL     1     -40.439  53.650 -54.044  1.00  0.00    -0.057 A 
HETATM   21  C   UNL     1     -40.525  53.733 -52.646  1.00  0.00     0.009 A 
HETATM   22  C   UNL     1     -40.251  52.618 -51.851  1.00  0.00     0.025 A 
HETATM   23  C   UNL     1     -39.906  51.408 -52.458  1.00  0.00     0.074 A 
HETATM   24  C   UNL     1     -39.829  51.305 -53.848  1.00  0.00     0.025 A 
HETATM   25  C   UNL     1     -40.101  52.424 -54.638  1.00  0.00     0.009 A 
BRANCH  23  26
HETATM   26  S   UNL     1     -39.477  50.017 -51.453  1.00  0.00     0.239 S 
HETATM   27  O   UNL     1     -38.098  50.139 -51.041  1.00  0.00    -0.206 OA
HETATM   28  O   UNL     1     -40.547  49.772 -50.513  1.00  0.00    -0.206 OA
BRANCH  26  29
HETATM   29  N   UNL     1     -39.527  48.757 -52.558  1.00  0.00    -0.225 NA
HETATM   30  H   UNL     1     -38.779  48.869 -53.244  1.00  0.00     0.136 HD
HETATM   31  H   UNL     1     -39.496  47.862 -52.067  1.00  0.00     0.136 HD
ENDBRANCH  26  29
ENDBRANCH  23  26
ENDBRANCH  19  20
ENDBRANCH  18  19
ENDBRANCH  15  18
ENDBRANCH  13  14
ENDBRANCH  12  13
ENDBRANCH   2  12
BRANCH   1  32
HETATM   32  C   UNL     1     -42.832  58.153 -51.458  1.00  0.00     0.045 A 
HETATM   33  C   UNL     1     -43.494  56.934 -51.341  1.00  0.00     0.054 A 
HETATM   34  C   UNL     1     -42.870  55.905 -50.636  1.00  0.00     0.042 A 
HETATM   35  C   UNL     1     -41.598  56.093 -50.060  1.00  0.00    -0.040 A 
HETATM   36 CL   UNL     1     -43.711  54.407 -50.497  1.00  0.00    -0.084 Cl
HETATM   37  C   UNL     1     -40.911  54.997 -49.288  1.00  0.00     0.050 C 
HETATM   38  C   UNL     1     -40.952  57.333 -50.215  1.00  0.00     0.011 A 
HETATM   39  C   UNL     1     -41.563  58.369 -50.917  1.00  0.00     0.031 A 
ENDBRANCH   1  32
BRANCH   6  40
HETATM   40  N   UNL     1     -44.578  59.888 -50.103  1.00  0.00    -0.384 N 
HETATM   41  H   UNL     1     -44.107  60.489 -49.434  1.00  0.00     0.157 HD
HETATM   42  H   UNL     1     -45.415  59.439 -49.749  1.00  0.00     0.157 HD
ENDBRANCH   6  40
TORSDOF 10
ENDMDL
MODEL 4
REMARK VINA RESULT:      -7.4      4.507      8.807
REMARK  10 active torsions:
REMARK  status: ('A' for Active; 'I' for Inactive)
REMARK    1  A    between atoms: C_6  and  N_7 
REMARK    2  A    between atoms: C_8  and  S_9 
REMARK    3  A    between atoms: S_9  and  C_10 
REMARK    4  A    between atoms: C_10  and  C_11 
REMARK       I    between atoms: C_11  and  N_12 
REMARK    5  A    between atoms: N_12  and  C_13 
REMARK    6  A    between atoms: C_13  and  C_14 
REMARK    7  A    between atoms: C_14  and  C_15 
REMARK    8  A    between atoms: C_18  and  S_19 
REMARK    9  A    between atoms: S_19  and  N_20 
REMARK   10  A    between atoms: C_29  and  N_30 
ROOT
HETATM    1  N   UNL     1     -42.396  59.287 -58.925  1.00  0.00    -0.276 N 
HETATM    2  C   UNL     1     -42.061  59.545 -57.628  1.00  0.00     0.177 A 
HETATM    3  N   UNL     1     -41.371  60.620 -57.207  1.00  0.00    -0.204 NA
HETATM    4  C   UNL     1     -41.107  61.469 -58.200  1.00  0.00     0.162 A 
HETATM    5  C   UNL     1     -41.451  61.319 -59.528  1.00  0.00     0.081 A 
HETATM    6  C   UNL     1     -42.113  60.150 -59.942  1.00  0.00     0.124 A 
HETATM    7  N   UNL     1     -40.461  62.666 -58.087  1.00  0.00    -0.260 N 
HETATM    8  H   UNL     1     -40.075  63.091 -57.248  1.00  0.00     0.191 HD
HETATM    9  N   UNL     1     -40.371  63.323 -59.253  1.00  0.00    -0.177 NA
HETATM   10  C   UNL     1     -40.984  62.524 -60.134  1.00  0.00     0.068 A 
HETATM   11  C   UNL     1     -41.113  62.967 -61.547  1.00  0.00     0.073 C 
ENDROOT
BRANCH   2  12
HETATM   12  S   UNL     1     -42.713  58.540 -56.294  1.00  0.00    -0.082 SA
BRANCH  12  13
HETATM   13  C   UNL     1     -43.214  59.829 -55.109  1.00  0.00     0.185 C 
BRANCH  13  14
HETATM   14  C   UNL     1     -42.444  59.647 -53.816  1.00  0.00     0.227 C 
HETATM   15  N   UNL     1     -42.903  58.769 -52.875  1.00  0.00    -0.360 N 
HETATM   16  H   UNL     1     -42.358  58.811 -52.018  1.00  0.00     0.162 HD
HETATM   17  O   UNL     1     -41.410  60.280 -53.603  1.00  0.00    -0.273 OA
BRANCH  15  18
HETATM   18  C   UNL     1     -44.209  58.129 -52.814  1.00  0.00     0.127 C 
BRANCH  18  19
HETATM   19  C   UNL     1     -44.181  56.649 -53.215  1.00  0.00     0.058 C 
BRANCH  19  20
HETATM   20  C   UNL     1     -43.269  55.822 -52.337  1.00  0.00    -0.057 A 
HETATM   21  C   UNL     1     -43.392  55.856 -50.940  1.00  0.00     0.009 A 
HETATM   22  C   UNL     1     -42.506  55.141 -50.132  1.00  0.00     0.025 A 
HETATM   23  C   UNL     1     -41.502  54.372 -50.724  1.00  0.00     0.074 A 
HETATM   24  C   UNL     1     -41.374  54.317 -52.113  1.00  0.00     0.025 A 
HETATM   25  C   UNL     1     -42.260  55.037 -52.916  1.00  0.00     0.009 A 
BRANCH  23  26
HETATM   26  S   UNL     1     -40.326  53.532 -49.703  1.00  0.00     0.239 S 
HETATM   27  O   UNL     1     -40.354  52.121 -50.012  1.00  0.00    -0.206 OA
HETATM   28  O   UNL     1     -39.100  54.295 -49.678  1.00  0.00    -0.206 OA
BRANCH  26  29
HETATM   29  N   UNL     1     -41.008  53.691 -48.180  1.00  0.00    -0.225 NA
HETATM   30  H   UNL     1     -41.243  54.670 -48.007  1.00  0.00     0.136 HD
HETATM   31  H   UNL     1     -41.806  53.061 -48.088  1.00  0.00     0.136 HD
ENDBRANCH  26  29
ENDBRANCH  23  26
ENDBRANCH  19  20
ENDBRANCH  18  19
ENDBRANCH  15  18
ENDBRANCH  13  14
ENDBRANCH  12  13
ENDBRANCH   2  12
BRANCH   1  32
HETATM   32  C   UNL     1     -43.066  58.054 -59.237  1.00  0.00     0.045 A 
HETATM   33  C   UNL     1     -44.458  58.025 -59.252  1.00  0.00     0.054 A 
HETATM   34  C   UNL     1     -45.092  56.814 -59.527  1.00  0.00     0.042 A 
HETATM   35  C   UNL     1     -44.343  55.649 -59.787  1.00  0.00    -0.040 A 
HETATM   36 CL   UNL     1     -46.816  56.799 -59.532  1.00  0.00    -0.084 Cl
HETATM   37  C   UNL     1     -45.010  54.330 -60.077  1.00  0.00     0.050 C 
HETATM   38  C   UNL     1     -42.938  55.722 -59.782  1.00  0.00     0.011 A 
HETATM   39  C   UNL     1     -42.291  56.925 -59.510  1.00  0.00     0.031 A 
ENDBRANCH   1  32
BRANCH   6  40
HETATM   40  N   UNL     1     -42.446  59.899 -61.265  1.00  0.00    -0.384 N 
HETATM   41  H   UNL     1     -43.274  60.337 -61.656  1.00  0.00     0.157 HD
HETATM   42  H   UNL     1     -41.779  59.569 -61.951  1.00  0.00     0.157 HD
ENDBRANCH   6  40
TORSDOF 10
ENDMDL
MODEL 5
REMARK VINA RESULT:      -7.3      3.552      8.521
REMARK  10 active torsions:
REMARK  status: ('A' for Active; 'I' for Inactive)
REMARK    1  A    between atoms: C_6  and  N_7 
REMARK    2  A    between atoms: C_8  and  S_9 
REMARK    3  A    between atoms: S_9  and  C_10 
REMARK    4  A    between atoms: C_10  and  C_11 
REMARK       I    between atoms: C_11  and  N_12 
REMARK    5  A    between atoms: N_12  and  C_13 
REMARK    6  A    between atoms: C_13  and  C_14 
REMARK    7  A    between atoms: C_14  and  C_15 
REMARK    8  A    between atoms: C_18  and  S_19 
REMARK    9  A    between atoms: S_19  and  N_20 
REMARK   10  A    between atoms: C_29  and  N_30 
ROOT
HETATM    1  N   UNL     1     -44.377  58.947 -57.005  1.00  0.00    -0.276 N 
HETATM    2  C   UNL     1     -43.092  59.294 -57.303  1.00  0.00     0.177 A 
HETATM    3  N   UNL     1     -42.096  59.413 -56.408  1.00  0.00    -0.204 NA
HETATM    4  C   UNL     1     -42.482  59.072 -55.178  1.00  0.00     0.162 A 
HETATM    5  C   UNL     1     -43.741  58.659 -54.793  1.00  0.00     0.081 A 
HETATM    6  C   UNL     1     -44.774  58.613 -55.744  1.00  0.00     0.124 A 
HETATM    7  N   UNL     1     -41.694  59.048 -54.064  1.00  0.00    -0.260 N 
HETATM    8  H   UNL     1     -40.709  59.289 -53.989  1.00  0.00     0.191 HD
HETATM    9  N   UNL     1     -42.349  58.629 -52.970  1.00  0.00    -0.177 NA
HETATM   10  C   UNL     1     -43.589  58.372 -53.402  1.00  0.00     0.068 A 
HETATM   11  C   UNL     1     -44.593  57.836 -52.446  1.00  0.00     0.073 C 
ENDROOT
BRANCH   2  12
HETATM   12  S   UNL     1     -42.550  59.428 -59.007  1.00  0.00    -0.082 SA
BRANCH  12  13
HETATM   13  C   UNL     1     -41.532  57.926 -59.161  1.00  0.00     0.185 C 
BRANCH  13  14
HETATM   14  C   UNL     1     -42.424  56.749 -59.503  1.00  0.00     0.227 C 
HETATM   15  N   UNL     1     -42.847  55.911 -58.510  1.00  0.00    -0.360 N 
HETATM   16  H   UNL     1     -43.354  55.110 -58.877  1.00  0.00     0.162 HD
HETATM   17  O   UNL     1     -42.773  56.539 -60.664  1.00  0.00    -0.273 OA
BRANCH  15  18
HETATM   18  C   UNL     1     -42.353  55.829 -57.142  1.00  0.00     0.127 C 
BRANCH  18  19
HETATM   19  C   UNL     1     -43.126  54.826 -56.276  1.00  0.00     0.058 C 
BRANCH  19  20
HETATM   20  C   UNL     1     -42.706  54.861 -54.824  1.00  0.00    -0.057 A 
HETATM   21  C   UNL     1     -43.556  54.378 -53.818  1.00  0.00     0.009 A 
HETATM   22  C   UNL     1     -43.190  54.472 -52.474  1.00  0.00     0.025 A 
HETATM   23  C   UNL     1     -41.958  55.036 -52.134  1.00  0.00     0.074 A 
HETATM   24  C   UNL     1     -41.094  55.509 -53.124  1.00  0.00     0.025 A 
HETATM   25  C   UNL     1     -41.467  55.416 -54.466  1.00  0.00     0.009 A 
BRANCH  23  26
HETATM   26  S   UNL     1     -41.527  55.232 -50.429  1.00  0.00     0.239 S 
HETATM   27  O   UNL     1     -42.511  54.560 -49.613  1.00  0.00    -0.206 OA
HETATM   28  O   UNL     1     -40.108  55.006 -50.277  1.00  0.00    -0.206 OA
BRANCH  26  29
HETATM   29  N   UNL     1     -41.767  56.875 -50.194  1.00  0.00    -0.225 NA
HETATM   30  H   UNL     1     -42.440  57.228 -50.876  1.00  0.00     0.136 HD
HETATM   31  H   UNL     1     -42.039  57.052 -49.227  1.00  0.00     0.136 HD
ENDBRANCH  26  29
ENDBRANCH  23  26
ENDBRANCH  19  20
ENDBRANCH  18  19
ENDBRANCH  15  18
ENDBRANCH  13  14
ENDBRANCH  12  13
ENDBRANCH   2  12
BRANCH   1  32
HETATM   32  C   UNL     1     -45.357  58.939 -58.057  1.00  0.00     0.045 A 
HETATM   33  C   UNL     1     -45.733  57.725 -58.624  1.00  0.00     0.054 A 
HETATM   34  C   UNL     1     -46.661  57.739 -59.665  1.00  0.00     0.042 A 
HETATM   35  C   UNL     1     -47.209  58.951 -60.128  1.00  0.00    -0.040 A 
HETATM   36 CL   UNL     1     -47.106  56.224 -60.357  1.00  0.00    -0.084 Cl
HETATM   37  C   UNL     1     -48.206  58.987 -61.256  1.00  0.00     0.050 C 
HETATM   38  C   UNL     1     -46.819  60.157 -59.518  1.00  0.00     0.011 A 
HETATM   39  C   UNL     1     -45.893  60.159 -58.477  1.00  0.00     0.031 A 
ENDBRANCH   1  32
BRANCH   6  40
HETATM   40  N   UNL     1     -46.077  58.260 -55.428  1.00  0.00    -0.384 N 
HETATM   41  H   UNL     1     -46.353  57.285 -55.488  1.00  0.00     0.157 HD
HETATM   42  H   UNL     1     -46.683  58.834 -54.855  1.00  0.00     0.157 HD
ENDBRANCH   6  40
TORSDOF 10
ENDMDL
MODEL 6
REMARK VINA RESULT:      -7.3      2.805      4.581
REMARK  10 active torsions:
REMARK  status: ('A' for Active; 'I' for Inactive)
REMARK    1  A    between atoms: C_6  and  N_7 
REMARK    2  A    between atoms: C_8  and  S_9 
REMARK    3  A    between atoms: S_9  and  C_10 
REMARK    4  A    between atoms: C_10  and  C_11 
REMARK       I    between atoms: C_11  and  N_12 
REMARK    5  A    between atoms: N_12  and  C_13 
REMARK    6  A    between atoms: C_13  and  C_14 
REMARK    7  A    between atoms: C_14  and  C_15 
REMARK    8  A    between atoms: C_18  and  S_19 
REMARK    9  A    between atoms: S_19  and  N_20 
REMARK   10  A    between atoms: C_29  and  N_30 
ROOT
HETATM    1  N   UNL     1     -41.386  56.281 -52.676  1.00  0.00    -0.276 N 
HETATM    2  C   UNL     1     -41.269  56.222 -54.033  1.00  0.00     0.177 A 
HETATM    3  N   UNL     1     -40.793  55.170 -54.723  1.00  0.00    -0.204 NA
HETATM    4  C   UNL     1     -40.514  54.135 -53.930  1.00  0.00     0.162 A 
HETATM    5  C   UNL     1     -40.651  54.084 -52.559  1.00  0.00     0.081 A 
HETATM    6  C   UNL     1     -41.087  55.227 -51.866  1.00  0.00     0.124 A 
HETATM    7  N   UNL     1     -40.056  52.913 -54.332  1.00  0.00    -0.260 N 
HETATM    8  H   UNL     1     -39.848  52.603 -55.277  1.00  0.00     0.191 HD
HETATM    9  N   UNL     1     -39.897  52.054 -53.313  1.00  0.00    -0.177 NA
HETATM   10  C   UNL     1     -40.272  52.747 -52.232  1.00  0.00     0.068 A 
HETATM   11  C   UNL     1     -40.267  52.078 -50.904  1.00  0.00     0.073 C 
ENDROOT
BRANCH   2  12
HETATM   12  S   UNL     1     -41.954  57.512 -55.072  1.00  0.00    -0.082 SA
BRANCH  12  13
HETATM   13  C   UNL     1     -43.511  56.731 -55.604  1.00  0.00     0.185 C 
BRANCH  13  14
HETATM   14  C   UNL     1     -43.340  56.172 -57.002  1.00  0.00     0.227 C 
HETATM   15  N   UNL     1     -43.647  56.950 -58.083  1.00  0.00    -0.360 N 
HETATM   16  H   UNL     1     -43.584  56.433 -58.955  1.00  0.00     0.162 HD
HETATM   17  O   UNL     1     -42.926  55.027 -57.178  1.00  0.00    -0.273 OA
BRANCH  15  18
HETATM   18  C   UNL     1     -44.378  58.210 -58.095  1.00  0.00     0.127 C 
BRANCH  18  19
HETATM   19  C   UNL     1     -45.885  58.041 -57.868  1.00  0.00     0.058 C 
BRANCH  19  20
HETATM   20  C   UNL     1     -46.658  57.883 -59.157  1.00  0.00    -0.057 A 
HETATM   21  C   UNL     1     -46.776  56.628 -59.774  1.00  0.00     0.009 A 
HETATM   22  C   UNL     1     -47.436  56.499 -60.998  1.00  0.00     0.025 A 
HETATM   23  C   UNL     1     -47.998  57.627 -61.600  1.00  0.00     0.074 A 
HETATM   24  C   UNL     1     -47.900  58.881 -60.992  1.00  0.00     0.025 A 
HETATM   25  C   UNL     1     -47.236  59.005 -59.771  1.00  0.00     0.009 A 
BRANCH  23  26
HETATM   26  S   UNL     1     -48.761  57.482 -63.189  1.00  0.00     0.239 S 
HETATM   27  O   UNL     1     -48.425  56.198 -63.759  1.00  0.00    -0.206 OA
HETATM   28  O   UNL     1     -50.124  57.956 -63.097  1.00  0.00    -0.206 OA
BRANCH  26  29
HETATM   29  N   UNL     1     -47.927  58.627 -64.085  1.00  0.00    -0.225 NA
HETATM   30  H   UNL     1     -47.119  58.193 -64.534  1.00  0.00     0.136 HD
HETATM   31  H   UNL     1     -48.560  59.082 -64.744  1.00  0.00     0.136 HD
ENDBRANCH  26  29
ENDBRANCH  23  26
ENDBRANCH  19  20
ENDBRANCH  18  19
ENDBRANCH  15  18
ENDBRANCH  13  14
ENDBRANCH  12  13
ENDBRANCH   2  12
BRANCH   1  32
HETATM   32  C   UNL     1     -41.836  57.505 -52.071  1.00  0.00     0.045 A 
HETATM   33  C   UNL     1     -43.199  57.698 -51.863  1.00  0.00     0.054 A 
HETATM   34  C   UNL     1     -43.620  58.903 -51.303  1.00  0.00     0.042 A 
HETATM   35  C   UNL     1     -42.690  59.901 -50.953  1.00  0.00    -0.040 A 
HETATM   36 CL   UNL     1     -45.313  59.123 -51.063  1.00  0.00    -0.084 Cl
HETATM   37  C   UNL     1     -43.126  61.213 -50.356  1.00  0.00     0.050 C 
HETATM   38  C   UNL     1     -41.319  59.663 -51.160  1.00  0.00     0.011 A 
HETATM   39  C   UNL     1     -40.883  58.463 -51.718  1.00  0.00     0.031 A 
ENDBRANCH   1  32
BRANCH   6  40
HETATM   40  N   UNL     1     -41.200  55.275 -50.484  1.00  0.00    -0.384 N 
HETATM   41  H   UNL     1     -42.105  55.477 -50.071  1.00  0.00     0.157 HD
HETATM   42  H   UNL     1     -40.541  54.830 -49.858  1.00  0.00     0.157 HD
ENDBRANCH   6  40
TORSDOF 10
ENDMDL
MODEL 7
REMARK VINA RESULT:      -7.3      4.051      7.884
REMARK  10 active torsions:
REMARK  status: ('A' for Active; 'I' for Inactive)
REMARK    1  A    between atoms: C_6  and  N_7 
REMARK    2  A    between atoms: C_8  and  S_9 
REMARK    3  A    between atoms: S_9  and  C_10 
REMARK    4  A    between atoms: C_10  and  C_11 
REMARK       I    between atoms: C_11  and  N_12 
REMARK    5  A    between atoms: N_12  and  C_13 
REMARK    6  A    between atoms: C_13  and  C_14 
REMARK    7  A    between atoms: C_14  and  C_15 
REMARK    8  A    between atoms: C_18  and  S_19 
REMARK    9  A    between atoms: S_19  and  N_20 
REMARK   10  A    between atoms: C_29  and  N_30 
ROOT
HETATM    1  N   UNL     1     -42.364  59.386 -58.920  1.00  0.00    -0.276 N 
HETATM    2  C   UNL     1     -42.135  59.714 -57.616  1.00  0.00     0.177 A 
HETATM    3  N   UNL     1     -41.463  60.802 -57.199  1.00  0.00    -0.204 NA
HETATM    4  C   UNL     1     -41.102  61.589 -58.213  1.00  0.00     0.162 A 
HETATM    5  C   UNL     1     -41.336  61.366 -59.554  1.00  0.00     0.081 A 
HETATM    6  C   UNL     1     -41.981  60.184 -59.956  1.00  0.00     0.124 A 
HETATM    7  N   UNL     1     -40.447  62.782 -58.113  1.00  0.00    -0.260 N 
HETATM    8  H   UNL     1     -40.125  63.250 -57.270  1.00  0.00     0.191 HD
HETATM    9  N   UNL     1     -40.247  63.369 -59.303  1.00  0.00    -0.177 NA
HETATM   10  C   UNL     1     -40.798  62.529 -60.186  1.00  0.00     0.068 A 
HETATM   11  C   UNL     1     -40.800  62.890 -61.628  1.00  0.00     0.073 C 
ENDROOT
BRANCH   2  12
HETATM   12  S   UNL     1     -42.915  58.796 -56.287  1.00  0.00    -0.082 SA
BRANCH  12  13
HETATM   13  C   UNL     1     -42.892  60.039 -54.955  1.00  0.00     0.185 C 
BRANCH  13  14
HETATM   14  C   UNL     1     -43.917  59.664 -53.903  1.00  0.00     0.227 C 
HETATM   15  N   UNL     1     -43.605  59.796 -52.580  1.00  0.00    -0.360 N 
HETATM   16  H   UNL     1     -44.333  59.422 -51.978  1.00  0.00     0.162 HD
HETATM   17  O   UNL     1     -45.027  59.244 -54.226  1.00  0.00    -0.273 OA
BRANCH  15  18
HETATM   18  C   UNL     1     -42.292  60.022 -51.991  1.00  0.00     0.127 C 
BRANCH  18  19
HETATM   19  C   UNL     1     -41.835  58.886 -51.069  1.00  0.00     0.058 C 
BRANCH  19  20
HETATM   20  C   UNL     1     -41.562  57.600 -51.815  1.00  0.00    -0.057 A 
HETATM   21  C   UNL     1     -40.901  57.614 -53.053  1.00  0.00     0.009 A 
HETATM   22  C   UNL     1     -40.709  56.430 -53.768  1.00  0.00     0.025 A 
HETATM   23  C   UNL     1     -41.163  55.222 -53.234  1.00  0.00     0.074 A 
HETATM   24  C   UNL     1     -41.810  55.189 -51.997  1.00  0.00     0.025 A 
HETATM   25  C   UNL     1     -42.003  56.376 -51.288  1.00  0.00     0.009 A 
BRANCH  23  26
HETATM   26  S   UNL     1     -40.996  53.732 -54.174  1.00  0.00     0.239 S 
HETATM   27  O   UNL     1     -40.172  52.800 -53.441  1.00  0.00    -0.206 OA
HETATM   28  O   UNL     1     -42.289  53.369 -54.708  1.00  0.00    -0.206 OA
BRANCH  26  29
HETATM   29  N   UNL     1     -40.078  54.244 -55.480  1.00  0.00    -0.225 NA
HETATM   30  H   UNL     1     -39.085  54.169 -55.256  1.00  0.00     0.136 HD
HETATM   31  H   UNL     1     -40.344  53.723 -56.318  1.00  0.00     0.136 HD
ENDBRANCH  26  29
ENDBRANCH  23  26
ENDBRANCH  19  20
ENDBRANCH  18  19
ENDBRANCH  15  18
ENDBRANCH  13  14
ENDBRANCH  12  13
ENDBRANCH   2  12
BRANCH   1  32
HETATM   32  C   UNL     1     -43.027  58.146 -59.218  1.00  0.00     0.045 A 
HETATM   33  C   UNL     1     -44.418  58.115 -59.261  1.00  0.00     0.054 A 
HETATM   34  C   UNL     1     -45.046  56.897 -59.521  1.00  0.00     0.042 A 
HETATM   35  C   UNL     1     -44.292  55.728 -59.738  1.00  0.00    -0.040 A 
HETATM   36 CL   UNL     1     -46.769  56.881 -59.561  1.00  0.00    -0.084 Cl
HETATM   37  C   UNL     1     -44.952  54.402 -60.011  1.00  0.00     0.050 C 
HETATM   38  C   UNL     1     -42.888  55.801 -59.705  1.00  0.00     0.011 A 
HETATM   39  C   UNL     1     -42.246  57.011 -59.447  1.00  0.00     0.031 A 
ENDBRANCH   1  32
BRANCH   6  40
HETATM   40  N   UNL     1     -42.206  59.861 -61.286  1.00  0.00    -0.384 N 
HETATM   41  H   UNL     1     -41.425  59.873 -61.935  1.00  0.00     0.157 HD
HETATM   42  H   UNL     1     -43.005  59.324 -61.599  1.00  0.00     0.157 HD
ENDBRANCH   6  40
TORSDOF 10
ENDMDL
MODEL 8
REMARK VINA RESULT:      -7.2      4.370      8.107
REMARK  10 active torsions:
REMARK  status: ('A' for Active; 'I' for Inactive)
REMARK    1  A    between atoms: C_6  and  N_7 
REMARK    2  A    between atoms: C_8  and  S_9 
REMARK    3  A    between atoms: S_9  and  C_10 
REMARK    4  A    between atoms: C_10  and  C_11 
REMARK       I    between atoms: C_11  and  N_12 
REMARK    5  A    between atoms: N_12  and  C_13 
REMARK    6  A    between atoms: C_13  and  C_14 
REMARK    7  A    between atoms: C_14  and  C_15 
REMARK    8  A    between atoms: C_18  and  S_19 
REMARK    9  A    between atoms: S_19  and  N_20 
REMARK   10  A    between atoms: C_29  and  N_30 
ROOT
HETATM    1  N   UNL     1     -43.653  58.598 -57.422  1.00  0.00    -0.276 N 
HETATM    2  C   UNL     1     -44.685  59.083 -56.673  1.00  0.00     0.177 A 
HETATM    3  N   UNL     1     -45.250  58.447 -55.632  1.00  0.00    -0.204 NA
HETATM    4  C   UNL     1     -44.633  57.300 -55.349  1.00  0.00     0.162 A 
HETATM    5  C   UNL     1     -43.553  56.757 -56.015  1.00  0.00     0.081 A 
HETATM    6  C   UNL     1     -43.033  57.418 -57.141  1.00  0.00     0.124 A 
HETATM    7  N   UNL     1     -44.942  56.449 -54.328  1.00  0.00    -0.260 N 
HETATM    8  H   UNL     1     -45.683  56.544 -53.638  1.00  0.00     0.191 HD
HETATM    9  N   UNL     1     -44.125  55.387 -54.267  1.00  0.00    -0.177 NA
HETATM   10  C   UNL     1     -43.265  55.570 -55.275  1.00  0.00     0.068 A 
HETATM   11  C   UNL     1     -42.169  54.587 -55.482  1.00  0.00     0.073 C 
ENDROOT
BRANCH   2  12
HETATM   12  S   UNL     1     -45.266  60.766 -56.891  1.00  0.00    -0.082 SA
BRANCH  12  13
HETATM   13  C   UNL     1     -44.915  61.463 -55.245  1.00  0.00     0.185 C 
BRANCH  13  14
HETATM   14  C   UNL     1     -43.606  62.227 -55.293  1.00  0.00     0.227 C 
HETATM   15  N   UNL     1     -42.432  61.570 -55.056  1.00  0.00    -0.360 N 
HETATM   16  H   UNL     1     -41.640  62.206 -55.019  1.00  0.00     0.162 HD
HETATM   17  O   UNL     1     -43.587  63.431 -55.544  1.00  0.00    -0.273 OA
BRANCH  15  18
HETATM   18  C   UNL     1     -42.254  60.235 -54.499  1.00  0.00     0.127 C 
BRANCH  18  19
HETATM   19  C   UNL     1     -42.417  60.185 -52.975  1.00  0.00     0.058 C 
BRANCH  19  20
HETATM   20  C   UNL     1     -42.376  58.776 -52.428  1.00  0.00    -0.057 A 
HETATM   21  C   UNL     1     -41.339  57.899 -52.779  1.00  0.00     0.009 A 
HETATM   22  C   UNL     1     -41.340  56.580 -52.322  1.00  0.00     0.025 A 
HETATM   23  C   UNL     1     -42.375  56.140 -51.493  1.00  0.00     0.074 A 
HETATM   24  C   UNL     1     -43.407  57.004 -51.124  1.00  0.00     0.025 A 
HETATM   25  C   UNL     1     -43.403  58.321 -51.586  1.00  0.00     0.009 A 
BRANCH  23  26
HETATM   26  S   UNL     1     -42.424  54.447 -50.981  1.00  0.00     0.239 S 
HETATM   27  O   UNL     1     -41.559  53.669 -51.836  1.00  0.00    -0.206 OA
HETATM   28  O   UNL     1     -42.340  54.393 -49.539  1.00  0.00    -0.206 OA
BRANCH  26  29
HETATM   29  N   UNL     1     -43.993  54.007 -51.375  1.00  0.00    -0.225 NA
HETATM   30  H   UNL     1     -44.270  53.188 -50.831  1.00  0.00     0.136 HD
HETATM   31  H   UNL     1     -44.619  54.804 -51.254  1.00  0.00     0.136 HD
ENDBRANCH  26  29
ENDBRANCH  23  26
ENDBRANCH  19  20
ENDBRANCH  18  19
ENDBRANCH  15  18
ENDBRANCH  13  14
ENDBRANCH  12  13
ENDBRANCH   2  12
BRANCH   1  32
HETATM   32  C   UNL     1     -43.205  59.355 -58.560  1.00  0.00     0.045 A 
HETATM   33  C   UNL     1     -42.161  60.263 -58.401  1.00  0.00     0.054 A 
HETATM   34  C   UNL     1     -41.760  61.011 -59.507  1.00  0.00     0.042 A 
HETATM   35  C   UNL     1     -42.391  60.849 -60.756  1.00  0.00    -0.040 A 
HETATM   36 CL   UNL     1     -40.471  62.134 -59.285  1.00  0.00    -0.084 Cl
HETATM   37  C   UNL     1     -41.977  61.654 -61.960  1.00  0.00     0.050 C 
HETATM   38  C   UNL     1     -43.430  59.909 -60.882  1.00  0.00     0.011 A 
HETATM   39  C   UNL     1     -43.841  59.154 -59.786  1.00  0.00     0.031 A 
ENDBRANCH   1  32
BRANCH   6  40
HETATM   40  N   UNL     1     -41.985  56.913 -57.896  1.00  0.00    -0.384 N 
HETATM   41  H   UNL     1     -41.671  55.962 -57.729  1.00  0.00     0.157 HD
HETATM   42  H   UNL     1     -41.713  57.295 -58.793  1.00  0.00     0.157 HD
ENDBRANCH   6  40
TORSDOF 10
ENDMDL
MODEL 9
REMARK VINA RESULT:      -7.2      3.930      8.176
REMARK  10 active torsions:
REMARK  status: ('A' for Active; 'I' for Inactive)
REMARK    1  A    between atoms: C_6  and  N_7 
REMARK    2  A    between atoms: C_8  and  S_9 
REMARK    3  A    between atoms: S_9  and  C_10 
REMARK    4  A    between atoms: C_10  and  C_11 
REMARK       I    between atoms: C_11  and  N_12 
REMARK    5  A    between atoms: N_12  and  C_13 
REMARK    6  A    between atoms: C_13  and  C_14 
REMARK    7  A    between atoms: C_14  and  C_15 
REMARK    8  A    between atoms: C_18  and  S_19 
REMARK    9  A    between atoms: S_19  and  N_20 
REMARK   10  A    between atoms: C_29  and  N_30 
ROOT
HETATM    1  N   UNL     1     -42.513  59.323 -58.868  1.00  0.00    -0.276 N 
HETATM    2  C   UNL     1     -42.447  59.696 -57.558  1.00  0.00     0.177 A 
HETATM    3  N   UNL     1     -41.807  60.784 -57.094  1.00  0.00    -0.204 NA
HETATM    4  C   UNL     1     -41.296  61.523 -58.079  1.00  0.00     0.162 A 
HETATM    5  C   UNL     1     -41.359  61.255 -59.431  1.00  0.00     0.081 A 
HETATM    6  C   UNL     1     -41.978  60.074 -59.872  1.00  0.00     0.124 A 
HETATM    7  N   UNL     1     -40.628  62.705 -57.936  1.00  0.00    -0.260 N 
HETATM    8  H   UNL     1     -40.406  63.197 -57.074  1.00  0.00     0.191 HD
HETATM    9  N   UNL     1     -40.259  63.242 -59.108  1.00  0.00    -0.177 NA
HETATM   10  C   UNL     1     -40.713  62.381 -60.027  1.00  0.00     0.068 A 
HETATM   11  C   UNL     1     -40.518  62.688 -61.468  1.00  0.00     0.073 C 
ENDROOT
BRANCH   2  12
HETATM   12  S   UNL     1     -43.418  58.846 -56.312  1.00  0.00    -0.082 SA
BRANCH  12  13
HETATM   13  C   UNL     1     -42.126  57.864 -55.485  1.00  0.00     0.185 C 
BRANCH  13  14
HETATM   14  C   UNL     1     -42.542  56.406 -55.463  1.00  0.00     0.227 C 
HETATM   15  N   UNL     1     -42.057  55.580 -54.489  1.00  0.00    -0.360 N 
HETATM   16  H   UNL     1     -42.329  54.613 -54.640  1.00  0.00     0.162 HD
HETATM   17  O   UNL     1     -43.312  55.957 -56.311  1.00  0.00    -0.273 OA
BRANCH  15  18
HETATM   18  C   UNL     1     -40.960  55.838 -53.566  1.00  0.00     0.127 C 
BRANCH  18  19
HETATM   19  C   UNL     1     -41.384  55.808 -52.093  1.00  0.00     0.058 C 
BRANCH  19  20
HETATM   20  C   UNL     1     -42.419  56.859 -51.759  1.00  0.00    -0.057 A 
HETATM   21  C   UNL     1     -42.068  58.215 -51.688  1.00  0.00     0.009 A 
HETATM   22  C   UNL     1     -43.013  59.174 -51.317  1.00  0.00     0.025 A 
HETATM   23  C   UNL     1     -44.322  58.776 -51.034  1.00  0.00     0.074 A 
HETATM   24  C   UNL     1     -44.691  57.432 -51.114  1.00  0.00     0.025 A 
HETATM   25  C   UNL     1     -43.741  56.477 -51.481  1.00  0.00     0.009 A 
BRANCH  23  26
HETATM   26  S   UNL     1     -45.500  59.976 -50.483  1.00  0.00     0.239 S 
HETATM   27  O   UNL     1     -44.826  61.234 -50.265  1.00  0.00    -0.206 OA
HETATM   28  O   UNL     1     -46.692  59.865 -51.293  1.00  0.00    -0.206 OA
BRANCH  26  29
HETATM   29  N   UNL     1     -45.910  59.394 -48.965  1.00  0.00    -0.225 NA
HETATM   30  H   UNL     1     -46.776  59.833 -48.649  1.00  0.00     0.136 HD
HETATM   31  H   UNL     1     -45.956  58.374 -48.985  1.00  0.00     0.136 HD
ENDBRANCH  26  29
ENDBRANCH  23  26
ENDBRANCH  19  20
ENDBRANCH  18  19
ENDBRANCH  15  18
ENDBRANCH  13  14
ENDBRANCH  12  13
ENDBRANCH   2  12
BRANCH   1  32
HETATM   32  C   UNL     1     -43.165  58.087 -59.208  1.00  0.00     0.045 A 
HETATM   33  C   UNL     1     -44.553  58.058 -59.304  1.00  0.00     0.054 A 
HETATM   34  C   UNL     1     -45.171  56.844 -59.603  1.00  0.00     0.042 A 
HETATM   35  C   UNL     1     -44.409  55.677 -59.807  1.00  0.00    -0.040 A 
HETATM   36 CL   UNL     1     -46.892  56.829 -59.709  1.00  0.00    -0.084 Cl
HETATM   37  C   UNL     1     -45.059  54.355 -60.123  1.00  0.00     0.050 C 
HETATM   38  C   UNL     1     -43.007  55.750 -59.720  1.00  0.00     0.011 A 
HETATM   39  C   UNL     1     -42.376  56.955 -59.423  1.00  0.00     0.031 A 
ENDBRANCH   1  32
BRANCH   6  40
HETATM   40  N   UNL     1     -42.036  59.705 -61.209  1.00  0.00    -0.384 N 
HETATM   41  H   UNL     1     -42.894  59.301 -61.571  1.00  0.00     0.157 HD
HETATM   42  H   UNL     1     -41.415  60.080 -61.915  1.00  0.00     0.157 HD
ENDBRANCH   6  40
TORSDOF 10
ENDMDL
MODEL 10
REMARK VINA RESULT:      -7.2      3.283      5.759
REMARK  10 active torsions:
REMARK  status: ('A' for Active; 'I' for Inactive)
REMARK    1  A    between atoms: C_6  and  N_7 
REMARK    2  A    between atoms: C_8  and  S_9 
REMARK    3  A    between atoms: S_9  and  C_10 
REMARK    4  A    between atoms: C_10  and  C_11 
REMARK       I    between atoms: C_11  and  N_12 
REMARK    5  A    between atoms: N_12  and  C_13 
REMARK    6  A    between atoms: C_13  and  C_14 
REMARK    7  A    between atoms: C_14  and  C_15 
REMARK    8  A    between atoms: C_18  and  S_19 
REMARK    9  A    between atoms: S_19  and  N_20 
REMARK   10  A    between atoms: C_29  and  N_30 
ROOT
HETATM    1  N   UNL     1     -44.452  59.161 -52.041  1.00  0.00    -0.276 N 
HETATM    2  C   UNL     1     -44.740  59.187 -53.374  1.00  0.00     0.177 A 
HETATM    3  N   UNL     1     -45.638  60.001 -53.956  1.00  0.00    -0.204 NA
HETATM    4  C   UNL     1     -46.177  60.857 -53.088  1.00  0.00     0.162 A 
HETATM    5  C   UNL     1     -45.910  60.940 -51.737  1.00  0.00     0.081 A 
HETATM    6  C   UNL     1     -45.015  60.028 -51.152  1.00  0.00     0.124 A 
HETATM    7  N   UNL     1     -47.086  61.833 -53.377  1.00  0.00    -0.260 N 
HETATM    8  H   UNL     1     -47.500  62.055 -54.279  1.00  0.00     0.191 HD
HETATM    9  N   UNL     1     -47.425  62.566 -52.305  1.00  0.00    -0.177 NA
HETATM   10  C   UNL     1     -46.703  62.046 -51.305  1.00  0.00     0.068 A 
HETATM   11  C   UNL     1     -46.795  62.655 -49.952  1.00  0.00     0.073 C 
ENDROOT
BRANCH   2  12
HETATM   12  S   UNL     1     -43.761  58.243 -54.543  1.00  0.00    -0.082 SA
BRANCH  12  13
HETATM   13  C   UNL     1     -43.591  59.449 -55.898  1.00  0.00     0.185 C 
BRANCH  13  14
HETATM   14  C   UNL     1     -42.201  60.051 -55.862  1.00  0.00     0.227 C 
HETATM   15  N   UNL     1     -41.802  60.889 -56.864  1.00  0.00    -0.360 N 
HETATM   16  H   UNL     1     -40.822  61.147 -56.779  1.00  0.00     0.162 HD
HETATM   17  O   UNL     1     -41.426  59.796 -54.940  1.00  0.00    -0.273 OA
BRANCH  15  18
HETATM   18  C   UNL     1     -42.449  61.114 -58.150  1.00  0.00     0.127 C 
BRANCH  18  19
HETATM   19  C   UNL     1     -41.848  60.280 -59.288  1.00  0.00     0.058 C 
BRANCH  19  20
HETATM   20  C   UNL     1     -42.676  59.060 -59.621  1.00  0.00    -0.057 A 
HETATM   21  C   UNL     1     -44.045  59.177 -59.907  1.00  0.00     0.009 A 
HETATM   22  C   UNL     1     -44.818  58.041 -60.150  1.00  0.00     0.025 A 
HETATM   23  C   UNL     1     -44.216  56.780 -60.126  1.00  0.00     0.074 A 
HETATM   24  C   UNL     1     -42.853  56.648 -59.856  1.00  0.00     0.025 A 
HETATM   25  C   UNL     1     -42.085  57.787 -59.610  1.00  0.00     0.009 A 
BRANCH  23  26
HETATM   26  S   UNL     1     -45.209  55.333 -60.352  1.00  0.00     0.239 S 
HETATM   27  O   UNL     1     -44.628  54.241 -59.606  1.00  0.00    -0.206 OA
HETATM   28  O   UNL     1     -46.602  55.699 -60.232  1.00  0.00    -0.206 OA
BRANCH  26  29
HETATM   29  N   UNL     1     -44.955  54.983 -61.971  1.00  0.00    -0.225 NA
HETATM   30  H   UNL     1     -45.472  54.141 -62.228  1.00  0.00     0.136 HD
HETATM   31  H   UNL     1     -45.192  55.794 -62.544  1.00  0.00     0.136 HD
ENDBRANCH  26  29
ENDBRANCH  23  26
ENDBRANCH  19  20
ENDBRANCH  18  19
ENDBRANCH  15  18
ENDBRANCH  13  14
ENDBRANCH  12  13
ENDBRANCH   2  12
BRANCH   1  32
HETATM   32  C   UNL     1     -43.526  58.178 -51.549  1.00  0.00     0.045 A 
HETATM   33  C   UNL     1     -43.989  56.899 -51.254  1.00  0.00     0.054 A 
HETATM   34  C   UNL     1     -43.083  55.967 -50.749  1.00  0.00     0.042 A 
HETATM   35  C   UNL     1     -41.732  56.310 -50.545  1.00  0.00    -0.040 A 
HETATM   36 CL   UNL     1     -43.680  54.392 -50.383  1.00  0.00    -0.084 Cl
HETATM   37  C   UNL     1     -40.741  55.320 -49.992  1.00  0.00     0.050 C 
HETATM   38  C   UNL     1     -41.297  57.607 -50.872  1.00  0.00     0.011 A 
HETATM   39  C   UNL     1     -42.190  58.548 -51.379  1.00  0.00     0.031 A 
ENDBRANCH   1  32
BRANCH   6  40
HETATM   40  N   UNL     1     -44.733  60.011 -49.794  1.00  0.00    -0.384 N 
HETATM   41  H   UNL     1     -44.017  59.380 -49.448  1.00  0.00     0.157 HD
HETATM   42  H   UNL     1     -44.957  60.777 -49.172  1.00  0.00     0.157 HD
ENDBRANCH   6  40
TORSDOF 10
ENDMDL
