MODEL 1
REMARK VINA RESULT:      -7.9      0.000      0.000
REMARK  10 active torsions:
REMARK  status: ('A' for Active; 'I' for Inactive)
REMARK    1  A    between atoms: C_4  and  N_5 
REMARK    2  A    between atoms: N_5  and  C_6 
REMARK    3  A    between atoms: C_6  and  N_7 
REMARK    4  A    between atoms: N_7  and  N_8 
REMARK       I    between atoms: N_8  and  C_9 
REMARK    5  A    between atoms: C_9  and  C_10 
REMARK    6  A    between atoms: C_10  and  O_11 
REMARK    7  A    between atoms: O_11  and  C_12 
REMARK    8  A    between atoms: C_23  and  C_24 
REMARK    9  A    between atoms: C_24  and  O_25 
REMARK   10  A    between atoms: C_28  and  C_29 
ROOT
HETATM    1  C   UNL     1     -42.525  60.320 -54.423  1.00  0.00     0.191 C 
HETATM    2  S   UNL     1     -43.836  61.304 -54.800  1.00  0.00    -0.039 SA
ENDROOT
BRANCH   1   3
HETATM    3  N   UNL     1     -41.807  59.811 -55.470  1.00  0.00    -0.325 N 
HETATM    4  H   UNL     1     -40.899  60.258 -55.558  1.00  0.00     0.169 HD
BRANCH   3   5
HETATM    5  C   UNL     1     -42.274  59.228 -56.631  1.00  0.00     0.094 C 
HETATM    6  S   UNL     1     -41.710  60.068 -58.001  1.00  0.00    -0.075 SA
HETATM    7  C   UNL     1     -42.636  59.110 -59.067  1.00  0.00    -0.007 C 
HETATM    8  C   UNL     1     -42.663  59.451 -60.523  1.00  0.00     0.057 C 
HETATM    9  C   UNL     1     -43.258  58.070 -58.394  1.00  0.00     0.006 C 
HETATM   10  C   UNL     1     -42.982  58.086 -56.966  1.00  0.00     0.085 C 
BRANCH   9  11
HETATM   11  C   UNL     1     -44.106  57.111 -59.099  1.00  0.00    -0.024 A 
HETATM   12  C   UNL     1     -45.473  57.380 -59.251  1.00  0.00     0.012 A 
HETATM   13  C   UNL     1     -46.298  56.464 -59.908  1.00  0.00     0.001 A 
HETATM   14  C   UNL     1     -45.763  55.281 -60.415  1.00  0.00     0.000 A 
HETATM   15  C   UNL     1     -44.404  55.009 -60.265  1.00  0.00     0.001 A 
HETATM   16  C   UNL     1     -43.576  55.920 -59.606  1.00  0.00     0.012 A 
ENDBRANCH   9  11
BRANCH  10  17
HETATM   17  C   UNL     1     -43.340  57.016 -56.039  1.00  0.00     0.296 C 
HETATM   18  O   UNL     1     -42.925  55.869 -56.136  1.00  0.00    -0.259 OA
BRANCH  17  19
HETATM   19  O   UNL     1     -44.214  57.431 -55.078  1.00  0.00    -0.322 OA
HETATM   20  C   UNL     1     -45.449  57.940 -55.576  1.00  0.00     0.213 C 
ENDBRANCH  17  19
ENDBRANCH  10  17
ENDBRANCH   3   5
ENDBRANCH   1   3
BRANCH   1  21
HETATM   21  N   UNL     1     -42.246  59.890 -53.158  1.00  0.00    -0.273 N 
HETATM   22  H   UNL     1     -42.093  60.564 -52.409  1.00  0.00     0.189 HD
BRANCH  21  23
HETATM   23  N   UNL     1     -42.613  58.611 -52.708  1.00  0.00    -0.266 N 
HETATM   24  C   UNL     1     -41.691  57.587 -52.846  1.00  0.00     0.265 C 
HETATM   25  O   UNL     1     -40.572  57.783 -53.325  1.00  0.00    -0.269 OA
HETATM   26  H   UNL     1     -43.588  58.476 -52.458  1.00  0.00     0.190 HD
BRANCH  24  27
HETATM   27  C   UNL     1     -42.189  56.195 -52.407  1.00  0.00     0.218 C 
HETATM   28  C   UNL     1     -43.226  56.283 -51.290  1.00  0.00     0.050 C 
BRANCH  27  29
HETATM   29  O   UNL     1     -41.049  55.485 -51.902  1.00  0.00    -0.335 OA
BRANCH  29  30
HETATM   30  C   UNL     1     -40.809  54.249 -52.436  1.00  0.00     0.091 A 
HETATM   31  C   UNL     1     -40.175  53.288 -51.634  1.00  0.00     0.068 A 
HETATM   32 CL   UNL     1     -39.806  53.608 -49.977  1.00  0.00    -0.081 Cl
HETATM   33  C   UNL     1     -39.834  52.040 -52.159  1.00  0.00     0.046 A 
HETATM   34  C   UNL     1     -40.114  51.760 -53.493  1.00  0.00     0.012 A 
HETATM   35 BR   UNL     1     -39.640  50.078 -54.215  1.00  0.00    -0.051 Br
HETATM   36  C   UNL     1     -40.724  52.715 -54.306  1.00  0.00     0.022 A 
HETATM   37  C   UNL     1     -41.063  53.965 -53.781  1.00  0.00     0.040 A 
ENDBRANCH  29  30
ENDBRANCH  27  29
ENDBRANCH  24  27
ENDBRANCH  21  23
ENDBRANCH   1  21
TORSDOF 10
ENDMDL
MODEL 2
REMARK VINA RESULT:      -7.4      1.987      3.091
REMARK  10 active torsions:
REMARK  status: ('A' for Active; 'I' for Inactive)
REMARK    1  A    between atoms: C_4  and  N_5 
REMARK    2  A    between atoms: N_5  and  C_6 
REMARK    3  A    between atoms: C_6  and  N_7 
REMARK    4  A    between atoms: N_7  and  N_8 
REMARK       I    between atoms: N_8  and  C_9 
REMARK    5  A    between atoms: C_9  and  C_10 
REMARK    6  A    between atoms: C_10  and  O_11 
REMARK    7  A    between atoms: O_11  and  C_12 
REMARK    8  A    between atoms: C_23  and  C_24 
REMARK    9  A    between atoms: C_24  and  O_25 
REMARK   10  A    between atoms: C_28  and  C_29 
ROOT
HETATM    1  C   UNL     1     -43.331  59.766 -51.439  1.00  0.00     0.191 C 
HETATM    2  S   UNL     1     -42.836  61.365 -51.264  1.00  0.00    -0.039 SA
ENDROOT
BRANCH   1   3
HETATM    3  N   UNL     1     -44.316  59.516 -52.355  1.00  0.00    -0.325 N 
HETATM    4  H   UNL     1     -45.064  58.953 -51.961  1.00  0.00     0.169 HD
BRANCH   3   5
HETATM    5  C   UNL     1     -44.215  59.458 -53.731  1.00  0.00     0.094 C 
HETATM    6  S   UNL     1     -45.394  60.444 -54.466  1.00  0.00    -0.075 SA
HETATM    7  C   UNL     1     -44.966  59.921 -56.033  1.00  0.00    -0.007 C 
HETATM    8  C   UNL     1     -45.777  60.377 -57.204  1.00  0.00     0.057 C 
HETATM    9  C   UNL     1     -43.842  59.111 -56.002  1.00  0.00     0.006 C 
HETATM   10  C   UNL     1     -43.345  58.900 -54.651  1.00  0.00     0.085 C 
BRANCH   9  11
HETATM   11  C   UNL     1     -43.283  58.543 -57.227  1.00  0.00    -0.024 A 
HETATM   12  C   UNL     1     -42.393  59.303 -57.997  1.00  0.00     0.012 A 
HETATM   13  C   UNL     1     -41.864  58.779 -59.178  1.00  0.00     0.001 A 
HETATM   14  C   UNL     1     -42.221  57.497 -59.594  1.00  0.00     0.000 A 
HETATM   15  C   UNL     1     -43.108  56.738 -58.832  1.00  0.00     0.001 A 
HETATM   16  C   UNL     1     -43.641  57.259 -57.651  1.00  0.00     0.012 A 
ENDBRANCH   9  11
BRANCH  10  17
HETATM   17  C   UNL     1     -42.076  58.255 -54.325  1.00  0.00     0.296 C 
HETATM   18  O   UNL     1     -41.942  57.045 -54.208  1.00  0.00    -0.259 OA
BRANCH  17  19
HETATM   19  O   UNL     1     -41.069  59.156 -54.132  1.00  0.00    -0.322 OA
HETATM   20  C   UNL     1     -40.155  58.812 -53.093  1.00  0.00     0.213 C 
ENDBRANCH  17  19
ENDBRANCH  10  17
ENDBRANCH   3   5
ENDBRANCH   1   3
BRANCH   1  21
HETATM   21  N   UNL     1     -42.918  58.756 -50.619  1.00  0.00    -0.273 N 
HETATM   22  H   UNL     1     -43.096  58.804 -49.616  1.00  0.00     0.189 HD
BRANCH  21  23
HETATM   23  N   UNL     1     -42.690  57.455 -51.096  1.00  0.00    -0.266 N 
HETATM   24  C   UNL     1     -43.749  56.563 -51.073  1.00  0.00     0.265 C 
HETATM   25  O   UNL     1     -44.867  56.894 -50.672  1.00  0.00    -0.269 OA
HETATM   26  H   UNL     1     -41.724  57.196 -51.277  1.00  0.00     0.190 HD
BRANCH  24  27
HETATM   27  C   UNL     1     -43.407  55.131 -51.534  1.00  0.00     0.218 C 
HETATM   28  C   UNL     1     -43.843  54.081 -50.514  1.00  0.00     0.050 C 
BRANCH  27  29
HETATM   29  O   UNL     1     -41.980  55.064 -51.661  1.00  0.00    -0.335 OA
BRANCH  29  30
HETATM   30  C   UNL     1     -41.468  53.943 -52.252  1.00  0.00     0.091 A 
HETATM   31  C   UNL     1     -40.495  53.208 -51.557  1.00  0.00     0.068 A 
HETATM   32 CL   UNL     1     -40.032  53.635 -49.948  1.00  0.00    -0.081 Cl
HETATM   33  C   UNL     1     -39.881  52.104 -52.151  1.00  0.00     0.046 A 
HETATM   34  C   UNL     1     -40.231  51.744 -53.449  1.00  0.00     0.012 A 
HETATM   35 BR   UNL     1     -39.393  50.259 -54.265  1.00  0.00    -0.051 Br
HETATM   36  C   UNL     1     -41.182  52.478 -54.158  1.00  0.00     0.022 A 
HETATM   37  C   UNL     1     -41.793  53.586 -53.563  1.00  0.00     0.040 A 
ENDBRANCH  29  30
ENDBRANCH  27  29
ENDBRANCH  24  27
ENDBRANCH  21  23
ENDBRANCH   1  21
TORSDOF 10
ENDMDL
MODEL 3
REMARK VINA RESULT:      -7.1      3.447      7.299
REMARK  10 active torsions:
REMARK  status: ('A' for Active; 'I' for Inactive)
REMARK    1  A    between atoms: C_4  and  N_5 
REMARK    2  A    between atoms: N_5  and  C_6 
REMARK    3  A    between atoms: C_6  and  N_7 
REMARK    4  A    between atoms: N_7  and  N_8 
REMARK       I    between atoms: N_8  and  C_9 
REMARK    5  A    between atoms: C_9  and  C_10 
REMARK    6  A    between atoms: C_10  and  O_11 
REMARK    7  A    between atoms: O_11  and  C_12 
REMARK    8  A    between atoms: C_23  and  C_24 
REMARK    9  A    between atoms: C_24  and  O_25 
REMARK   10  A    between atoms: C_28  and  C_29 
ROOT
HETATM    1  C   UNL     1     -41.007  58.966 -51.255  1.00  0.00     0.191 C 
HETATM    2  S   UNL     1     -39.416  59.279 -50.805  1.00  0.00    -0.039 SA
ENDROOT
BRANCH   1   3
HETATM    3  N   UNL     1     -41.614  57.883 -50.681  1.00  0.00    -0.325 N 
HETATM    4  H   UNL     1     -41.960  58.094 -49.750  1.00  0.00     0.169 HD
BRANCH   3   5
HETATM    5  C   UNL     1     -41.387  56.542 -50.920  1.00  0.00     0.094 C 
HETATM    6  S   UNL     1     -41.289  55.675 -49.457  1.00  0.00    -0.075 SA
HETATM    7  C   UNL     1     -40.872  54.225 -50.254  1.00  0.00    -0.007 C 
HETATM    8  C   UNL     1     -40.516  53.020 -49.443  1.00  0.00     0.057 C 
HETATM    9  C   UNL     1     -40.947  54.370 -51.630  1.00  0.00     0.006 C 
HETATM   10  C   UNL     1     -41.330  55.716 -52.029  1.00  0.00     0.085 C 
BRANCH   9  11
HETATM   11  C   UNL     1     -40.637  53.259 -52.527  1.00  0.00    -0.024 A 
HETATM   12  C   UNL     1     -41.458  53.017 -53.636  1.00  0.00     0.012 A 
HETATM   13  C   UNL     1     -41.183  51.948 -54.493  1.00  0.00     0.001 A 
HETATM   14  C   UNL     1     -40.089  51.120 -54.246  1.00  0.00     0.000 A 
HETATM   15  C   UNL     1     -39.269  51.356 -53.143  1.00  0.00     0.001 A 
HETATM   16  C   UNL     1     -39.543  52.422 -52.283  1.00  0.00     0.012 A 
ENDBRANCH   9  11
BRANCH  10  17
HETATM   17  C   UNL     1     -41.673  56.112 -53.391  1.00  0.00     0.296 C 
HETATM   18  O   UNL     1     -40.871  56.124 -54.316  1.00  0.00    -0.259 OA
BRANCH  17  19
HETATM   19  O   UNL     1     -42.976  56.499 -53.509  1.00  0.00    -0.322 OA
HETATM   20  C   UNL     1     -43.814  55.570 -54.194  1.00  0.00     0.213 C 
ENDBRANCH  17  19
ENDBRANCH  10  17
ENDBRANCH   3   5
ENDBRANCH   1   3
BRANCH   1  21
HETATM   21  N   UNL     1     -41.650  59.632 -52.258  1.00  0.00    -0.273 N 
HETATM   22  H   UNL     1     -41.805  60.637 -52.189  1.00  0.00     0.189 HD
BRANCH  21  23
HETATM   23  N   UNL     1     -41.697  59.137 -53.571  1.00  0.00    -0.266 N 
HETATM   24  C   UNL     1     -42.116  59.998 -54.572  1.00  0.00     0.265 C 
HETATM   25  O   UNL     1     -42.417  61.170 -54.335  1.00  0.00    -0.269 OA
HETATM   26  H   UNL     1     -41.579  58.135 -53.688  1.00  0.00     0.190 HD
BRANCH  24  27
HETATM   27  C   UNL     1     -42.222  59.367 -55.975  1.00  0.00     0.218 C 
HETATM   28  C   UNL     1     -42.172  60.417 -57.082  1.00  0.00     0.050 C 
BRANCH  27  29
HETATM   29  O   UNL     1     -43.496  58.710 -56.040  1.00  0.00    -0.335 OA
BRANCH  29  30
HETATM   30  C   UNL     1     -43.725  57.920 -57.133  1.00  0.00     0.091 A 
HETATM   31  C   UNL     1     -44.905  58.121 -57.866  1.00  0.00     0.068 A 
HETATM   32 CL   UNL     1     -45.993  59.406 -57.475  1.00  0.00    -0.081 Cl
HETATM   33  C   UNL     1     -45.225  57.288 -58.938  1.00  0.00     0.046 A 
HETATM   34  C   UNL     1     -44.369  56.241 -59.269  1.00  0.00     0.012 A 
HETATM   35 BR   UNL     1     -44.803  55.098 -60.711  1.00  0.00    -0.051 Br
HETATM   36  C   UNL     1     -43.204  56.018 -58.536  1.00  0.00     0.022 A 
HETATM   37  C   UNL     1     -42.886  56.852 -57.460  1.00  0.00     0.040 A 
ENDBRANCH  29  30
ENDBRANCH  27  29
ENDBRANCH  24  27
ENDBRANCH  21  23
ENDBRANCH   1  21
TORSDOF 10
ENDMDL
MODEL 4
REMARK VINA RESULT:      -7.1      2.951      6.084
REMARK  10 active torsions:
REMARK  status: ('A' for Active; 'I' for Inactive)
REMARK    1  A    between atoms: C_4  and  N_5 
REMARK    2  A    between atoms: N_5  and  C_6 
REMARK    3  A    between atoms: C_6  and  N_7 
REMARK    4  A    between atoms: N_7  and  N_8 
REMARK       I    between atoms: N_8  and  C_9 
REMARK    5  A    between atoms: C_9  and  C_10 
REMARK    6  A    between atoms: C_10  and  O_11 
REMARK    7  A    between atoms: O_11  and  C_12 
REMARK    8  A    between atoms: C_23  and  C_24 
REMARK    9  A    between atoms: C_24  and  O_25 
REMARK   10  A    between atoms: C_28  and  C_29 
ROOT
HETATM    1  C   UNL     1     -42.746  58.164 -55.864  1.00  0.00     0.191 C 
HETATM    2  S   UNL     1     -42.496  57.920 -57.511  1.00  0.00    -0.039 SA
ENDROOT
BRANCH   1   3
HETATM    3  N   UNL     1     -41.900  59.031 -55.229  1.00  0.00    -0.325 N 
HETATM    4  H   UNL     1     -40.953  58.966 -55.587  1.00  0.00     0.169 HD
BRANCH   3   5
HETATM    5  C   UNL     1     -41.997  59.545 -53.951  1.00  0.00     0.094 C 
HETATM    6  S   UNL     1     -40.743  58.951 -52.963  1.00  0.00    -0.075 SA
HETATM    7  C   UNL     1     -41.376  59.708 -51.571  1.00  0.00    -0.007 C 
HETATM    8  C   UNL     1     -40.734  59.454 -50.244  1.00  0.00     0.057 C 
HETATM    9  C   UNL     1     -42.453  60.520 -51.887  1.00  0.00     0.006 C 
HETATM   10  C   UNL     1     -42.774  60.492 -53.306  1.00  0.00     0.085 C 
BRANCH   9  11
HETATM   11  C   UNL     1     -43.161  61.277 -50.856  1.00  0.00    -0.024 A 
HETATM   12  C   UNL     1     -44.216  60.673 -50.160  1.00  0.00     0.012 A 
HETATM   13  C   UNL     1     -44.912  61.390 -49.183  1.00  0.00     0.001 A 
HETATM   14  C   UNL     1     -44.557  62.708 -48.900  1.00  0.00     0.000 A 
HETATM   15  C   UNL     1     -43.509  63.313 -49.592  1.00  0.00     0.001 A 
HETATM   16  C   UNL     1     -42.812  62.601 -50.570  1.00  0.00     0.012 A 
ENDBRANCH   9  11
BRANCH  10  17
HETATM   17  C   UNL     1     -43.726  61.385 -53.959  1.00  0.00     0.296 C 
HETATM   18  O   UNL     1     -43.498  62.564 -54.196  1.00  0.00    -0.259 OA
BRANCH  17  19
HETATM   19  O   UNL     1     -44.910  60.767 -54.242  1.00  0.00    -0.322 OA
HETATM   20  C   UNL     1     -45.315  60.852 -55.606  1.00  0.00     0.213 C 
ENDBRANCH  17  19
ENDBRANCH  10  17
ENDBRANCH   3   5
ENDBRANCH   1   3
BRANCH   1  21
HETATM   21  N   UNL     1     -43.630  57.437 -55.122  1.00  0.00    -0.273 N 
HETATM   22  H   UNL     1     -44.612  57.390 -55.394  1.00  0.00     0.189 HD
BRANCH  21  23
HETATM   23  N   UNL     1     -43.217  56.380 -54.294  1.00  0.00    -0.266 N 
HETATM   24  C   UNL     1     -43.584  56.422 -52.959  1.00  0.00     0.265 C 
HETATM   25  O   UNL     1     -44.271  57.340 -52.504  1.00  0.00    -0.269 OA
HETATM   26  H   UNL     1     -42.539  55.732 -54.683  1.00  0.00     0.190 HD
BRANCH  24  27
HETATM   27  C   UNL     1     -43.028  55.274 -52.092  1.00  0.00     0.218 C 
HETATM   28  C   UNL     1     -43.159  55.568 -50.599  1.00  0.00     0.050 C 
BRANCH  27  29
HETATM   29  O   UNL     1     -41.633  55.155 -52.404  1.00  0.00    -0.335 OA
BRANCH  29  30
HETATM   30  C   UNL     1     -41.193  53.921 -52.793  1.00  0.00     0.091 A 
HETATM   31  C   UNL     1     -40.322  53.224 -51.941  1.00  0.00     0.068 A 
HETATM   32 CL   UNL     1     -39.899  53.850 -50.387  1.00  0.00    -0.081 Cl
HETATM   33  C   UNL     1     -39.780  51.998 -52.330  1.00  0.00     0.046 A 
HETATM   34  C   UNL     1     -40.099  51.475 -53.580  1.00  0.00     0.012 A 
HETATM   35 BR   UNL     1     -39.356  49.823 -54.120  1.00  0.00    -0.051 Br
HETATM   36  C   UNL     1     -40.947  52.168 -54.444  1.00  0.00     0.022 A 
HETATM   37  C   UNL     1     -41.487  53.397 -54.055  1.00  0.00     0.040 A 
ENDBRANCH  29  30
ENDBRANCH  27  29
ENDBRANCH  24  27
ENDBRANCH  21  23
ENDBRANCH   1  21
TORSDOF 10
ENDMDL
MODEL 5
REMARK VINA RESULT:      -7.1      3.299      5.085
REMARK  10 active torsions:
REMARK  status: ('A' for Active; 'I' for Inactive)
REMARK    1  A    between atoms: C_4  and  N_5 
REMARK    2  A    between atoms: N_5  and  C_6 
REMARK    3  A    between atoms: C_6  and  N_7 
REMARK    4  A    between atoms: N_7  and  N_8 
REMARK       I    between atoms: N_8  and  C_9 
REMARK    5  A    between atoms: C_9  and  C_10 
REMARK    6  A    between atoms: C_10  and  O_11 
REMARK    7  A    between atoms: O_11  and  C_12 
REMARK    8  A    between atoms: C_23  and  C_24 
REMARK    9  A    between atoms: C_24  and  O_25 
REMARK   10  A    between atoms: C_28  and  C_29 
ROOT
HETATM    1  C   UNL     1     -43.220  56.147 -58.553  1.00  0.00     0.191 C 
HETATM    2  S   UNL     1     -44.183  55.582 -59.813  1.00  0.00    -0.039 SA
ENDROOT
BRANCH   1   3
HETATM    3  N   UNL     1     -42.130  56.901 -58.893  1.00  0.00    -0.325 N 
HETATM    4  H   UNL     1     -41.266  56.491 -58.550  1.00  0.00     0.169 HD
BRANCH   3   5
HETATM    5  C   UNL     1     -42.065  58.258 -59.139  1.00  0.00     0.094 C 
HETATM    6  S   UNL     1     -42.191  58.577 -60.808  1.00  0.00    -0.075 SA
HETATM    7  C   UNL     1     -41.913  60.247 -60.588  1.00  0.00    -0.007 C 
HETATM    8  C   UNL     1     -41.780  61.131 -61.787  1.00  0.00     0.057 C 
HETATM    9  C   UNL     1     -41.866  60.574 -59.242  1.00  0.00     0.006 C 
HETATM   10  C   UNL     1     -42.037  59.415 -58.380  1.00  0.00     0.085 C 
BRANCH   9  11
HETATM   11  C   UNL     1     -41.640  61.950 -58.805  1.00  0.00    -0.024 A 
HETATM   12  C   UNL     1     -40.336  62.460 -58.775  1.00  0.00     0.012 A 
HETATM   13  C   UNL     1     -40.104  63.768 -58.344  1.00  0.00     0.001 A 
HETATM   14  C   UNL     1     -41.171  64.570 -57.941  1.00  0.00     0.000 A 
HETATM   15  C   UNL     1     -42.471  64.066 -57.967  1.00  0.00     0.001 A 
HETATM   16  C   UNL     1     -42.707  62.758 -58.395  1.00  0.00     0.012 A 
ENDBRANCH   9  11
BRANCH  10  17
HETATM   17  C   UNL     1     -42.223  59.477 -56.933  1.00  0.00     0.296 C 
HETATM   18  O   UNL     1     -41.454  60.051 -56.175  1.00  0.00    -0.259 OA
BRANCH  17  19
HETATM   19  O   UNL     1     -43.330  58.793 -56.521  1.00  0.00    -0.322 OA
HETATM   20  C   UNL     1     -44.568  59.447 -56.791  1.00  0.00     0.213 C 
ENDBRANCH  17  19
ENDBRANCH  10  17
ENDBRANCH   3   5
ENDBRANCH   1   3
BRANCH   1  21
HETATM   21  N   UNL     1     -43.383  55.769 -57.252  1.00  0.00    -0.273 N 
HETATM   22  H   UNL     1     -44.307  55.514 -56.905  1.00  0.00     0.189 HD
BRANCH  21  23
HETATM   23  N   UNL     1     -42.325  55.253 -56.487  1.00  0.00    -0.266 N 
HETATM   24  C   UNL     1     -42.489  55.191 -55.113  1.00  0.00     0.265 C 
HETATM   25  O   UNL     1     -43.535  55.552 -54.569  1.00  0.00    -0.269 OA
HETATM   26  H   UNL     1     -41.441  55.107 -56.967  1.00  0.00     0.190 HD
BRANCH  24  27
HETATM   27  C   UNL     1     -41.258  54.692 -54.329  1.00  0.00     0.218 C 
HETATM   28  C   UNL     1     -40.198  54.091 -55.249  1.00  0.00     0.050 C 
BRANCH  27  29
HETATM   29  O   UNL     1     -41.719  53.661 -53.444  1.00  0.00    -0.335 OA
BRANCH  29  30
HETATM   30  C   UNL     1     -41.379  53.787 -52.126  1.00  0.00     0.091 A 
HETATM   31  C   UNL     1     -40.408  52.920 -51.602  1.00  0.00     0.068 A 
HETATM   32 CL   UNL     1     -39.574  51.795 -52.614  1.00  0.00    -0.081 Cl
HETATM   33  C   UNL     1     -40.087  52.952 -50.244  1.00  0.00     0.046 A 
HETATM   34  C   UNL     1     -40.750  53.844 -49.406  1.00  0.00     0.012 A 
HETATM   35 BR   UNL     1     -40.331  53.882 -47.563  1.00  0.00    -0.051 Br
HETATM   36  C   UNL     1     -41.732  54.696 -49.910  1.00  0.00     0.022 A 
HETATM   37  C   UNL     1     -42.055  54.661 -51.270  1.00  0.00     0.040 A 
ENDBRANCH  29  30
ENDBRANCH  27  29
ENDBRANCH  24  27
ENDBRANCH  21  23
ENDBRANCH   1  21
TORSDOF 10
ENDMDL
MODEL 6
REMARK VINA RESULT:      -6.9      2.908      4.645
REMARK  10 active torsions:
REMARK  status: ('A' for Active; 'I' for Inactive)
REMARK    1  A    between atoms: C_4  and  N_5 
REMARK    2  A    between atoms: N_5  and  C_6 
REMARK    3  A    between atoms: C_6  and  N_7 
REMARK    4  A    between atoms: N_7  and  N_8 
REMARK       I    between atoms: N_8  and  C_9 
REMARK    5  A    between atoms: C_9  and  C_10 
REMARK    6  A    between atoms: C_10  and  O_11 
REMARK    7  A    between atoms: O_11  and  C_12 
REMARK    8  A    between atoms: C_23  and  C_24 
REMARK    9  A    between atoms: C_24  and  O_25 
REMARK   10  A    between atoms: C_28  and  C_29 
ROOT
HETATM    1  C   UNL     1     -43.438  56.314 -58.234  1.00  0.00     0.191 C 
HETATM    2  S   UNL     1     -43.883  55.143 -59.357  1.00  0.00    -0.039 SA
ENDROOT
BRANCH   1   3
HETATM    3  N   UNL     1     -42.299  57.025 -58.494  1.00  0.00    -0.325 N 
HETATM    4  H   UNL     1     -41.495  56.641 -58.007  1.00  0.00     0.169 HD
BRANCH   3   5
HETATM    5  C   UNL     1     -42.176  58.354 -58.849  1.00  0.00     0.094 C 
HETATM    6  S   UNL     1     -42.257  58.539 -60.540  1.00  0.00    -0.075 SA
HETATM    7  C   UNL     1     -41.918  60.209 -60.451  1.00  0.00    -0.007 C 
HETATM    8  C   UNL     1     -41.728  60.985 -61.715  1.00  0.00     0.057 C 
HETATM    9  C   UNL     1     -41.884  60.645 -59.136  1.00  0.00     0.006 C 
HETATM   10  C   UNL     1     -42.117  59.568 -58.186  1.00  0.00     0.085 C 
BRANCH   9  11
HETATM   11  C   UNL     1     -41.613  62.043 -58.808  1.00  0.00    -0.024 A 
HETATM   12  C   UNL     1     -40.287  62.484 -58.711  1.00  0.00     0.012 A 
HETATM   13  C   UNL     1     -40.013  63.814 -58.381  1.00  0.00     0.001 A 
HETATM   14  C   UNL     1     -41.060  64.705 -58.149  1.00  0.00     0.000 A 
HETATM   15  C   UNL     1     -42.381  64.270 -58.243  1.00  0.00     0.001 A 
HETATM   16  C   UNL     1     -42.659  62.941 -58.569  1.00  0.00     0.012 A 
ENDBRANCH   9  11
BRANCH  10  17
HETATM   17  C   UNL     1     -42.328  59.756 -56.754  1.00  0.00     0.296 C 
HETATM   18  O   UNL     1     -41.495  60.248 -56.005  1.00  0.00    -0.259 OA
BRANCH  17  19
HETATM   19  O   UNL     1     -43.542  59.289 -56.341  1.00  0.00    -0.322 OA
HETATM   20  C   UNL     1     -44.639  60.155 -56.622  1.00  0.00     0.213 C 
ENDBRANCH  17  19
ENDBRANCH  10  17
ENDBRANCH   3   5
ENDBRANCH   1   3
BRANCH   1  21
HETATM   21  N   UNL     1     -44.059  56.477 -57.029  1.00  0.00    -0.273 N 
HETATM   22  H   UNL     1     -45.076  56.439 -56.967  1.00  0.00     0.189 HD
BRANCH  21  23
HETATM   23  N   UNL     1     -43.404  56.223 -55.813  1.00  0.00    -0.266 N 
HETATM   24  C   UNL     1     -44.090  56.494 -54.640  1.00  0.00     0.265 C 
HETATM   25  O   UNL     1     -45.246  56.921 -54.649  1.00  0.00    -0.269 OA
HETATM   26  H   UNL     1     -42.412  56.011 -55.862  1.00  0.00     0.190 HD
BRANCH  24  27
HETATM   27  C   UNL     1     -43.283  56.270 -53.345  1.00  0.00     0.218 C 
HETATM   28  C   UNL     1     -43.285  57.506 -52.448  1.00  0.00     0.050 C 
BRANCH  27  29
HETATM   29  O   UNL     1     -41.929  56.006 -53.739  1.00  0.00    -0.335 OA
BRANCH  29  30
HETATM   30  C   UNL     1     -41.451  54.749 -53.489  1.00  0.00     0.091 A 
HETATM   31  C   UNL     1     -40.903  54.483 -52.225  1.00  0.00     0.068 A 
HETATM   32 CL   UNL     1     -40.931  55.670 -50.970  1.00  0.00    -0.081 Cl
HETATM   33  C   UNL     1     -40.327  53.242 -51.948  1.00  0.00     0.046 A 
HETATM   34  C   UNL     1     -40.286  52.270 -52.944  1.00  0.00     0.012 A 
HETATM   35 BR   UNL     1     -39.494  50.593 -52.583  1.00  0.00    -0.051 Br
HETATM   36  C   UNL     1     -40.809  52.530 -54.211  1.00  0.00     0.022 A 
HETATM   37  C   UNL     1     -41.382  53.775 -54.488  1.00  0.00     0.040 A 
ENDBRANCH  29  30
ENDBRANCH  27  29
ENDBRANCH  24  27
ENDBRANCH  21  23
ENDBRANCH   1  21
TORSDOF 10
ENDMDL
MODEL 7
REMARK VINA RESULT:      -6.8      2.607      3.988
REMARK  10 active torsions:
REMARK  status: ('A' for Active; 'I' for Inactive)
REMARK    1  A    between atoms: C_4  and  N_5 
REMARK    2  A    between atoms: N_5  and  C_6 
REMARK    3  A    between atoms: C_6  and  N_7 
REMARK    4  A    between atoms: N_7  and  N_8 
REMARK       I    between atoms: N_8  and  C_9 
REMARK    5  A    between atoms: C_9  and  C_10 
REMARK    6  A    between atoms: C_10  and  O_11 
REMARK    7  A    between atoms: O_11  and  C_12 
REMARK    8  A    between atoms: C_23  and  C_24 
REMARK    9  A    between atoms: C_24  and  O_25 
REMARK   10  A    between atoms: C_28  and  C_29 
ROOT
HETATM    1  C   UNL     1     -45.238  57.981 -55.231  1.00  0.00     0.191 C 
HETATM    2  S   UNL     1     -45.138  59.407 -54.343  1.00  0.00    -0.039 SA
ENDROOT
BRANCH   1   3
HETATM    3  N   UNL     1     -45.516  58.097 -56.565  1.00  0.00    -0.325 N 
HETATM    4  H   UNL     1     -46.310  57.524 -56.837  1.00  0.00     0.169 HD
BRANCH   3   5
HETATM    5  C   UNL     1     -44.658  58.416 -57.598  1.00  0.00     0.094 C 
HETATM    6  S   UNL     1     -43.857  57.026 -58.171  1.00  0.00    -0.075 SA
HETATM    7  C   UNL     1     -42.882  57.932 -59.239  1.00  0.00    -0.007 C 
HETATM    8  C   UNL     1     -41.803  57.241 -60.010  1.00  0.00     0.057 C 
HETATM    9  C   UNL     1     -43.265  59.264 -59.259  1.00  0.00     0.006 C 
HETATM   10  C   UNL     1     -44.368  59.540 -58.352  1.00  0.00     0.085 C 
BRANCH   9  11
HETATM   11  C   UNL     1     -42.576  60.238 -60.103  1.00  0.00    -0.024 A 
HETATM   12  C   UNL     1     -41.616  61.086 -59.536  1.00  0.00     0.012 A 
HETATM   13  C   UNL     1     -40.961  62.033 -60.328  1.00  0.00     0.001 A 
HETATM   14  C   UNL     1     -41.263  62.135 -61.685  1.00  0.00     0.000 A 
HETATM   15  C   UNL     1     -42.219  61.294 -62.254  1.00  0.00     0.001 A 
HETATM   16  C   UNL     1     -42.877  60.348 -61.465  1.00  0.00     0.012 A 
ENDBRANCH   9  11
BRANCH  10  17
HETATM   17  C   UNL     1     -45.104  60.800 -58.299  1.00  0.00     0.296 C 
HETATM   18  O   UNL     1     -45.708  61.272 -59.253  1.00  0.00    -0.259 OA
BRANCH  17  19
HETATM   19  O   UNL     1     -45.011  61.407 -57.081  1.00  0.00    -0.322 OA
HETATM   20  C   UNL     1     -43.996  62.404 -56.987  1.00  0.00     0.213 C 
ENDBRANCH  17  19
ENDBRANCH  10  17
ENDBRANCH   3   5
ENDBRANCH   1   3
BRANCH   1  21
HETATM   21  N   UNL     1     -45.210  56.739 -54.666  1.00  0.00    -0.273 N 
HETATM   22  H   UNL     1     -45.401  55.913 -55.232  1.00  0.00     0.189 HD
BRANCH  21  23
HETATM   23  N   UNL     1     -44.487  56.471 -53.492  1.00  0.00    -0.266 N 
HETATM   24  C   UNL     1     -43.189  56.004 -53.624  1.00  0.00     0.265 C 
HETATM   25  O   UNL     1     -42.666  55.848 -54.730  1.00  0.00    -0.269 OA
HETATM   26  H   UNL     1     -45.008  56.478 -52.621  1.00  0.00     0.190 HD
BRANCH  24  27
HETATM   27  C   UNL     1     -42.483  55.652 -52.299  1.00  0.00     0.218 C 
HETATM   28  C   UNL     1     -42.460  56.833 -51.331  1.00  0.00     0.050 C 
BRANCH  27  29
HETATM   29  O   UNL     1     -41.127  55.317 -52.627  1.00  0.00    -0.335 OA
BRANCH  29  30
HETATM   30  C   UNL     1     -40.683  54.089 -52.223  1.00  0.00     0.091 A 
HETATM   31  C   UNL     1     -40.249  53.181 -53.201  1.00  0.00     0.068 A 
HETATM   32 CL   UNL     1     -40.163  53.634 -54.867  1.00  0.00    -0.081 Cl
HETATM   33  C   UNL     1     -39.865  51.887 -52.848  1.00  0.00     0.046 A 
HETATM   34  C   UNL     1     -39.931  51.495 -51.514  1.00  0.00     0.012 A 
HETATM   35 BR   UNL     1     -39.428  49.738 -51.030  1.00  0.00    -0.051 Br
HETATM   36  C   UNL     1     -40.381  52.380 -50.535  1.00  0.00     0.022 A 
HETATM   37  C   UNL     1     -40.768  53.676 -50.891  1.00  0.00     0.040 A 
ENDBRANCH  29  30
ENDBRANCH  27  29
ENDBRANCH  24  27
ENDBRANCH  21  23
ENDBRANCH   1  21
TORSDOF 10
ENDMDL
MODEL 8
REMARK VINA RESULT:      -6.8      4.201      8.083
REMARK  10 active torsions:
REMARK  status: ('A' for Active; 'I' for Inactive)
REMARK    1  A    between atoms: C_4  and  N_5 
REMARK    2  A    between atoms: N_5  and  C_6 
REMARK    3  A    between atoms: C_6  and  N_7 
REMARK    4  A    between atoms: N_7  and  N_8 
REMARK       I    between atoms: N_8  and  C_9 
REMARK    5  A    between atoms: C_9  and  C_10 
REMARK    6  A    between atoms: C_10  and  O_11 
REMARK    7  A    between atoms: O_11  and  C_12 
REMARK    8  A    between atoms: C_23  and  C_24 
REMARK    9  A    between atoms: C_24  and  O_25 
REMARK   10  A    between atoms: C_28  and  C_29 
ROOT
HETATM    1  C   UNL     1     -43.003  57.774 -51.648  1.00  0.00     0.191 C 
HETATM    2  S   UNL     1     -44.526  57.117 -51.363  1.00  0.00    -0.039 SA
ENDROOT
BRANCH   1   3
HETATM    3  N   UNL     1     -41.922  57.003 -51.323  1.00  0.00    -0.325 N 
HETATM    4  H   UNL     1     -41.246  57.516 -50.765  1.00  0.00     0.169 HD
BRANCH   3   5
HETATM    5  C   UNL     1     -41.402  55.920 -52.003  1.00  0.00     0.094 C 
HETATM    6  S   UNL     1     -40.927  56.366 -53.578  1.00  0.00    -0.075 SA
HETATM    7  C   UNL     1     -40.540  54.759 -54.000  1.00  0.00    -0.007 C 
HETATM    8  C   UNL     1     -40.138  54.448 -55.407  1.00  0.00     0.057 C 
HETATM    9  C   UNL     1     -40.638  53.915 -52.905  1.00  0.00     0.006 C 
HETATM   10  C   UNL     1     -41.068  54.611 -51.702  1.00  0.00     0.085 C 
BRANCH   9  11
HETATM   11  C   UNL     1     -40.351  52.487 -53.021  1.00  0.00    -0.024 A 
HETATM   12  C   UNL     1     -39.631  51.843 -52.006  1.00  0.00     0.012 A 
HETATM   13  C   UNL     1     -39.335  50.482 -52.111  1.00  0.00     0.001 A 
HETATM   14  C   UNL     1     -39.756  49.761 -53.227  1.00  0.00     0.000 A 
HETATM   15  C   UNL     1     -40.471  50.398 -54.241  1.00  0.00     0.001 A 
HETATM   16  C   UNL     1     -40.767  51.759 -54.140  1.00  0.00     0.012 A 
ENDBRANCH   9  11
BRANCH  10  17
HETATM   17  C   UNL     1     -41.076  54.028 -50.364  1.00  0.00     0.296 C 
HETATM   18  O   UNL     1     -42.011  53.379 -49.913  1.00  0.00    -0.259 OA
BRANCH  17  19
HETATM   19  O   UNL     1     -39.942  54.317 -49.663  1.00  0.00    -0.322 OA
HETATM   20  C   UNL     1     -40.033  54.080 -48.260  1.00  0.00     0.213 C 
ENDBRANCH  17  19
ENDBRANCH  10  17
ENDBRANCH   3   5
ENDBRANCH   1   3
BRANCH   1  21
HETATM   21  N   UNL     1     -42.802  59.068 -52.033  1.00  0.00    -0.273 N 
HETATM   22  H   UNL     1     -42.115  59.646 -51.550  1.00  0.00     0.189 HD
BRANCH  21  23
HETATM   23  N   UNL     1     -43.119  59.519 -53.325  1.00  0.00    -0.266 N 
HETATM   24  C   UNL     1     -42.074  59.897 -54.152  1.00  0.00     0.265 C 
HETATM   25  O   UNL     1     -40.898  59.823 -53.787  1.00  0.00    -0.269 OA
HETATM   26  H   UNL     1     -44.099  59.696 -53.522  1.00  0.00     0.190 HD
BRANCH  24  27
HETATM   27  C   UNL     1     -42.497  60.459 -55.525  1.00  0.00     0.218 C 
HETATM   28  C   UNL     1     -43.945  60.114 -55.864  1.00  0.00     0.050 C 
BRANCH  27  29
HETATM   29  O   UNL     1     -41.650  59.842 -56.505  1.00  0.00    -0.335 OA
BRANCH  29  30
HETATM   30  C   UNL     1     -41.687  60.368 -57.767  1.00  0.00     0.091 A 
HETATM   31  C   UNL     1     -42.051  59.527 -58.830  1.00  0.00     0.068 A 
HETATM   32 CL   UNL     1     -42.552  57.898 -58.550  1.00  0.00    -0.081 Cl
HETATM   33  C   UNL     1     -42.023  59.993 -60.145  1.00  0.00     0.046 A 
HETATM   34  C   UNL     1     -41.616  61.300 -60.398  1.00  0.00     0.012 A 
HETATM   35 BR   UNL     1     -41.561  61.934 -62.178  1.00  0.00    -0.051 Br
HETATM   36  C   UNL     1     -41.232  62.140 -59.353  1.00  0.00     0.022 A 
HETATM   37  C   UNL     1     -41.257  61.670 -58.036  1.00  0.00     0.040 A 
ENDBRANCH  29  30
ENDBRANCH  27  29
ENDBRANCH  24  27
ENDBRANCH  21  23
ENDBRANCH   1  21
TORSDOF 10
ENDMDL
MODEL 9
REMARK VINA RESULT:      -6.7      3.528      7.157
REMARK  10 active torsions:
REMARK  status: ('A' for Active; 'I' for Inactive)
REMARK    1  A    between atoms: C_4  and  N_5 
REMARK    2  A    between atoms: N_5  and  C_6 
REMARK    3  A    between atoms: C_6  and  N_7 
REMARK    4  A    between atoms: N_7  and  N_8 
REMARK       I    between atoms: N_8  and  C_9 
REMARK    5  A    between atoms: C_9  and  C_10 
REMARK    6  A    between atoms: C_10  and  O_11 
REMARK    7  A    between atoms: O_11  and  C_12 
REMARK    8  A    between atoms: C_23  and  C_24 
REMARK    9  A    between atoms: C_24  and  O_25 
REMARK   10  A    between atoms: C_28  and  C_29 
ROOT
HETATM    1  C   UNL     1     -43.212  61.397 -54.931  1.00  0.00     0.191 C 
HETATM    2  S   UNL     1     -44.626  61.466 -54.019  1.00  0.00    -0.039 SA
ENDROOT
BRANCH   1   3
HETATM    3  N   UNL     1     -42.120  60.823 -54.341  1.00  0.00    -0.325 N 
HETATM    4  H   UNL     1     -41.260  61.303 -54.592  1.00  0.00     0.169 HD
BRANCH   3   5
HETATM    5  C   UNL     1     -41.950  59.516 -53.933  1.00  0.00     0.094 C 
HETATM    6  S   UNL     1     -41.668  59.438 -52.254  1.00  0.00    -0.075 SA
HETATM    7  C   UNL     1     -41.389  57.755 -52.301  1.00  0.00    -0.007 C 
HETATM    8  C   UNL     1     -40.947  57.052 -51.057  1.00  0.00     0.057 C 
HETATM    9  C   UNL     1     -41.648  57.238 -53.560  1.00  0.00     0.006 C 
HETATM   10  C   UNL     1     -42.059  58.262 -54.509  1.00  0.00     0.085 C 
BRANCH   9  11
HETATM   11  C   UNL     1     -41.481  55.814 -53.844  1.00  0.00    -0.024 A 
HETATM   12  C   UNL     1     -42.422  54.898 -53.355  1.00  0.00     0.012 A 
HETATM   13  C   UNL     1     -42.267  53.533 -53.604  1.00  0.00     0.001 A 
HETATM   14  C   UNL     1     -41.174  53.078 -54.341  1.00  0.00     0.000 A 
HETATM   15  C   UNL     1     -40.234  53.986 -54.828  1.00  0.00     0.001 A 
HETATM   16  C   UNL     1     -40.385  55.352 -54.579  1.00  0.00     0.012 A 
ENDBRANCH   9  11
BRANCH  10  17
HETATM   17  C   UNL     1     -42.577  57.993 -55.847  1.00  0.00     0.296 C 
HETATM   18  O   UNL     1     -41.998  58.316 -56.875  1.00  0.00    -0.259 OA
BRANCH  17  19
HETATM   19  O   UNL     1     -43.793  57.374 -55.820  1.00  0.00    -0.322 OA
HETATM   20  C   UNL     1     -44.862  58.139 -56.372  1.00  0.00     0.213 C 
ENDBRANCH  17  19
ENDBRANCH  10  17
ENDBRANCH   3   5
ENDBRANCH   1   3
BRANCH   1  21
HETATM   21  N   UNL     1     -43.067  62.010 -56.141  1.00  0.00    -0.273 N 
HETATM   22  H   UNL     1     -43.224  63.014 -56.230  1.00  0.00     0.189 HD
BRANCH  21  23
HETATM   23  N   UNL     1     -42.270  61.466 -57.162  1.00  0.00    -0.266 N 
HETATM   24  C   UNL     1     -42.737  61.553 -58.463  1.00  0.00     0.265 C 
HETATM   25  O   UNL     1     -43.803  62.110 -58.733  1.00  0.00    -0.269 OA
HETATM   26  H   UNL     1     -41.480  60.897 -56.873  1.00  0.00     0.190 HD
BRANCH  24  27
HETATM   27  C   UNL     1     -41.853  60.863 -59.522  1.00  0.00     0.218 C 
HETATM   28  C   UNL     1     -40.917  61.849 -60.218  1.00  0.00     0.050 C 
BRANCH  27  29
HETATM   29  O   UNL     1     -42.739  60.315 -60.510  1.00  0.00    -0.335 OA
BRANCH  29  30
HETATM   30  C   UNL     1     -43.071  58.996 -60.372  1.00  0.00     0.091 A 
HETATM   31  C   UNL     1     -44.430  58.655 -60.292  1.00  0.00     0.068 A 
HETATM   32 CL   UNL     1     -45.664  59.850 -60.477  1.00  0.00    -0.081 Cl
HETATM   33  C   UNL     1     -44.817  57.334 -60.067  1.00  0.00     0.046 A 
HETATM   34  C   UNL     1     -43.842  56.353 -59.908  1.00  0.00     0.012 A 
HETATM   35 BR   UNL     1     -44.359  54.563 -59.588  1.00  0.00    -0.051 Br
HETATM   36  C   UNL     1     -42.488  56.682 -59.965  1.00  0.00     0.022 A 
HETATM   37  C   UNL     1     -42.101  58.007 -60.186  1.00  0.00     0.040 A 
ENDBRANCH  29  30
ENDBRANCH  27  29
ENDBRANCH  24  27
ENDBRANCH  21  23
ENDBRANCH   1  21
TORSDOF 10
ENDMDL
MODEL 10
REMARK VINA RESULT:      -6.6      3.660      7.907
REMARK  10 active torsions:
REMARK  status: ('A' for Active; 'I' for Inactive)
REMARK    1  A    between atoms: C_4  and  N_5 
REMARK    2  A    between atoms: N_5  and  C_6 
REMARK    3  A    between atoms: C_6  and  N_7 
REMARK    4  A    between atoms: N_7  and  N_8 
REMARK       I    between atoms: N_8  and  C_9 
REMARK    5  A    between atoms: C_9  and  C_10 
REMARK    6  A    between atoms: C_10  and  O_11 
REMARK    7  A    between atoms: O_11  and  C_12 
REMARK    8  A    between atoms: C_23  and  C_24 
REMARK    9  A    between atoms: C_24  and  O_25 
REMARK   10  A    between atoms: C_28  and  C_29 
ROOT
HETATM    1  C   UNL     1     -43.872  60.074 -53.318  1.00  0.00     0.191 C 
HETATM    2  S   UNL     1     -43.186  61.603 -53.480  1.00  0.00    -0.039 SA
ENDROOT
BRANCH   1   3
HETATM    3  N   UNL     1     -43.755  59.466 -52.099  1.00  0.00    -0.325 N 
HETATM    4  H   UNL     1     -43.546  60.133 -51.362  1.00  0.00     0.169 HD
BRANCH   3   5
HETATM    5  C   UNL     1     -43.384  58.166 -51.818  1.00  0.00     0.094 C 
HETATM    6  S   UNL     1     -44.708  57.273 -51.226  1.00  0.00    -0.075 SA
HETATM    7  C   UNL     1     -43.743  55.901 -50.913  1.00  0.00    -0.007 C 
HETATM    8  C   UNL     1     -44.351  54.720 -50.226  1.00  0.00     0.057 C 
HETATM    9  C   UNL     1     -42.453  56.077 -51.387  1.00  0.00     0.006 C 
HETATM   10  C   UNL     1     -42.256  57.383 -51.997  1.00  0.00     0.085 C 
BRANCH   9  11
HETATM   11  C   UNL     1     -41.441  55.033 -51.236  1.00  0.00    -0.024 A 
HETATM   12  C   UNL     1     -41.314  54.046 -52.222  1.00  0.00     0.012 A 
HETATM   13  C   UNL     1     -40.363  53.033 -52.083  1.00  0.00     0.001 A 
HETATM   14  C   UNL     1     -39.537  53.002 -50.961  1.00  0.00     0.000 A 
HETATM   15  C   UNL     1     -39.660  53.981 -49.975  1.00  0.00     0.001 A 
HETATM   16  C   UNL     1     -40.612  54.994 -50.110  1.00  0.00     0.012 A 
ENDBRANCH   9  11
BRANCH  10  17
HETATM   17  C   UNL     1     -41.068  57.777 -52.748  1.00  0.00     0.296 C 
HETATM   18  O   UNL     1     -40.610  57.130 -53.680  1.00  0.00    -0.259 OA
BRANCH  17  19
HETATM   19  O   UNL     1     -40.510  58.927 -52.272  1.00  0.00    -0.322 OA
HETATM   20  C   UNL     1     -39.946  58.818 -50.967  1.00  0.00     0.213 C 
ENDBRANCH  17  19
ENDBRANCH  10  17
ENDBRANCH   3   5
ENDBRANCH   1   3
BRANCH   1  21
HETATM   21  N   UNL     1     -44.388  59.366 -54.365  1.00  0.00    -0.273 N 
HETATM   22  H   UNL     1     -45.285  59.632 -54.771  1.00  0.00     0.189 HD
BRANCH  21  23
HETATM   23  N   UNL     1     -43.578  58.605 -55.222  1.00  0.00    -0.266 N 
HETATM   24  C   UNL     1     -44.190  57.945 -56.275  1.00  0.00     0.265 C 
HETATM   25  O   UNL     1     -45.403  58.033 -56.477  1.00  0.00    -0.269 OA
HETATM   26  H   UNL     1     -42.618  58.450 -54.929  1.00  0.00     0.190 HD
BRANCH  24  27
HETATM   27  C   UNL     1     -43.255  57.063 -57.127  1.00  0.00     0.218 C 
HETATM   28  C   UNL     1     -42.863  55.776 -56.403  1.00  0.00     0.050 C 
BRANCH  27  29
HETATM   29  O   UNL     1     -42.062  57.826 -57.359  1.00  0.00    -0.335 OA
BRANCH  29  30
HETATM   30  C   UNL     1     -42.018  58.562 -58.510  1.00  0.00     0.091 A 
HETATM   31  C   UNL     1     -41.917  59.958 -58.405  1.00  0.00     0.068 A 
HETATM   32 CL   UNL     1     -41.734  60.729 -56.869  1.00  0.00    -0.081 Cl
HETATM   33  C   UNL     1     -41.953  60.760 -59.547  1.00  0.00     0.046 A 
HETATM   34  C   UNL     1     -42.106  60.164 -60.795  1.00  0.00     0.012 A 
HETATM   35 BR   UNL     1     -42.171  61.244 -62.345  1.00  0.00    -0.051 Br
HETATM   36  C   UNL     1     -42.229  58.779 -60.911  1.00  0.00     0.022 A 
HETATM   37  C   UNL     1     -42.196  57.978 -59.766  1.00  0.00     0.040 A 
ENDBRANCH  29  30
ENDBRANCH  27  29
ENDBRANCH  24  27
ENDBRANCH  21  23
ENDBRANCH   1  21
TORSDOF 10
ENDMDL
