MODEL 1
REMARK VINA RESULT:      -9.4      0.000      0.000
REMARK  4 active torsions:
REMARK  status: ('A' for Active; 'I' for Inactive)
REMARK    1  A    between atoms: C_8  and  C_9 
REMARK    2  A    between atoms: C_9  and  C_10 
REMARK       I    between atoms: C_10  and  N_11 
REMARK    3  A    between atoms: N_11  and  C_12 
REMARK    4  A    between atoms: C_14  and  C_15 
ROOT
HETATM    1  C   UNL     1     -41.787  54.316 -55.177  1.00  0.00     0.226 C 
HETATM    2  N   UNL     1     -41.532  55.469 -55.918  1.00  0.00    -0.327 N 
HETATM    3  O   UNL     1     -42.895  53.886 -54.875  1.00  0.00    -0.273 OA
HETATM    4  H   UNL     1     -40.572  55.786 -55.945  1.00  0.00     0.169 HD
ENDROOT
BRANCH   1   5
HETATM    5  C   UNL     1     -40.496  53.663 -54.718  1.00  0.00     0.144 C 
BRANCH   5   6
HETATM    6  C   UNL     1     -40.428  53.118 -53.319  1.00  0.00    -0.021 A 
HETATM    7  C   UNL     1     -40.128  51.798 -52.791  1.00  0.00     0.005 A 
HETATM    8  C   UNL     1     -39.861  50.499 -53.321  1.00  0.00    -0.049 A 
HETATM    9  C   UNL     1     -40.093  51.935 -51.393  1.00  0.00     0.043 A 
HETATM   10  C   UNL     1     -39.859  50.137 -54.780  1.00  0.00     0.049 C 
HETATM   11  C   UNL     1     -39.616  49.437 -52.416  1.00  0.00     0.007 A 
HETATM   12  C   UNL     1     -39.585  49.627 -51.042  1.00  0.00     0.003 A 
HETATM   13  C   UNL     1     -39.817  50.886 -50.508  1.00  0.00     0.030 A 
HETATM   14  N   UNL     1     -40.364  53.245 -51.088  1.00  0.00    -0.365 N 
HETATM   15  H   UNL     1     -40.393  53.617 -50.149  1.00  0.00     0.165 HD
HETATM   16  C   UNL     1     -40.562  53.961 -52.225  1.00  0.00     0.097 A 
ENDBRANCH   5   6
ENDBRANCH   1   5
BRANCH   2  17
HETATM   17  C   UNL     1     -42.437  56.235 -56.679  1.00  0.00     0.035 A 
HETATM   18  C   UNL     1     -43.118  55.760 -57.801  1.00  0.00     0.042 A 
HETATM   19  C   UNL     1     -43.945  56.608 -58.560  1.00  0.00    -0.021 A 
HETATM   20  C   UNL     1     -44.090  57.944 -58.158  1.00  0.00     0.012 A 
HETATM   21  C   UNL     1     -43.421  58.424 -57.033  1.00  0.00     0.003 A 
HETATM   22  C   UNL     1     -42.596  57.573 -56.301  1.00  0.00     0.029 A 
BRANCH  19  23
HETATM   23  C   UNL     1     -44.622  56.135 -59.760  1.00  0.00     0.010 A 
HETATM   24  C   UNL     1     -44.326  55.048 -60.623  1.00  0.00     0.152 A 
HETATM   25  N   UNL     1     -45.196  54.928 -61.630  1.00  0.00    -0.187 NA
HETATM   26  N   UNL     1     -46.058  55.934 -61.417  1.00  0.00    -0.289 N 
HETATM   27  H   UNL     1     -46.831  56.051 -62.063  1.00  0.00     0.188 HD
HETATM   28  C   UNL     1     -45.759  56.683 -60.316  1.00  0.00     0.123 A 
ENDBRANCH  19  23
ENDBRANCH   2  17
TORSDOF 4
ENDMDL
MODEL 2
REMARK VINA RESULT:      -8.8      1.863      2.494
REMARK  4 active torsions:
REMARK  status: ('A' for Active; 'I' for Inactive)
REMARK    1  A    between atoms: C_8  and  C_9 
REMARK    2  A    between atoms: C_9  and  C_10 
REMARK       I    between atoms: C_10  and  N_11 
REMARK    3  A    between atoms: N_11  and  C_12 
REMARK    4  A    between atoms: C_14  and  C_15 
ROOT
HETATM    1  C   UNL     1     -42.171  55.135 -52.747  1.00  0.00     0.226 C 
HETATM    2  N   UNL     1     -41.970  56.315 -53.460  1.00  0.00    -0.327 N 
HETATM    3  O   UNL     1     -43.168  54.423 -52.802  1.00  0.00    -0.273 OA
HETATM    4  H   UNL     1     -41.175  56.878 -53.189  1.00  0.00     0.169 HD
ENDROOT
BRANCH   1   5
HETATM    5  C   UNL     1     -41.006  54.850 -51.817  1.00  0.00     0.144 C 
BRANCH   5   6
HETATM    6  C   UNL     1     -40.684  53.419 -51.491  1.00  0.00    -0.021 A 
HETATM    7  C   UNL     1     -40.288  52.288 -52.313  1.00  0.00     0.005 A 
HETATM    8  C   UNL     1     -40.117  52.021 -53.706  1.00  0.00    -0.049 A 
HETATM    9  C   UNL     1     -40.001  51.240 -51.424  1.00  0.00     0.043 A 
HETATM   10  C   UNL     1     -40.378  52.997 -54.819  1.00  0.00     0.049 C 
HETATM   11  C   UNL     1     -39.708  50.723 -54.100  1.00  0.00     0.007 A 
HETATM   12  C   UNL     1     -39.429  49.723 -53.179  1.00  0.00     0.003 A 
HETATM   13  C   UNL     1     -39.565  49.970 -51.821  1.00  0.00     0.030 A 
HETATM   14  N   UNL     1     -40.217  51.694 -50.147  1.00  0.00    -0.365 N 
HETATM   15  H   UNL     1     -40.077  51.141 -49.313  1.00  0.00     0.165 HD
HETATM   16  C   UNL     1     -40.621  52.992 -50.173  1.00  0.00     0.097 A 
ENDBRANCH   5   6
ENDBRANCH   1   5
BRANCH   2  17
HETATM   17  C   UNL     1     -42.709  56.813 -54.552  1.00  0.00     0.035 A 
HETATM   18  C   UNL     1     -42.329  56.669 -55.888  1.00  0.00     0.042 A 
HETATM   19  C   UNL     1     -43.076  57.263 -56.922  1.00  0.00    -0.021 A 
HETATM   20  C   UNL     1     -44.227  57.992 -56.587  1.00  0.00     0.012 A 
HETATM   21  C   UNL     1     -44.618  58.132 -55.257  1.00  0.00     0.003 A 
HETATM   22  C   UNL     1     -43.859  57.548 -54.245  1.00  0.00     0.029 A 
BRANCH  19  23
HETATM   23  C   UNL     1     -42.663  57.160 -58.314  1.00  0.00     0.010 A 
HETATM   24  C   UNL     1     -42.890  56.139 -59.274  1.00  0.00     0.152 A 
HETATM   25  N   UNL     1     -42.348  56.412 -60.465  1.00  0.00    -0.187 NA
HETATM   26  N   UNL     1     -41.776  57.611 -60.278  1.00  0.00    -0.289 N 
HETATM   27  H   UNL     1     -41.292  58.041 -61.059  1.00  0.00     0.188 HD
HETATM   28  C   UNL     1     -41.933  58.098 -59.013  1.00  0.00     0.123 A 
ENDBRANCH  19  23
ENDBRANCH   2  17
TORSDOF 4
ENDMDL
MODEL 3
REMARK VINA RESULT:      -8.7      1.169      2.582
REMARK  4 active torsions:
REMARK  status: ('A' for Active; 'I' for Inactive)
REMARK    1  A    between atoms: C_8  and  C_9 
REMARK    2  A    between atoms: C_9  and  C_10 
REMARK       I    between atoms: C_10  and  N_11 
REMARK    3  A    between atoms: N_11  and  C_12 
REMARK    4  A    between atoms: C_14  and  C_15 
ROOT
HETATM    1  C   UNL     1     -41.736  54.333 -55.109  1.00  0.00     0.226 C 
HETATM    2  N   UNL     1     -41.507  55.481 -55.864  1.00  0.00    -0.327 N 
HETATM    3  O   UNL     1     -42.833  53.895 -54.780  1.00  0.00    -0.273 OA
HETATM    4  H   UNL     1     -40.551  55.807 -55.915  1.00  0.00     0.169 HD
ENDROOT
BRANCH   1   5
HETATM    5  C   UNL     1     -40.430  53.695 -54.671  1.00  0.00     0.144 C 
BRANCH   5   6
HETATM    6  C   UNL     1     -40.289  53.265 -53.238  1.00  0.00    -0.021 A 
HETATM    7  C   UNL     1     -40.580  53.928 -51.979  1.00  0.00     0.005 A 
HETATM    8  C   UNL     1     -41.021  55.220 -51.558  1.00  0.00    -0.049 A 
HETATM    9  C   UNL     1     -40.361  52.971 -50.974  1.00  0.00     0.043 A 
HETATM   10  C   UNL     1     -41.302  56.383 -52.468  1.00  0.00     0.049 C 
HETATM   11  C   UNL     1     -41.175  55.463 -50.171  1.00  0.00     0.007 A 
HETATM   12  C   UNL     1     -40.953  54.480 -49.218  1.00  0.00     0.003 A 
HETATM   13  C   UNL     1     -40.547  53.211 -49.606  1.00  0.00     0.030 A 
HETATM   14  N   UNL     1     -39.954  51.808 -51.576  1.00  0.00    -0.365 N 
HETATM   15  H   UNL     1     -39.737  50.954 -51.080  1.00  0.00     0.165 HD
HETATM   16  C   UNL     1     -39.910  51.967 -52.925  1.00  0.00     0.097 A 
ENDBRANCH   5   6
ENDBRANCH   1   5
BRANCH   2  17
HETATM   17  C   UNL     1     -42.435  56.232 -56.613  1.00  0.00     0.035 A 
HETATM   18  C   UNL     1     -43.102  55.755 -57.743  1.00  0.00     0.042 A 
HETATM   19  C   UNL     1     -43.954  56.591 -58.489  1.00  0.00    -0.021 A 
HETATM   20  C   UNL     1     -44.139  57.915 -58.064  1.00  0.00     0.012 A 
HETATM   21  C   UNL     1     -43.485  58.396 -56.931  1.00  0.00     0.003 A 
HETATM   22  C   UNL     1     -42.634  57.559 -56.213  1.00  0.00     0.029 A 
BRANCH  19  23
HETATM   23  C   UNL     1     -44.617  56.118 -59.696  1.00  0.00     0.010 A 
HETATM   24  C   UNL     1     -44.273  55.072 -60.592  1.00  0.00     0.152 A 
HETATM   25  N   UNL     1     -45.145  54.936 -61.595  1.00  0.00    -0.187 NA
HETATM   26  N   UNL     1     -46.055  55.890 -61.347  1.00  0.00    -0.289 N 
HETATM   27  H   UNL     1     -46.839  55.986 -61.984  1.00  0.00     0.188 HD
HETATM   28  C   UNL     1     -45.785  56.622 -60.228  1.00  0.00     0.123 A 
ENDBRANCH  19  23
ENDBRANCH   2  17
TORSDOF 4
ENDMDL
MODEL 4
REMARK VINA RESULT:      -8.7      1.961      8.773
REMARK  4 active torsions:
REMARK  status: ('A' for Active; 'I' for Inactive)
REMARK    1  A    between atoms: C_8  and  C_9 
REMARK    2  A    between atoms: C_9  and  C_10 
REMARK       I    between atoms: C_10  and  N_11 
REMARK    3  A    between atoms: N_11  and  C_12 
REMARK    4  A    between atoms: C_14  and  C_15 
ROOT
HETATM    1  C   UNL     1     -42.408  55.665 -56.553  1.00  0.00     0.226 C 
HETATM    2  N   UNL     1     -41.267  55.680 -55.753  1.00  0.00    -0.327 N 
HETATM    3  O   UNL     1     -43.302  54.826 -56.516  1.00  0.00    -0.273 OA
HETATM    4  H   UNL     1     -40.543  56.337 -56.009  1.00  0.00     0.169 HD
ENDROOT
BRANCH   1   5
HETATM    5  C   UNL     1     -42.393  56.808 -57.551  1.00  0.00     0.144 C 
BRANCH   5   6
HETATM    6  C   UNL     1     -43.701  57.433 -57.944  1.00  0.00    -0.021 A 
HETATM    7  C   UNL     1     -44.766  57.007 -58.836  1.00  0.00     0.005 A 
HETATM    8  C   UNL     1     -45.000  55.924 -59.738  1.00  0.00    -0.049 A 
HETATM    9  C   UNL     1     -45.796  57.952 -58.695  1.00  0.00     0.043 A 
HETATM   10  C   UNL     1     -44.030  54.817 -60.039  1.00  0.00     0.049 C 
HETATM   11  C   UNL     1     -46.225  55.890 -60.450  1.00  0.00     0.007 A 
HETATM   12  C   UNL     1     -47.214  56.846 -60.268  1.00  0.00     0.003 A 
HETATM   13  C   UNL     1     -47.016  57.893 -59.380  1.00  0.00     0.030 A 
HETATM   14  N   UNL     1     -45.385  58.897 -57.789  1.00  0.00    -0.365 N 
HETATM   15  H   UNL     1     -45.941  59.688 -57.498  1.00  0.00     0.165 HD
HETATM   16  C   UNL     1     -44.141  58.598 -57.331  1.00  0.00     0.097 A 
ENDBRANCH   5   6
ENDBRANCH   1   5
BRANCH   2  17
HETATM   17  C   UNL     1     -41.004  54.923 -54.594  1.00  0.00     0.035 A 
HETATM   18  C   UNL     1     -40.587  53.590 -54.605  1.00  0.00     0.042 A 
HETATM   19  C   UNL     1     -40.421  52.873 -53.405  1.00  0.00    -0.021 A 
HETATM   20  C   UNL     1     -40.667  53.528 -52.190  1.00  0.00     0.012 A 
HETATM   21  C   UNL     1     -41.074  54.861 -52.170  1.00  0.00     0.003 A 
HETATM   22  C   UNL     1     -41.246  55.552 -53.367  1.00  0.00     0.029 A 
BRANCH  19  23
HETATM   23  C   UNL     1     -40.032  51.469 -53.407  1.00  0.00     0.010 A 
HETATM   24  C   UNL     1     -39.938  50.536 -54.472  1.00  0.00     0.152 A 
HETATM   25  N   UNL     1     -39.534  49.326 -54.072  1.00  0.00    -0.187 NA
HETATM   26  N   UNL     1     -39.363  49.477 -52.750  1.00  0.00    -0.289 N 
HETATM   27  H   UNL     1     -39.048  48.678 -52.210  1.00  0.00     0.188 HD
HETATM   28  C   UNL     1     -39.649  50.735 -52.305  1.00  0.00     0.123 A 
ENDBRANCH  19  23
ENDBRANCH   2  17
TORSDOF 4
ENDMDL
MODEL 5
REMARK VINA RESULT:      -8.6      2.751      8.288
REMARK  4 active torsions:
REMARK  status: ('A' for Active; 'I' for Inactive)
REMARK    1  A    between atoms: C_8  and  C_9 
REMARK    2  A    between atoms: C_9  and  C_10 
REMARK       I    between atoms: C_10  and  N_11 
REMARK    3  A    between atoms: N_11  and  C_12 
REMARK    4  A    between atoms: C_14  and  C_15 
ROOT
HETATM    1  C   UNL     1     -41.627  57.221 -53.692  1.00  0.00     0.226 C 
HETATM    2  N   UNL     1     -42.090  56.019 -53.163  1.00  0.00    -0.327 N 
HETATM    3  O   UNL     1     -40.513  57.703 -53.516  1.00  0.00    -0.273 OA
HETATM    4  H   UNL     1     -43.080  55.833 -53.257  1.00  0.00     0.169 HD
ENDROOT
BRANCH   1   5
HETATM    5  C   UNL     1     -42.712  57.924 -54.488  1.00  0.00     0.144 C 
BRANCH   5   6
HETATM    6  C   UNL     1     -42.430  58.281 -55.920  1.00  0.00    -0.021 A 
HETATM    7  C   UNL     1     -42.505  57.522 -57.156  1.00  0.00     0.005 A 
HETATM    8  C   UNL     1     -42.780  56.172 -57.537  1.00  0.00    -0.049 A 
HETATM    9  C   UNL     1     -42.245  58.435 -58.192  1.00  0.00     0.043 A 
HETATM   10  C   UNL     1     -43.072  55.043 -56.589  1.00  0.00     0.049 C 
HETATM   11  C   UNL     1     -42.738  55.836 -58.912  1.00  0.00     0.007 A 
HETATM   12  C   UNL     1     -42.484  56.779 -59.898  1.00  0.00     0.003 A 
HETATM   13  C   UNL     1     -42.238  58.100 -59.552  1.00  0.00     0.030 A 
HETATM   14  N   UNL     1     -42.016  59.664 -57.628  1.00  0.00    -0.365 N 
HETATM   15  H   UNL     1     -41.812  60.504 -58.152  1.00  0.00     0.165 HD
HETATM   16  C   UNL     1     -42.127  59.588 -56.275  1.00  0.00     0.097 A 
ENDBRANCH   5   6
ENDBRANCH   1   5
BRANCH   2  17
HETATM   17  C   UNL     1     -41.347  54.993 -52.545  1.00  0.00     0.035 A 
HETATM   18  C   UNL     1     -41.021  53.781 -53.157  1.00  0.00     0.042 A 
HETATM   19  C   UNL     1     -40.345  52.770 -52.449  1.00  0.00    -0.021 A 
HETATM   20  C   UNL     1     -39.984  53.008 -51.115  1.00  0.00     0.012 A 
HETATM   21  C   UNL     1     -40.297  54.219 -50.499  1.00  0.00     0.003 A 
HETATM   22  C   UNL     1     -40.979  55.204 -51.211  1.00  0.00     0.029 A 
BRANCH  19  23
HETATM   23  C   UNL     1     -40.042  51.485 -53.064  1.00  0.00     0.010 A 
HETATM   24  C   UNL     1     -39.575  50.272 -52.492  1.00  0.00     0.152 A 
HETATM   25  N   UNL     1     -39.420  49.297 -53.392  1.00  0.00    -0.187 NA
HETATM   26  N   UNL     1     -39.791  49.875 -54.544  1.00  0.00    -0.289 N 
HETATM   27  H   UNL     1     -39.761  49.321 -55.394  1.00  0.00     0.188 HD
HETATM   28  C   UNL     1     -40.168  51.179 -54.402  1.00  0.00     0.123 A 
ENDBRANCH  19  23
ENDBRANCH   2  17
TORSDOF 4
ENDMDL
MODEL 6
REMARK VINA RESULT:      -8.5      2.275      8.666
REMARK  4 active torsions:
REMARK  status: ('A' for Active; 'I' for Inactive)
REMARK    1  A    between atoms: C_8  and  C_9 
REMARK    2  A    between atoms: C_9  and  C_10 
REMARK       I    between atoms: C_10  and  N_11 
REMARK    3  A    between atoms: N_11  and  C_12 
REMARK    4  A    between atoms: C_14  and  C_15 
ROOT
HETATM    1  C   UNL     1     -41.643  56.839 -53.655  1.00  0.00     0.226 C 
HETATM    2  N   UNL     1     -42.072  55.693 -52.989  1.00  0.00    -0.327 N 
HETATM    3  O   UNL     1     -40.560  57.395 -53.505  1.00  0.00    -0.273 OA
HETATM    4  H   UNL     1     -43.048  55.448 -53.092  1.00  0.00     0.169 HD
ENDROOT
BRANCH   1   5
HETATM    5  C   UNL     1     -42.725  57.378 -54.572  1.00  0.00     0.144 C 
BRANCH   5   6
HETATM    6  C   UNL     1     -42.921  56.723 -55.911  1.00  0.00    -0.021 A 
HETATM    7  C   UNL     1     -42.667  57.168 -57.270  1.00  0.00     0.005 A 
HETATM    8  C   UNL     1     -42.227  58.367 -57.910  1.00  0.00    -0.049 A 
HETATM    9  C   UNL     1     -42.930  56.064 -58.098  1.00  0.00     0.043 A 
HETATM   10  C   UNL     1     -41.903  59.658 -57.211  1.00  0.00     0.049 C 
HETATM   11  C   UNL     1     -42.119  58.379 -59.322  1.00  0.00     0.007 A 
HETATM   12  C   UNL     1     -42.384  57.258 -60.095  1.00  0.00     0.003 A 
HETATM   13  C   UNL     1     -42.789  56.076 -59.492  1.00  0.00     0.030 A 
HETATM   14  N   UNL     1     -43.328  55.020 -57.302  1.00  0.00    -0.365 N 
HETATM   15  H   UNL     1     -43.571  54.101 -57.645  1.00  0.00     0.165 HD
HETATM   16  C   UNL     1     -43.323  55.398 -55.996  1.00  0.00     0.097 A 
ENDBRANCH   5   6
ENDBRANCH   1   5
BRANCH   2  17
HETATM   17  C   UNL     1     -41.309  54.795 -52.218  1.00  0.00     0.035 A 
HETATM   18  C   UNL     1     -40.939  53.515 -52.639  1.00  0.00     0.042 A 
HETATM   19  C   UNL     1     -40.244  52.642 -51.781  1.00  0.00    -0.021 A 
HETATM   20  C   UNL     1     -39.911  53.087 -50.494  1.00  0.00     0.012 A 
HETATM   21  C   UNL     1     -40.267  54.366 -50.069  1.00  0.00     0.003 A 
HETATM   22  C   UNL     1     -40.967  55.212 -50.926  1.00  0.00     0.029 A 
BRANCH  19  23
HETATM   23  C   UNL     1     -39.896  51.290 -52.194  1.00  0.00     0.010 A 
HETATM   24  C   UNL     1     -39.829  50.703 -53.485  1.00  0.00     0.152 A 
HETATM   25  N   UNL     1     -39.461  49.419 -53.458  1.00  0.00    -0.187 NA
HETATM   26  N   UNL     1     -39.284  49.175 -52.150  1.00  0.00    -0.289 N 
HETATM   27  H   UNL     1     -38.992  48.245 -51.869  1.00  0.00     0.188 HD
HETATM   28  C   UNL     1     -39.533  50.257 -51.356  1.00  0.00     0.123 A 
ENDBRANCH  19  23
ENDBRANCH   2  17
TORSDOF 4
ENDMDL
MODEL 7
REMARK VINA RESULT:      -8.4      2.763      9.115
REMARK  4 active torsions:
REMARK  status: ('A' for Active; 'I' for Inactive)
REMARK    1  A    between atoms: C_8  and  C_9 
REMARK    2  A    between atoms: C_9  and  C_10 
REMARK       I    between atoms: C_10  and  N_11 
REMARK    3  A    between atoms: N_11  and  C_12 
REMARK    4  A    between atoms: C_14  and  C_15 
ROOT
HETATM    1  C   UNL     1     -42.758  54.824 -55.451  1.00  0.00     0.226 C 
HETATM    2  N   UNL     1     -41.514  54.223 -55.273  1.00  0.00    -0.327 N 
HETATM    3  O   UNL     1     -43.728  54.702 -54.711  1.00  0.00    -0.273 OA
HETATM    4  H   UNL     1     -40.867  54.281 -56.048  1.00  0.00     0.169 HD
ENDROOT
BRANCH   1   5
HETATM    5  C   UNL     1     -42.800  55.625 -56.739  1.00  0.00     0.144 C 
BRANCH   5   6
HETATM    6  C   UNL     1     -42.470  57.090 -56.681  1.00  0.00    -0.021 A 
HETATM    7  C   UNL     1     -42.271  58.095 -57.712  1.00  0.00     0.005 A 
HETATM    8  C   UNL     1     -42.223  58.129 -59.140  1.00  0.00    -0.049 A 
HETATM    9  C   UNL     1     -42.114  59.318 -57.040  1.00  0.00     0.043 A 
HETATM   10  C   UNL     1     -42.360  56.936 -60.045  1.00  0.00     0.049 C 
HETATM   11  C   UNL     1     -41.987  59.371 -59.779  1.00  0.00     0.007 A 
HETATM   12  C   UNL     1     -41.846  60.554 -59.068  1.00  0.00     0.003 A 
HETATM   13  C   UNL     1     -41.913  60.547 -57.682  1.00  0.00     0.030 A 
HETATM   14  N   UNL     1     -42.198  59.077 -55.693  1.00  0.00    -0.365 N 
HETATM   15  H   UNL     1     -42.126  59.790 -54.980  1.00  0.00     0.165 HD
HETATM   16  C   UNL     1     -42.414  57.755 -55.465  1.00  0.00     0.097 A 
ENDBRANCH   5   6
ENDBRANCH   1   5
BRANCH   2  17
HETATM   17  C   UNL     1     -41.014  53.574 -54.126  1.00  0.00     0.035 A 
HETATM   18  C   UNL     1     -41.154  54.061 -52.824  1.00  0.00     0.042 A 
HETATM   19  C   UNL     1     -40.558  53.399 -51.735  1.00  0.00    -0.021 A 
HETATM   20  C   UNL     1     -39.831  52.224 -51.976  1.00  0.00     0.012 A 
HETATM   21  C   UNL     1     -39.695  51.726 -53.271  1.00  0.00     0.003 A 
HETATM   22  C   UNL     1     -40.280  52.401 -54.340  1.00  0.00     0.029 A 
BRANCH  19  23
HETATM   23  C   UNL     1     -40.658  53.924 -50.380  1.00  0.00     0.010 A 
HETATM   24  C   UNL     1     -41.104  55.186 -49.906  1.00  0.00     0.152 A 
HETATM   25  N   UNL     1     -41.052  55.292 -48.575  1.00  0.00    -0.187 NA
HETATM   26  N   UNL     1     -40.577  54.099 -48.187  1.00  0.00    -0.289 N 
HETATM   27  H   UNL     1     -40.449  53.931 -47.195  1.00  0.00     0.188 HD
HETATM   28  C   UNL     1     -40.324  53.250 -49.225  1.00  0.00     0.123 A 
ENDBRANCH  19  23
ENDBRANCH   2  17
TORSDOF 4
ENDMDL
MODEL 8
REMARK VINA RESULT:      -8.3      2.666      3.702
REMARK  4 active torsions:
REMARK  status: ('A' for Active; 'I' for Inactive)
REMARK    1  A    between atoms: C_8  and  C_9 
REMARK    2  A    between atoms: C_9  and  C_10 
REMARK       I    between atoms: C_10  and  N_11 
REMARK    3  A    between atoms: N_11  and  C_12 
REMARK    4  A    between atoms: C_14  and  C_15 
ROOT
HETATM    1  C   UNL     1     -42.036  54.745 -51.381  1.00  0.00     0.226 C 
HETATM    2  N   UNL     1     -41.956  56.074 -51.792  1.00  0.00    -0.327 N 
HETATM    3  O   UNL     1     -43.065  54.087 -51.272  1.00  0.00    -0.273 OA
HETATM    4  H   UNL     1     -41.062  56.531 -51.675  1.00  0.00     0.169 HD
ENDROOT
BRANCH   1   5
HETATM    5  C   UNL     1     -40.668  54.202 -51.012  1.00  0.00     0.144 C 
BRANCH   5   6
HETATM    6  C   UNL     1     -40.405  52.735 -51.204  1.00  0.00    -0.021 A 
HETATM    7  C   UNL     1     -40.131  51.931 -52.383  1.00  0.00     0.005 A 
HETATM    8  C   UNL     1     -40.072  52.137 -53.796  1.00  0.00    -0.049 A 
HETATM    9  C   UNL     1     -39.842  50.638 -51.916  1.00  0.00     0.043 A 
HETATM   10  C   UNL     1     -40.354  53.436 -54.499  1.00  0.00     0.049 C 
HETATM   11  C   UNL     1     -39.765  51.033 -54.628  1.00  0.00     0.007 A 
HETATM   12  C   UNL     1     -39.480  49.776 -54.115  1.00  0.00     0.003 A 
HETATM   13  C   UNL     1     -39.507  49.560 -52.745  1.00  0.00     0.030 A 
HETATM   14  N   UNL     1     -39.943  50.648 -50.548  1.00  0.00    -0.365 N 
HETATM   15  H   UNL     1     -39.777  49.845 -49.958  1.00  0.00     0.165 HD
HETATM   16  C   UNL     1     -40.274  51.891 -50.111  1.00  0.00     0.097 A 
ENDBRANCH   5   6
ENDBRANCH   1   5
BRANCH   2  17
HETATM   17  C   UNL     1     -42.955  56.862 -52.398  1.00  0.00     0.035 A 
HETATM   18  C   UNL     1     -43.274  56.817 -53.757  1.00  0.00     0.042 A 
HETATM   19  C   UNL     1     -44.228  57.692 -54.307  1.00  0.00    -0.021 A 
HETATM   20  C   UNL     1     -44.872  58.605 -53.459  1.00  0.00     0.012 A 
HETATM   21  C   UNL     1     -44.567  58.650 -52.100  1.00  0.00     0.003 A 
HETATM   22  C   UNL     1     -43.609  57.785 -51.574  1.00  0.00     0.029 A 
BRANCH  19  23
HETATM   23  C   UNL     1     -44.534  57.686 -55.731  1.00  0.00     0.010 A 
HETATM   24  C   UNL     1     -43.782  57.211 -56.837  1.00  0.00     0.152 A 
HETATM   25  N   UNL     1     -44.410  57.378 -58.005  1.00  0.00    -0.187 NA
HETATM   26  N   UNL     1     -45.569  57.956 -57.655  1.00  0.00    -0.289 N 
HETATM   27  H   UNL     1     -46.234  58.184 -58.387  1.00  0.00     0.188 HD
HETATM   28  C   UNL     1     -45.690  58.163 -56.312  1.00  0.00     0.123 A 
ENDBRANCH  19  23
ENDBRANCH   2  17
TORSDOF 4
ENDMDL
MODEL 9
REMARK VINA RESULT:      -8.3      1.720      9.426
REMARK  4 active torsions:
REMARK  status: ('A' for Active; 'I' for Inactive)
REMARK    1  A    between atoms: C_8  and  C_9 
REMARK    2  A    between atoms: C_9  and  C_10 
REMARK       I    between atoms: C_10  and  N_11 
REMARK    3  A    between atoms: N_11  and  C_12 
REMARK    4  A    between atoms: C_14  and  C_15 
ROOT
HETATM    1  C   UNL     1     -42.389  55.221 -56.080  1.00  0.00     0.226 C 
HETATM    2  N   UNL     1     -41.204  55.138 -55.352  1.00  0.00    -0.327 N 
HETATM    3  O   UNL     1     -43.282  54.381 -56.100  1.00  0.00    -0.273 OA
HETATM    4  H   UNL     1     -40.493  55.825 -55.563  1.00  0.00     0.169 HD
ENDROOT
BRANCH   1   5
HETATM    5  C   UNL     1     -42.427  56.483 -56.922  1.00  0.00     0.144 C 
BRANCH   5   6
HETATM    6  C   UNL     1     -43.340  56.520 -58.115  1.00  0.00    -0.021 A 
HETATM    7  C   UNL     1     -44.616  57.172 -58.357  1.00  0.00     0.005 A 
HETATM    8  C   UNL     1     -45.550  57.948 -57.604  1.00  0.00    -0.049 A 
HETATM    9  C   UNL     1     -44.921  56.945 -59.709  1.00  0.00     0.043 A 
HETATM   10  C   UNL     1     -45.419  58.297 -56.148  1.00  0.00     0.049 C 
HETATM   11  C   UNL     1     -46.727  58.403 -58.250  1.00  0.00     0.007 A 
HETATM   12  C   UNL     1     -46.977  58.157 -59.592  1.00  0.00     0.003 A 
HETATM   13  C   UNL     1     -46.071  57.426 -60.347  1.00  0.00     0.030 A 
HETATM   14  N   UNL     1     -43.908  56.196 -60.253  1.00  0.00    -0.365 N 
HETATM   15  H   UNL     1     -43.874  55.898 -61.218  1.00  0.00     0.165 HD
HETATM   16  C   UNL     1     -42.958  55.940 -59.316  1.00  0.00     0.097 A 
ENDBRANCH   5   6
ENDBRANCH   1   5
BRANCH   2  17
HETATM   17  C   UNL     1     -40.877  54.239 -54.317  1.00  0.00     0.035 A 
HETATM   18  C   UNL     1     -41.040  54.514 -52.957  1.00  0.00     0.042 A 
HETATM   19  C   UNL     1     -40.616  53.599 -51.976  1.00  0.00    -0.021 A 
HETATM   20  C   UNL     1     -40.039  52.389 -52.389  1.00  0.00     0.012 A 
HETATM   21  C   UNL     1     -39.882  52.102 -53.744  1.00  0.00     0.003 A 
HETATM   22  C   UNL     1     -40.296  53.026 -54.702  1.00  0.00     0.029 A 
BRANCH  19  23
HETATM   23  C   UNL     1     -40.737  53.897 -50.556  1.00  0.00     0.010 A 
HETATM   24  C   UNL     1     -40.534  53.075 -49.416  1.00  0.00     0.152 A 
HETATM   25  N   UNL     1     -40.741  53.719 -48.264  1.00  0.00    -0.187 NA
HETATM   26  N   UNL     1     -41.073  54.958 -48.657  1.00  0.00    -0.289 N 
HETATM   27  H   UNL     1     -41.279  55.651 -47.944  1.00  0.00     0.188 HD
HETATM   28  C   UNL     1     -41.087  55.115 -50.012  1.00  0.00     0.123 A 
ENDBRANCH  19  23
ENDBRANCH   2  17
TORSDOF 4
ENDMDL
MODEL 10
REMARK VINA RESULT:      -8.3      2.834      4.038
REMARK  4 active torsions:
REMARK  status: ('A' for Active; 'I' for Inactive)
REMARK    1  A    between atoms: C_8  and  C_9 
REMARK    2  A    between atoms: C_9  and  C_10 
REMARK       I    between atoms: C_10  and  N_11 
REMARK    3  A    between atoms: N_11  and  C_12 
REMARK    4  A    between atoms: C_14  and  C_15 
ROOT
HETATM    1  C   UNL     1     -42.425  55.017 -55.835  1.00  0.00     0.226 C 
HETATM    2  N   UNL     1     -43.226  55.555 -56.840  1.00  0.00    -0.327 N 
HETATM    3  O   UNL     1     -41.200  55.046 -55.799  1.00  0.00    -0.273 OA
HETATM    4  H   UNL     1     -44.207  55.310 -56.817  1.00  0.00     0.169 HD
ENDROOT
BRANCH   1   5
HETATM    5  C   UNL     1     -43.264  54.313 -54.784  1.00  0.00     0.144 C 
BRANCH   5   6
HETATM    6  C   UNL     1     -42.832  54.402 -53.347  1.00  0.00    -0.021 A 
HETATM    7  C   UNL     1     -41.753  53.776 -52.603  1.00  0.00     0.005 A 
HETATM    8  C   UNL     1     -40.737  52.804 -52.859  1.00  0.00    -0.049 A 
HETATM    9  C   UNL     1     -41.778  54.349 -51.321  1.00  0.00     0.043 A 
HETATM   10  C   UNL     1     -40.542  52.068 -54.155  1.00  0.00     0.049 C 
HETATM   11  C   UNL     1     -39.853  52.457 -51.807  1.00  0.00     0.007 A 
HETATM   12  C   UNL     1     -39.916  53.059 -50.559  1.00  0.00     0.003 A 
HETATM   13  C   UNL     1     -40.879  54.023 -50.297  1.00  0.00     0.030 A 
HETATM   14  N   UNL     1     -42.808  55.253 -51.279  1.00  0.00    -0.365 N 
HETATM   15  H   UNL     1     -43.043  55.813 -50.472  1.00  0.00     0.165 HD
HETATM   16  C   UNL     1     -43.443  55.298 -52.481  1.00  0.00     0.097 A 
ENDBRANCH   5   6
ENDBRANCH   1   5
BRANCH   2  17
HETATM   17  C   UNL     1     -42.856  56.442 -57.870  1.00  0.00     0.035 A 
HETATM   18  C   UNL     1     -42.487  57.773 -57.666  1.00  0.00     0.042 A 
HETATM   19  C   UNL     1     -42.208  58.623 -58.752  1.00  0.00    -0.021 A 
HETATM   20  C   UNL     1     -42.288  58.103 -60.052  1.00  0.00     0.012 A 
HETATM   21  C   UNL     1     -42.646  56.772 -60.264  1.00  0.00     0.003 A 
HETATM   22  C   UNL     1     -42.932  55.948 -59.178  1.00  0.00     0.029 A 
BRANCH  19  23
HETATM   23  C   UNL     1     -41.869  60.025 -58.552  1.00  0.00     0.010 A 
HETATM   24  C   UNL     1     -41.650  61.068 -59.490  1.00  0.00     0.152 A 
HETATM   25  N   UNL     1     -41.361  62.238 -58.913  1.00  0.00    -0.187 NA
HETATM   26  N   UNL     1     -41.397  61.954 -57.602  1.00  0.00    -0.289 N 
HETATM   27  H   UNL     1     -41.208  62.701 -56.942  1.00  0.00     0.188 HD
HETATM   28  C   UNL     1     -41.693  60.649 -57.335  1.00  0.00     0.123 A 
ENDBRANCH  19  23
ENDBRANCH   2  17
TORSDOF 4
ENDMDL
