MODEL 1
REMARK VINA RESULT:      -8.9      0.000      0.000
REMARK  7 active torsions:
REMARK  status: ('A' for Active; 'I' for Inactive)
REMARK    1  A    between atoms: C_3  and  O_4 
REMARK    2  A    between atoms: C_9  and  N_10 
REMARK    3  A    between atoms: C_13  and  C_14 
REMARK       I    between atoms: C_14  and  N_15 
REMARK    4  A    between atoms: N_15  and  C_16 
REMARK    5  A    between atoms: C_16  and  C_17 
REMARK    6  A    between atoms: C_17  and  N_18 
REMARK       I    between atoms: N_18  and  C_19 
REMARK    7  A    between atoms: C_19  and  C_20 
ROOT
HETATM    1  N   UNL     1     -41.482  56.661 -52.870  1.00  0.00    -0.268 NA
HETATM    2  C   UNL     1     -42.935  56.857 -52.976  1.00  0.00     0.098 C 
HETATM    3  C   UNL     1     -43.311  58.220 -52.397  1.00  0.00     0.029 C 
HETATM    4  C   UNL     1     -42.538  59.360 -53.070  1.00  0.00     0.080 C 
HETATM    5  C   UNL     1     -41.032  59.066 -53.037  1.00  0.00     0.029 C 
HETATM    6  C   UNL     1     -40.694  57.677 -53.587  1.00  0.00     0.098 C 
ENDROOT
BRANCH   4   7
HETATM    7  C   UNL     1     -43.020  59.637 -54.493  1.00  0.00     0.221 C 
HETATM    8  N   UNL     1     -42.164  60.411 -55.240  1.00  0.00    -0.359 N 
HETATM    9  H   UNL     1     -41.337  60.816 -54.824  1.00  0.00     0.162 HD
HETATM   10  O   UNL     1     -44.061  59.178 -54.953  1.00  0.00    -0.273 OA
BRANCH   8  11
HETATM   11  C   UNL     1     -42.468  60.774 -56.615  1.00  0.00     0.142 C 
BRANCH  11  12
HETATM   12  C   UNL     1     -41.662  59.962 -57.638  1.00  0.00     0.142 C 
BRANCH  12  13
HETATM   13  N   UNL     1     -42.465  59.023 -58.409  1.00  0.00    -0.355 N 
HETATM   14  C   UNL     1     -42.688  57.739 -57.956  1.00  0.00     0.251 C 
HETATM   15  O   UNL     1     -42.144  57.282 -56.956  1.00  0.00    -0.268 OA
HETATM   16  H   UNL     1     -43.071  59.421 -59.114  1.00  0.00     0.162 HD
BRANCH  14  17
HETATM   17  C   UNL     1     -43.660  56.904 -58.719  1.00  0.00     0.033 A 
HETATM   18  C   UNL     1     -44.823  57.430 -59.293  1.00  0.00     0.036 A 
HETATM   19  C   UNL     1     -45.689  56.585 -59.990  1.00  0.00     0.012 A 
HETATM   20 BR   UNL     1     -47.268  57.292 -60.756  1.00  0.00    -0.051 Br
HETATM   21  C   UNL     1     -45.406  55.227 -60.131  1.00  0.00     0.019 A 
HETATM   22  C   UNL     1     -44.241  54.703 -59.575  1.00  0.00     0.002 A 
HETATM   23  C   UNL     1     -43.371  55.539 -58.874  1.00  0.00     0.017 A 
ENDBRANCH  14  17
ENDBRANCH  12  13
ENDBRANCH  11  12
ENDBRANCH   8  11
ENDBRANCH   4   7
BRANCH   1  24
HETATM   24  C   UNL     1     -41.102  55.338 -53.197  1.00  0.00     0.106 A 
HETATM   25  N   UNL     1     -40.796  54.465 -52.212  1.00  0.00    -0.233 NA
HETATM   26  C   UNL     1     -40.400  53.204 -52.504  1.00  0.00     0.102 A 
HETATM   27  C   UNL     1     -40.070  52.285 -51.497  1.00  0.00     0.095 A 
HETATM   28  C   UNL     1     -40.296  52.759 -53.836  1.00  0.00    -0.004 A 
HETATM   29  C   UNL     1     -39.659  50.977 -51.782  1.00  0.00     0.039 A 
HETATM   30  C   UNL     1     -39.572  50.557 -53.104  1.00  0.00     0.004 A 
HETATM   31  C   UNL     1     -39.888  51.445 -54.130  1.00  0.00     0.014 A 
HETATM   32  C   UNL     1     -40.599  53.663 -54.855  1.00  0.00     0.017 A 
HETATM   33  C   UNL     1     -40.991  54.959 -54.532  1.00  0.00     0.045 A 
BRANCH  27  34
HETATM   34  O   UNL     1     -40.147  52.679 -50.180  1.00  0.00    -0.358 OA
HETATM   35  H   UNL     1     -40.498  53.581 -50.139  1.00  0.00     0.218 HD
ENDBRANCH  27  34
ENDBRANCH   1  24
TORSDOF 7
ENDMDL
MODEL 2
REMARK VINA RESULT:      -8.6      1.639      2.166
REMARK  7 active torsions:
REMARK  status: ('A' for Active; 'I' for Inactive)
REMARK    1  A    between atoms: C_3  and  O_4 
REMARK    2  A    between atoms: C_9  and  N_10 
REMARK    3  A    between atoms: C_13  and  C_14 
REMARK       I    between atoms: C_14  and  N_15 
REMARK    4  A    between atoms: N_15  and  C_16 
REMARK    5  A    between atoms: C_16  and  C_17 
REMARK    6  A    between atoms: C_17  and  N_18 
REMARK       I    between atoms: N_18  and  C_19 
REMARK    7  A    between atoms: C_19  and  C_20 
ROOT
HETATM    1  N   UNL     1     -41.887  56.667 -51.022  1.00  0.00    -0.268 NA
HETATM    2  C   UNL     1     -43.068  56.854 -51.878  1.00  0.00     0.098 C 
HETATM    3  C   UNL     1     -43.834  58.097 -51.428  1.00  0.00     0.029 C 
HETATM    4  C   UNL     1     -42.944  59.344 -51.416  1.00  0.00     0.080 C 
HETATM    5  C   UNL     1     -41.669  59.074 -50.606  1.00  0.00     0.029 C 
HETATM    6  C   UNL     1     -40.948  57.800 -51.056  1.00  0.00     0.098 C 
ENDROOT
BRANCH   4   7
HETATM    7  C   UNL     1     -42.613  59.843 -52.823  1.00  0.00     0.221 C 
HETATM    8  N   UNL     1     -43.499  59.433 -53.791  1.00  0.00    -0.359 N 
HETATM    9  H   UNL     1     -44.245  58.789 -53.570  1.00  0.00     0.162 HD
HETATM   10  O   UNL     1     -41.663  60.578 -53.071  1.00  0.00    -0.273 OA
BRANCH   8  11
HETATM   11  C   UNL     1     -43.334  59.814 -55.185  1.00  0.00     0.142 C 
BRANCH  11  12
HETATM   12  C   UNL     1     -42.480  58.815 -55.978  1.00  0.00     0.142 C 
BRANCH  12  13
HETATM   13  N   UNL     1     -43.139  58.291 -57.167  1.00  0.00    -0.355 N 
HETATM   14  C   UNL     1     -43.194  56.934 -57.408  1.00  0.00     0.251 C 
HETATM   15  O   UNL     1     -42.608  56.110 -56.714  1.00  0.00    -0.268 OA
HETATM   16  H   UNL     1     -43.783  58.913 -57.637  1.00  0.00     0.162 HD
BRANCH  14  17
HETATM   17  C   UNL     1     -44.034  56.476 -58.552  1.00  0.00     0.033 A 
HETATM   18  C   UNL     1     -45.104  57.227 -59.053  1.00  0.00     0.036 A 
HETATM   19  C   UNL     1     -45.849  56.732 -60.126  1.00  0.00     0.012 A 
HETATM   20 BR   UNL     1     -47.304  57.740 -60.796  1.00  0.00    -0.051 Br
HETATM   21  C   UNL     1     -45.535  55.506 -60.711  1.00  0.00     0.019 A 
HETATM   22  C   UNL     1     -44.462  54.763 -60.225  1.00  0.00     0.002 A 
HETATM   23  C   UNL     1     -43.713  55.248 -59.152  1.00  0.00     0.017 A 
ENDBRANCH  14  17
ENDBRANCH  12  13
ENDBRANCH  11  12
ENDBRANCH   8  11
ENDBRANCH   4   7
BRANCH   1  24
HETATM   24  C   UNL     1     -41.257  55.422 -51.257  1.00  0.00     0.106 A 
HETATM   25  N   UNL     1     -41.347  54.845 -52.476  1.00  0.00    -0.233 NA
HETATM   26  C   UNL     1     -40.778  53.640 -52.714  1.00  0.00     0.102 A 
HETATM   27  C   UNL     1     -40.866  53.019 -53.969  1.00  0.00     0.095 A 
HETATM   28  C   UNL     1     -40.075  52.950 -51.707  1.00  0.00    -0.004 A 
HETATM   29  C   UNL     1     -40.284  51.774 -54.231  1.00  0.00     0.039 A 
HETATM   30  C   UNL     1     -39.588  51.115 -53.224  1.00  0.00     0.004 A 
HETATM   31  C   UNL     1     -39.484  51.700 -51.965  1.00  0.00     0.014 A 
HETATM   32  C   UNL     1     -39.993  53.538 -50.445  1.00  0.00     0.017 A 
HETATM   33  C   UNL     1     -40.596  54.772 -50.219  1.00  0.00     0.045 A 
BRANCH  27  34
HETATM   34  O   UNL     1     -41.553  53.652 -54.981  1.00  0.00    -0.358 OA
HETATM   35  H   UNL     1     -42.215  53.044 -55.343  1.00  0.00     0.218 HD
ENDBRANCH  27  34
ENDBRANCH   1  24
TORSDOF 7
ENDMDL
MODEL 3
REMARK VINA RESULT:      -8.5      4.809      8.635
REMARK  7 active torsions:
REMARK  status: ('A' for Active; 'I' for Inactive)
REMARK    1  A    between atoms: C_3  and  O_4 
REMARK    2  A    between atoms: C_9  and  N_10 
REMARK    3  A    between atoms: C_13  and  C_14 
REMARK       I    between atoms: C_14  and  N_15 
REMARK    4  A    between atoms: N_15  and  C_16 
REMARK    5  A    between atoms: C_16  and  C_17 
REMARK    6  A    between atoms: C_17  and  N_18 
REMARK       I    between atoms: N_18  and  C_19 
REMARK    7  A    between atoms: C_19  and  C_20 
ROOT
HETATM    1  N   UNL     1     -42.542  61.276 -50.907  1.00  0.00    -0.268 NA
HETATM    2  C   UNL     1     -43.280  61.041 -52.157  1.00  0.00     0.098 C 
HETATM    3  C   UNL     1     -42.314  60.559 -53.238  1.00  0.00     0.029 C 
HETATM    4  C   UNL     1     -41.540  59.311 -52.798  1.00  0.00     0.080 C 
HETATM    5  C   UNL     1     -40.875  59.557 -51.437  1.00  0.00     0.029 C 
HETATM    6  C   UNL     1     -41.862  60.078 -50.388  1.00  0.00     0.098 C 
ENDROOT
BRANCH   4   7
HETATM    7  C   UNL     1     -42.413  58.057 -52.771  1.00  0.00     0.221 C 
HETATM    8  N   UNL     1     -43.420  58.048 -53.708  1.00  0.00    -0.359 N 
HETATM    9  H   UNL     1     -43.590  58.856 -54.290  1.00  0.00     0.162 HD
HETATM   10  O   UNL     1     -42.218  57.115 -52.010  1.00  0.00    -0.273 OA
BRANCH   8  11
HETATM   11  C   UNL     1     -44.347  56.934 -53.820  1.00  0.00     0.142 C 
BRANCH  11  12
HETATM   12  C   UNL     1     -43.910  55.899 -54.867  1.00  0.00     0.142 C 
BRANCH  12  13
HETATM   13  N   UNL     1     -43.131  54.798 -54.317  1.00  0.00    -0.355 N 
HETATM   14  C   UNL     1     -41.755  54.785 -54.410  1.00  0.00     0.251 C 
HETATM   15  O   UNL     1     -41.123  55.623 -55.046  1.00  0.00    -0.268 OA
HETATM   16  H   UNL     1     -43.595  54.214 -53.634  1.00  0.00     0.162 HD
BRANCH  14  17
HETATM   17  C   UNL     1     -41.029  53.712 -53.671  1.00  0.00     0.033 A 
HETATM   18  C   UNL     1     -40.682  52.490 -54.259  1.00  0.00     0.036 A 
HETATM   19  C   UNL     1     -40.005  51.531 -53.503  1.00  0.00     0.012 A 
HETATM   20 BR   UNL     1     -39.546  49.874 -54.293  1.00  0.00    -0.051 Br
HETATM   21  C   UNL     1     -39.661  51.777 -52.175  1.00  0.00     0.019 A 
HETATM   22  C   UNL     1     -39.991  52.998 -51.591  1.00  0.00     0.002 A 
HETATM   23  C   UNL     1     -40.670  53.963 -52.338  1.00  0.00     0.017 A 
ENDBRANCH  14  17
ENDBRANCH  12  13
ENDBRANCH  11  12
ENDBRANCH   8  11
ENDBRANCH   4   7
BRANCH   1  24
HETATM   24  C   UNL     1     -43.343  61.920 -49.934  1.00  0.00     0.106 A 
HETATM   25  N   UNL     1     -44.210  61.194 -49.193  1.00  0.00    -0.233 NA
HETATM   26  C   UNL     1     -45.008  61.793 -48.279  1.00  0.00     0.102 A 
HETATM   27  C   UNL     1     -45.920  61.061 -47.505  1.00  0.00     0.095 A 
HETATM   28  C   UNL     1     -44.962  63.185 -48.066  1.00  0.00    -0.004 A 
HETATM   29  C   UNL     1     -46.752  61.664 -46.556  1.00  0.00     0.039 A 
HETATM   30  C   UNL     1     -46.684  63.039 -46.358  1.00  0.00     0.004 A 
HETATM   31  C   UNL     1     -45.792  63.798 -47.111  1.00  0.00     0.014 A 
HETATM   32  C   UNL     1     -44.077  63.937 -48.840  1.00  0.00     0.017 A 
HETATM   33  C   UNL     1     -43.275  63.301 -49.784  1.00  0.00     0.045 A 
BRANCH  27  34
HETATM   34  O   UNL     1     -46.007  59.698 -47.686  1.00  0.00    -0.358 OA
HETATM   35  H   UNL     1     -46.419  59.518 -48.544  1.00  0.00     0.218 HD
ENDBRANCH  27  34
ENDBRANCH   1  24
TORSDOF 7
ENDMDL
MODEL 4
REMARK VINA RESULT:      -8.4      3.127      7.786
REMARK  7 active torsions:
REMARK  status: ('A' for Active; 'I' for Inactive)
REMARK    1  A    between atoms: C_3  and  O_4 
REMARK    2  A    between atoms: C_9  and  N_10 
REMARK    3  A    between atoms: C_13  and  C_14 
REMARK       I    between atoms: C_14  and  N_15 
REMARK    4  A    between atoms: N_15  and  C_16 
REMARK    5  A    between atoms: C_16  and  C_17 
REMARK    6  A    between atoms: C_17  and  N_18 
REMARK       I    between atoms: N_18  and  C_19 
REMARK    7  A    between atoms: C_19  and  C_20 
ROOT
HETATM    1  N   UNL     1     -43.701  58.815 -56.008  1.00  0.00    -0.268 NA
HETATM    2  C   UNL     1     -42.408  59.516 -56.035  1.00  0.00     0.098 C 
HETATM    3  C   UNL     1     -42.449  60.703 -55.075  1.00  0.00     0.029 C 
HETATM    4  C   UNL     1     -42.828  60.276 -53.653  1.00  0.00     0.080 C 
HETATM    5  C   UNL     1     -44.123  59.453 -53.678  1.00  0.00     0.029 C 
HETATM    6  C   UNL     1     -44.063  58.296 -54.679  1.00  0.00     0.098 C 
ENDROOT
BRANCH   4   7
HETATM    7  C   UNL     1     -41.703  59.520 -52.947  1.00  0.00     0.221 C 
HETATM    8  N   UNL     1     -42.099  58.834 -51.824  1.00  0.00    -0.359 N 
HETATM    9  H   UNL     1     -43.045  58.914 -51.477  1.00  0.00     0.162 HD
HETATM   10  O   UNL     1     -40.548  59.489 -53.361  1.00  0.00    -0.273 OA
BRANCH   8  11
HETATM   11  C   UNL     1     -41.157  58.063 -51.029  1.00  0.00     0.142 C 
BRANCH  11  12
HETATM   12  C   UNL     1     -41.716  56.700 -50.598  1.00  0.00     0.142 C 
BRANCH  12  13
HETATM   13  N   UNL     1     -41.340  55.603 -51.479  1.00  0.00    -0.355 N 
HETATM   14  C   UNL     1     -40.497  54.601 -51.045  1.00  0.00     0.251 C 
HETATM   15  O   UNL     1     -39.934  54.629 -49.956  1.00  0.00    -0.268 OA
HETATM   16  H   UNL     1     -41.928  55.452 -52.287  1.00  0.00     0.162 HD
BRANCH  14  17
HETATM   17  C   UNL     1     -40.304  53.431 -51.950  1.00  0.00     0.033 A 
HETATM   18  C   UNL     1     -40.017  52.146 -51.474  1.00  0.00     0.036 A 
HETATM   19  C   UNL     1     -39.846  51.099 -52.382  1.00  0.00     0.012 A 
HETATM   20 BR   UNL     1     -39.445  49.364 -51.741  1.00  0.00    -0.051 Br
HETATM   21  C   UNL     1     -39.967  51.313 -53.754  1.00  0.00     0.019 A 
HETATM   22  C   UNL     1     -40.267  52.587 -54.230  1.00  0.00     0.002 A 
HETATM   23  C   UNL     1     -40.438  53.641 -53.331  1.00  0.00     0.017 A 
ENDBRANCH  14  17
ENDBRANCH  12  13
ENDBRANCH  11  12
ENDBRANCH   8  11
ENDBRANCH   4   7
BRANCH   1  24
HETATM   24  C   UNL     1     -43.793  57.837 -57.026  1.00  0.00     0.106 A 
HETATM   25  N   UNL     1     -44.826  57.871 -57.897  1.00  0.00    -0.233 NA
HETATM   26  C   UNL     1     -44.951  56.927 -58.859  1.00  0.00     0.102 A 
HETATM   27  C   UNL     1     -46.019  56.939 -59.768  1.00  0.00     0.095 A 
HETATM   28  C   UNL     1     -44.014  55.883 -58.986  1.00  0.00    -0.004 A 
HETATM   29  C   UNL     1     -46.163  55.971 -60.768  1.00  0.00     0.039 A 
HETATM   30  C   UNL     1     -45.221  54.954 -60.880  1.00  0.00     0.004 A 
HETATM   31  C   UNL     1     -44.150  54.908 -59.991  1.00  0.00     0.014 A 
HETATM   32  C   UNL     1     -42.955  55.838 -58.079  1.00  0.00     0.017 A 
HETATM   33  C   UNL     1     -42.854  56.812 -57.089  1.00  0.00     0.045 A 
BRANCH  27  34
HETATM   34  O   UNL     1     -46.965  57.936 -59.675  1.00  0.00    -0.358 OA
HETATM   35  H   UNL     1     -47.312  57.960 -58.771  1.00  0.00     0.218 HD
ENDBRANCH  27  34
ENDBRANCH   1  24
TORSDOF 7
ENDMDL
MODEL 5
REMARK VINA RESULT:      -8.3      1.446      1.882
REMARK  7 active torsions:
REMARK  status: ('A' for Active; 'I' for Inactive)
REMARK    1  A    between atoms: C_3  and  O_4 
REMARK    2  A    between atoms: C_9  and  N_10 
REMARK    3  A    between atoms: C_13  and  C_14 
REMARK       I    between atoms: C_14  and  N_15 
REMARK    4  A    between atoms: N_15  and  C_16 
REMARK    5  A    between atoms: C_16  and  C_17 
REMARK    6  A    between atoms: C_17  and  N_18 
REMARK       I    between atoms: N_18  and  C_19 
REMARK    7  A    between atoms: C_19  and  C_20 
ROOT
HETATM    1  N   UNL     1     -41.423  56.885 -52.488  1.00  0.00    -0.268 NA
HETATM    2  C   UNL     1     -42.769  57.303 -52.908  1.00  0.00     0.098 C 
HETATM    3  C   UNL     1     -43.170  58.569 -52.154  1.00  0.00     0.029 C 
HETATM    4  C   UNL     1     -42.146  59.695 -52.341  1.00  0.00     0.080 C 
HETATM    5  C   UNL     1     -40.739  59.188 -51.999  1.00  0.00     0.029 C 
HETATM    6  C   UNL     1     -40.384  57.896 -52.741  1.00  0.00     0.098 C 
ENDROOT
BRANCH   4   7
HETATM    7  C   UNL     1     -42.192  60.304 -53.743  1.00  0.00     0.221 C 
HETATM    8  N   UNL     1     -43.071  61.352 -53.875  1.00  0.00    -0.359 N 
HETATM    9  H   UNL     1     -43.680  61.616 -53.113  1.00  0.00     0.162 HD
HETATM   10  O   UNL     1     -41.481  59.922 -54.667  1.00  0.00    -0.273 OA
BRANCH   8  11
HETATM   11  C   UNL     1     -43.244  62.046 -55.141  1.00  0.00     0.142 C 
BRANCH  11  12
HETATM   12  C   UNL     1     -44.275  61.370 -56.056  1.00  0.00     0.142 C 
BRANCH  12  13
HETATM   13  N   UNL     1     -43.699  60.394 -56.971  1.00  0.00    -0.355 N 
HETATM   14  C   UNL     1     -44.058  59.064 -56.910  1.00  0.00     0.251 C 
HETATM   15  O   UNL     1     -44.781  58.609 -56.029  1.00  0.00    -0.268 OA
HETATM   16  H   UNL     1     -43.268  60.761 -57.809  1.00  0.00     0.162 HD
BRANCH  14  17
HETATM   17  C   UNL     1     -43.555  58.168 -57.991  1.00  0.00     0.033 A 
HETATM   18  C   UNL     1     -44.179  56.960 -58.325  1.00  0.00     0.036 A 
HETATM   19  C   UNL     1     -43.648  56.172 -59.348  1.00  0.00     0.012 A 
HETATM   20 BR   UNL     1     -44.483  54.533 -59.792  1.00  0.00    -0.051 Br
HETATM   21  C   UNL     1     -42.512  56.576 -60.048  1.00  0.00     0.019 A 
HETATM   22  C   UNL     1     -41.897  57.785 -59.729  1.00  0.00     0.002 A 
HETATM   23  C   UNL     1     -42.419  58.579 -58.706  1.00  0.00     0.017 A 
ENDBRANCH  14  17
ENDBRANCH  12  13
ENDBRANCH  11  12
ENDBRANCH   8  11
ENDBRANCH   4   7
BRANCH   1  24
HETATM   24  C   UNL     1     -41.084  55.608 -52.995  1.00  0.00     0.106 A 
HETATM   25  N   UNL     1     -40.776  54.607 -52.141  1.00  0.00    -0.233 NA
HETATM   26  C   UNL     1     -40.419  53.387 -52.605  1.00  0.00     0.102 A 
HETATM   27  C   UNL     1     -40.087  52.337 -51.736  1.00  0.00     0.095 A 
HETATM   28  C   UNL     1     -40.357  53.118 -53.986  1.00  0.00    -0.004 A 
HETATM   29  C   UNL     1     -39.716  51.070 -52.200  1.00  0.00     0.039 A 
HETATM   30  C   UNL     1     -39.670  50.825 -53.567  1.00  0.00     0.004 A 
HETATM   31  C   UNL     1     -39.988  51.846 -54.459  1.00  0.00     0.014 A 
HETATM   32  C   UNL     1     -40.661  54.154 -54.870  1.00  0.00     0.017 A 
HETATM   33  C   UNL     1     -41.014  55.405 -54.370  1.00  0.00     0.045 A 
BRANCH  27  34
HETATM   34  O   UNL     1     -40.124  52.557 -50.377  1.00  0.00    -0.358 OA
HETATM   35  H   UNL     1     -39.850  53.469 -50.196  1.00  0.00     0.218 HD
ENDBRANCH  27  34
ENDBRANCH   1  24
TORSDOF 7
ENDMDL
MODEL 6
REMARK VINA RESULT:      -8.1     15.789     18.901
REMARK  7 active torsions:
REMARK  status: ('A' for Active; 'I' for Inactive)
REMARK    1  A    between atoms: C_3  and  O_4 
REMARK    2  A    between atoms: C_9  and  N_10 
REMARK    3  A    between atoms: C_13  and  C_14 
REMARK       I    between atoms: C_14  and  N_15 
REMARK    4  A    between atoms: N_15  and  C_16 
REMARK    5  A    between atoms: C_16  and  C_17 
REMARK    6  A    between atoms: C_17  and  N_18 
REMARK       I    between atoms: N_18  and  C_19 
REMARK    7  A    between atoms: C_19  and  C_20 
ROOT
HETATM    1  N   UNL     1     -32.053  39.599 -50.143  1.00  0.00    -0.268 NA
HETATM    2  C   UNL     1     -33.032  40.668 -50.392  1.00  0.00     0.098 C 
HETATM    3  C   UNL     1     -32.984  41.071 -51.865  1.00  0.00     0.029 C 
HETATM    4  C   UNL     1     -33.209  39.874 -52.794  1.00  0.00     0.080 C 
HETATM    5  C   UNL     1     -32.244  38.737 -52.431  1.00  0.00     0.029 C 
HETATM    6  C   UNL     1     -32.287  38.385 -50.941  1.00  0.00     0.098 C 
ENDROOT
BRANCH   4   7
HETATM    7  C   UNL     1     -34.660  39.393 -52.792  1.00  0.00     0.221 C 
HETATM    8  N   UNL     1     -35.575  40.355 -52.436  1.00  0.00    -0.359 N 
HETATM    9  H   UNL     1     -35.271  41.268 -52.128  1.00  0.00     0.162 HD
HETATM   10  O   UNL     1     -34.994  38.257 -53.115  1.00  0.00    -0.273 OA
BRANCH   8  11
HETATM   11  C   UNL     1     -36.999  40.069 -52.379  1.00  0.00     0.142 C 
BRANCH  11  12
HETATM   12  C   UNL     1     -37.859  41.200 -52.960  1.00  0.00     0.142 C 
BRANCH  12  13
HETATM   13  N   UNL     1     -38.042  41.118 -54.403  1.00  0.00    -0.355 N 
HETATM   14  C   UNL     1     -37.098  41.627 -55.270  1.00  0.00     0.251 C 
HETATM   15  O   UNL     1     -36.122  42.267 -54.890  1.00  0.00    -0.268 OA
HETATM   16  H   UNL     1     -38.716  40.440 -54.734  1.00  0.00     0.162 HD
BRANCH  14  17
HETATM   17  C   UNL     1     -37.281  41.347 -56.723  1.00  0.00     0.033 A 
HETATM   18  C   UNL     1     -37.815  40.145 -57.201  1.00  0.00     0.036 A 
HETATM   19  C   UNL     1     -37.954  39.952 -58.577  1.00  0.00     0.012 A 
HETATM   20 BR   UNL     1     -38.664  38.322 -59.224  1.00  0.00    -0.051 Br
HETATM   21  C   UNL     1     -37.577  40.944 -59.481  1.00  0.00     0.019 A 
HETATM   22  C   UNL     1     -37.059  42.148 -59.008  1.00  0.00     0.002 A 
HETATM   23  C   UNL     1     -36.915  42.350 -57.635  1.00  0.00     0.017 A 
ENDBRANCH  14  17
ENDBRANCH  12  13
ENDBRANCH  11  12
ENDBRANCH   8  11
ENDBRANCH   4   7
BRANCH   1  24
HETATM   24  C   UNL     1     -31.905  39.330 -48.762  1.00  0.00     0.106 A 
HETATM   25  N   UNL     1     -30.974  39.998 -48.045  1.00  0.00    -0.233 NA
HETATM   26  C   UNL     1     -30.794  39.735 -46.730  1.00  0.00     0.102 A 
HETATM   27  C   UNL     1     -29.828  40.410 -45.969  1.00  0.00     0.095 A 
HETATM   28  C   UNL     1     -31.567  38.762 -46.065  1.00  0.00    -0.004 A 
HETATM   29  C   UNL     1     -29.630  40.150 -44.608  1.00  0.00     0.039 A 
HETATM   30  C   UNL     1     -30.410  39.192 -43.971  1.00  0.00     0.004 A 
HETATM   31  C   UNL     1     -31.375  38.498 -44.697  1.00  0.00     0.014 A 
HETATM   32  C   UNL     1     -32.518  38.062 -46.807  1.00  0.00     0.017 A 
HETATM   33  C   UNL     1     -32.677  38.340 -48.162  1.00  0.00     0.045 A 
BRANCH  27  34
HETATM   34  O   UNL     1     -29.043  41.363 -46.579  1.00  0.00    -0.358 OA
HETATM   35  H   UNL     1     -29.233  42.229 -46.188  1.00  0.00     0.218 HD
ENDBRANCH  27  34
ENDBRANCH   1  24
TORSDOF 7
ENDMDL
MODEL 7
REMARK VINA RESULT:      -7.9      1.729      2.120
REMARK  7 active torsions:
REMARK  status: ('A' for Active; 'I' for Inactive)
REMARK    1  A    between atoms: C_3  and  O_4 
REMARK    2  A    between atoms: C_9  and  N_10 
REMARK    3  A    between atoms: C_13  and  C_14 
REMARK       I    between atoms: C_14  and  N_15 
REMARK    4  A    between atoms: N_15  and  C_16 
REMARK    5  A    between atoms: C_16  and  C_17 
REMARK    6  A    between atoms: C_17  and  N_18 
REMARK       I    between atoms: N_18  and  C_19 
REMARK    7  A    between atoms: C_19  and  C_20 
ROOT
HETATM    1  N   UNL     1     -43.595  55.936 -52.994  1.00  0.00    -0.268 NA
HETATM    2  C   UNL     1     -43.881  56.761 -54.177  1.00  0.00     0.098 C 
HETATM    3  C   UNL     1     -44.974  57.774 -53.842  1.00  0.00     0.029 C 
HETATM    4  C   UNL     1     -44.604  58.636 -52.630  1.00  0.00     0.080 C 
HETATM    5  C   UNL     1     -44.205  57.740 -51.449  1.00  0.00     0.029 C 
HETATM    6  C   UNL     1     -43.137  56.711 -51.829  1.00  0.00     0.098 C 
ENDROOT
BRANCH   4   7
HETATM    7  C   UNL     1     -43.512  59.657 -52.947  1.00  0.00     0.221 C 
HETATM    8  N   UNL     1     -43.720  60.367 -54.105  1.00  0.00    -0.359 N 
HETATM    9  H   UNL     1     -44.496  60.147 -54.714  1.00  0.00     0.162 HD
HETATM   10  O   UNL     1     -42.547  59.861 -52.217  1.00  0.00    -0.273 OA
BRANCH   8  11
HETATM   11  C   UNL     1     -42.778  61.377 -54.560  1.00  0.00     0.142 C 
BRANCH  11  12
HETATM   12  C   UNL     1     -43.066  61.862 -55.987  1.00  0.00     0.142 C 
BRANCH  12  13
HETATM   13  N   UNL     1     -43.426  60.794 -56.911  1.00  0.00    -0.355 N 
HETATM   14  C   UNL     1     -42.465  60.158 -57.670  1.00  0.00     0.251 C 
HETATM   15  O   UNL     1     -41.293  60.519 -57.698  1.00  0.00    -0.268 OA
HETATM   16  H   UNL     1     -44.324  60.355 -56.764  1.00  0.00     0.162 HD
BRANCH  14  17
HETATM   17  C   UNL     1     -42.893  58.965 -58.455  1.00  0.00     0.033 A 
HETATM   18  C   UNL     1     -44.237  58.602 -58.608  1.00  0.00     0.036 A 
HETATM   19  C   UNL     1     -44.562  57.469 -59.356  1.00  0.00     0.012 A 
HETATM   20 BR   UNL     1     -46.376  56.969 -59.553  1.00  0.00    -0.051 Br
HETATM   21  C   UNL     1     -43.568  56.700 -59.961  1.00  0.00     0.019 A 
HETATM   22  C   UNL     1     -42.232  57.067 -59.824  1.00  0.00     0.002 A 
HETATM   23  C   UNL     1     -41.896  58.197 -59.076  1.00  0.00     0.017 A 
ENDBRANCH  14  17
ENDBRANCH  12  13
ENDBRANCH  11  12
ENDBRANCH   8  11
ENDBRANCH   4   7
BRANCH   1  24
HETATM   24  C   UNL     1     -42.743  54.848 -53.301  1.00  0.00     0.106 A 
HETATM   25  N   UNL     1     -41.957  54.320 -52.338  1.00  0.00    -0.233 NA
HETATM   26  C   UNL     1     -41.113  53.300 -52.616  1.00  0.00     0.102 A 
HETATM   27  C   UNL     1     -40.282  52.742 -51.634  1.00  0.00     0.095 A 
HETATM   28  C   UNL     1     -41.024  52.756 -53.913  1.00  0.00    -0.004 A 
HETATM   29  C   UNL     1     -39.403  51.687 -51.906  1.00  0.00     0.039 A 
HETATM   30  C   UNL     1     -39.338  51.161 -53.191  1.00  0.00     0.004 A 
HETATM   31  C   UNL     1     -40.145  51.694 -54.193  1.00  0.00     0.014 A 
HETATM   32  C   UNL     1     -41.824  53.310 -54.912  1.00  0.00     0.017 A 
HETATM   33  C   UNL     1     -42.677  54.367 -54.605  1.00  0.00     0.045 A 
BRANCH  27  34
HETATM   34  O   UNL     1     -40.327  53.248 -50.353  1.00  0.00    -0.358 OA
HETATM   35  H   UNL     1     -40.258  54.214 -50.393  1.00  0.00     0.218 HD
ENDBRANCH  27  34
ENDBRANCH   1  24
TORSDOF 7
ENDMDL
MODEL 8
REMARK VINA RESULT:      -7.9      3.051      7.004
REMARK  7 active torsions:
REMARK  status: ('A' for Active; 'I' for Inactive)
REMARK    1  A    between atoms: C_3  and  O_4 
REMARK    2  A    between atoms: C_9  and  N_10 
REMARK    3  A    between atoms: C_13  and  C_14 
REMARK       I    between atoms: C_14  and  N_15 
REMARK    4  A    between atoms: N_15  and  C_16 
REMARK    5  A    between atoms: C_16  and  C_17 
REMARK    6  A    between atoms: C_17  and  N_18 
REMARK       I    between atoms: N_18  and  C_19 
REMARK    7  A    between atoms: C_19  and  C_20 
ROOT
HETATM    1  N   UNL     1     -43.427  59.012 -54.230  1.00  0.00    -0.268 NA
HETATM    2  C   UNL     1     -42.304  59.932 -53.998  1.00  0.00     0.098 C 
HETATM    3  C   UNL     1     -42.668  60.914 -52.885  1.00  0.00     0.029 C 
HETATM    4  C   UNL     1     -43.080  60.191 -51.597  1.00  0.00     0.080 C 
HETATM    5  C   UNL     1     -44.176  59.161 -51.899  1.00  0.00     0.029 C 
HETATM    6  C   UNL     1     -43.797  58.220 -53.046  1.00  0.00     0.098 C 
ENDROOT
BRANCH   4   7
HETATM    7  C   UNL     1     -41.894  59.547 -50.880  1.00  0.00     0.221 C 
HETATM    8  N   UNL     1     -42.068  58.217 -50.581  1.00  0.00    -0.359 N 
HETATM    9  H   UNL     1     -42.951  57.758 -50.759  1.00  0.00     0.162 HD
HETATM   10  O   UNL     1     -40.855  60.146 -50.624  1.00  0.00    -0.273 OA
BRANCH   8  11
HETATM   11  C   UNL     1     -41.041  57.448 -49.897  1.00  0.00     0.142 C 
BRANCH  11  12
HETATM   12  C   UNL     1     -41.412  55.967 -49.737  1.00  0.00     0.142 C 
BRANCH  12  13
HETATM   13  N   UNL     1     -40.926  55.119 -50.817  1.00  0.00    -0.355 N 
HETATM   14  C   UNL     1     -41.763  54.722 -51.839  1.00  0.00     0.251 C 
HETATM   15  O   UNL     1     -42.967  54.958 -51.844  1.00  0.00    -0.268 OA
HETATM   16  H   UNL     1     -39.924  55.077 -50.941  1.00  0.00     0.162 HD
BRANCH  14  17
HETATM   17  C   UNL     1     -41.144  54.002 -52.990  1.00  0.00     0.033 A 
HETATM   18  C   UNL     1     -40.875  52.629 -52.967  1.00  0.00     0.036 A 
HETATM   19  C   UNL     1     -40.290  52.024 -54.081  1.00  0.00     0.012 A 
HETATM   20 BR   UNL     1     -39.914  50.169 -54.047  1.00  0.00    -0.051 Br
HETATM   21  C   UNL     1     -39.979  52.766 -55.219  1.00  0.00     0.019 A 
HETATM   22  C   UNL     1     -40.259  54.131 -55.251  1.00  0.00     0.002 A 
HETATM   23  C   UNL     1     -40.842  54.745 -54.142  1.00  0.00     0.017 A 
ENDBRANCH  14  17
ENDBRANCH  12  13
ENDBRANCH  11  12
ENDBRANCH   8  11
ENDBRANCH   4   7
BRANCH   1  24
HETATM   24  C   UNL     1     -43.230  58.218 -55.384  1.00  0.00     0.106 A 
HETATM   25  N   UNL     1     -42.762  58.788 -56.517  1.00  0.00    -0.233 NA
HETATM   26  C   UNL     1     -42.595  58.054 -57.642  1.00  0.00     0.102 A 
HETATM   27  C   UNL     1     -42.119  58.626 -58.831  1.00  0.00     0.095 A 
HETATM   28  C   UNL     1     -42.900  56.678 -57.671  1.00  0.00    -0.004 A 
HETATM   29  C   UNL     1     -41.941  57.881 -60.002  1.00  0.00     0.039 A 
HETATM   30  C   UNL     1     -42.240  56.523 -60.005  1.00  0.00     0.004 A 
HETATM   31  C   UNL     1     -42.719  55.923 -58.844  1.00  0.00     0.014 A 
HETATM   32  C   UNL     1     -43.395  56.092 -56.506  1.00  0.00     0.017 A 
HETATM   33  C   UNL     1     -43.572  56.869 -55.365  1.00  0.00     0.045 A 
BRANCH  27  34
HETATM   34  O   UNL     1     -41.818  59.970 -58.852  1.00  0.00    -0.358 OA
HETATM   35  H   UNL     1     -42.609  60.467 -59.108  1.00  0.00     0.218 HD
ENDBRANCH  27  34
ENDBRANCH   1  24
TORSDOF 7
ENDMDL
MODEL 9
REMARK VINA RESULT:      -7.9     16.299     18.912
REMARK  7 active torsions:
REMARK  status: ('A' for Active; 'I' for Inactive)
REMARK    1  A    between atoms: C_3  and  O_4 
REMARK    2  A    between atoms: C_9  and  N_10 
REMARK    3  A    between atoms: C_13  and  C_14 
REMARK       I    between atoms: C_14  and  N_15 
REMARK    4  A    between atoms: N_15  and  C_16 
REMARK    5  A    between atoms: C_16  and  C_17 
REMARK    6  A    between atoms: C_17  and  N_18 
REMARK       I    between atoms: N_18  and  C_19 
REMARK    7  A    between atoms: C_19  and  C_20 
ROOT
HETATM    1  N   UNL     1     -36.262  41.492 -54.244  1.00  0.00    -0.268 NA
HETATM    2  C   UNL     1     -37.490  40.782 -54.634  1.00  0.00     0.098 C 
HETATM    3  C   UNL     1     -38.182  41.542 -55.764  1.00  0.00     0.029 C 
HETATM    4  C   UNL     1     -37.252  41.760 -56.962  1.00  0.00     0.080 C 
HETATM    5  C   UNL     1     -35.937  42.400 -56.498  1.00  0.00     0.029 C 
HETATM    6  C   UNL     1     -35.290  41.637 -55.339  1.00  0.00     0.098 C 
ENDROOT
BRANCH   4   7
HETATM    7  C   UNL     1     -36.996  40.474 -57.748  1.00  0.00     0.221 C 
HETATM    8  N   UNL     1     -37.956  39.505 -57.576  1.00  0.00    -0.359 N 
HETATM    9  H   UNL     1     -38.707  39.634 -56.913  1.00  0.00     0.162 HD
HETATM   10  O   UNL     1     -36.040  40.324 -58.502  1.00  0.00    -0.273 OA
BRANCH   8  11
HETATM   11  C   UNL     1     -37.869  38.218 -58.247  1.00  0.00     0.142 C 
BRANCH  11  12
HETATM   12  C   UNL     1     -37.184  37.144 -57.390  1.00  0.00     0.142 C 
BRANCH  12  13
HETATM   13  N   UNL     1     -35.863  37.528 -56.909  1.00  0.00    -0.355 N 
HETATM   14  C   UNL     1     -35.608  37.658 -55.560  1.00  0.00     0.251 C 
HETATM   15  O   UNL     1     -36.485  37.571 -54.706  1.00  0.00    -0.268 OA
HETATM   16  H   UNL     1     -35.096  37.412 -57.558  1.00  0.00     0.162 HD
BRANCH  14  17
HETATM   17  C   UNL     1     -34.192  37.882 -55.150  1.00  0.00     0.033 A 
HETATM   18  C   UNL     1     -33.272  38.570 -55.950  1.00  0.00     0.036 A 
HETATM   19  C   UNL     1     -31.961  38.739 -55.501  1.00  0.00     0.012 A 
HETATM   20 BR   UNL     1     -30.713  39.657 -56.587  1.00  0.00    -0.051 Br
HETATM   21  C   UNL     1     -31.558  38.241 -54.263  1.00  0.00     0.019 A 
HETATM   22  C   UNL     1     -32.475  37.569 -53.457  1.00  0.00     0.002 A 
HETATM   23  C   UNL     1     -33.787  37.393 -53.898  1.00  0.00     0.017 A 
ENDBRANCH  14  17
ENDBRANCH  12  13
ENDBRANCH  11  12
ENDBRANCH   8  11
ENDBRANCH   4   7
BRANCH   1  24
HETATM   24  C   UNL     1     -35.690  40.950 -53.068  1.00  0.00     0.106 A 
HETATM   25  N   UNL     1     -34.357  41.043 -52.867  1.00  0.00    -0.233 NA
HETATM   26  C   UNL     1     -33.785  40.506 -51.765  1.00  0.00     0.102 A 
HETATM   27  C   UNL     1     -32.402  40.583 -51.541  1.00  0.00     0.095 A 
HETATM   28  C   UNL     1     -34.554  39.835 -50.793  1.00  0.00    -0.004 A 
HETATM   29  C   UNL     1     -31.795  40.032 -50.407  1.00  0.00     0.039 A 
HETATM   30  C   UNL     1     -32.575  39.383 -49.457  1.00  0.00     0.004 A 
HETATM   31  C   UNL     1     -33.951  39.283 -49.649  1.00  0.00     0.014 A 
HETATM   32  C   UNL     1     -35.928  39.727 -51.006  1.00  0.00     0.017 A 
HETATM   33  C   UNL     1     -36.494  40.276 -52.153  1.00  0.00     0.045 A 
BRANCH  27  34
HETATM   34  O   UNL     1     -31.609  41.221 -52.469  1.00  0.00    -0.358 OA
HETATM   35  H   UNL     1     -30.814  41.557 -52.029  1.00  0.00     0.218 HD
ENDBRANCH  27  34
ENDBRANCH   1  24
TORSDOF 7
ENDMDL
MODEL 10
REMARK VINA RESULT:      -7.9      5.925      9.404
REMARK  7 active torsions:
REMARK  status: ('A' for Active; 'I' for Inactive)
REMARK    1  A    between atoms: C_3  and  O_4 
REMARK    2  A    between atoms: C_9  and  N_10 
REMARK    3  A    between atoms: C_13  and  C_14 
REMARK       I    between atoms: C_14  and  N_15 
REMARK    4  A    between atoms: N_15  and  C_16 
REMARK    5  A    between atoms: C_16  and  C_17 
REMARK    6  A    between atoms: C_17  and  N_18 
REMARK       I    between atoms: N_18  and  C_19 
REMARK    7  A    between atoms: C_19  and  C_20 
ROOT
HETATM    1  N   UNL     1     -46.088  61.315 -49.581  1.00  0.00    -0.268 NA
HETATM    2  C   UNL     1     -45.406  60.012 -49.591  1.00  0.00     0.098 C 
HETATM    3  C   UNL     1     -45.958  59.155 -50.730  1.00  0.00     0.029 C 
HETATM    4  C   UNL     1     -45.842  59.862 -52.085  1.00  0.00     0.080 C 
HETATM    5  C   UNL     1     -46.466  61.261 -52.003  1.00  0.00     0.029 C 
HETATM    6  C   UNL     1     -45.922  62.078 -50.828  1.00  0.00     0.098 C 
ENDROOT
BRANCH   4   7
HETATM    7  C   UNL     1     -44.403  59.924 -52.594  1.00  0.00     0.221 C 
HETATM    8  N   UNL     1     -43.703  58.748 -52.459  1.00  0.00    -0.359 N 
HETATM    9  H   UNL     1     -44.111  57.956 -51.982  1.00  0.00     0.162 HD
HETATM   10  O   UNL     1     -43.915  60.921 -53.117  1.00  0.00    -0.273 OA
BRANCH   8  11
HETATM   11  C   UNL     1     -42.319  58.631 -52.889  1.00  0.00     0.142 C 
BRANCH  11  12
HETATM   12  C   UNL     1     -42.104  57.497 -53.901  1.00  0.00     0.142 C 
BRANCH  12  13
HETATM   13  N   UNL     1     -41.413  56.339 -53.350  1.00  0.00    -0.355 N 
HETATM   14  C   UNL     1     -42.009  55.096 -53.338  1.00  0.00     0.251 C 
HETATM   15  O   UNL     1     -43.174  54.912 -53.677  1.00  0.00    -0.268 OA
HETATM   16  H   UNL     1     -40.410  56.418 -53.251  1.00  0.00     0.162 HD
BRANCH  14  17
HETATM   17  C   UNL     1     -41.169  53.938 -52.917  1.00  0.00     0.033 A 
HETATM   18  C   UNL     1     -40.934  52.833 -53.744  1.00  0.00     0.036 A 
HETATM   19  C   UNL     1     -40.138  51.783 -53.279  1.00  0.00     0.012 A 
HETATM   20 BR   UNL     1     -39.830  50.283 -54.391  1.00  0.00    -0.051 Br
HETATM   21  C   UNL     1     -39.566  51.826 -52.009  1.00  0.00     0.019 A 
HETATM   22  C   UNL     1     -39.786  52.931 -51.189  1.00  0.00     0.002 A 
HETATM   23  C   UNL     1     -40.581  53.983 -51.643  1.00  0.00     0.017 A 
ENDBRANCH  14  17
ENDBRANCH  12  13
ENDBRANCH  11  12
ENDBRANCH   8  11
ENDBRANCH   4   7
BRANCH   1  24
HETATM   24  C   UNL     1     -45.769  62.069 -48.426  1.00  0.00     0.106 A 
HETATM   25  N   UNL     1     -45.353  61.436 -47.307  1.00  0.00    -0.233 NA
HETATM   26  C   UNL     1     -45.072  62.135 -46.183  1.00  0.00     0.102 A 
HETATM   27  C   UNL     1     -44.646  61.498 -45.007  1.00  0.00     0.095 A 
HETATM   28  C   UNL     1     -45.201  63.537 -46.139  1.00  0.00    -0.004 A 
HETATM   29  C   UNL     1     -44.352  62.205 -43.836  1.00  0.00     0.039 A 
HETATM   30  C   UNL     1     -44.479  63.590 -43.820  1.00  0.00     0.004 A 
HETATM   31  C   UNL     1     -44.903  64.255 -44.967  1.00  0.00     0.014 A 
HETATM   32  C   UNL     1     -45.644  64.189 -47.290  1.00  0.00     0.017 A 
HETATM   33  C   UNL     1     -45.939  63.450 -48.432  1.00  0.00     0.045 A 
BRANCH  27  34
HETATM   34  O   UNL     1     -44.516  60.127 -45.000  1.00  0.00    -0.358 OA
HETATM   35  H   UNL     1     -44.585  59.807 -44.088  1.00  0.00     0.218 HD
ENDBRANCH  27  34
ENDBRANCH   1  24
TORSDOF 7
ENDMDL
