MODEL 1
REMARK VINA RESULT:      -8.7      0.000      0.000
REMARK  5 active torsions:
REMARK  status: ('A' for Active; 'I' for Inactive)
REMARK    1  A    between atoms: O_2  and  C_3 
REMARK    2  A    between atoms: C_5  and  C_6 
REMARK    3  A    between atoms: C_6  and  N_7 
REMARK       I    between atoms: N_7  and  C_8 
REMARK    4  A    between atoms: C_8  and  C_9 
REMARK    5  A    between atoms: C_19  and  C_20 
ROOT
HETATM    1  C   UNL     1     -43.331  56.164 -51.464  1.00  0.00     0.159 A 
HETATM    2  O   UNL     1     -44.231  56.960 -50.700  1.00  0.00    -0.268 OA
HETATM    3  C   UNL     1     -44.935  58.005 -51.201  1.00  0.00     0.299 A 
HETATM    4  O   UNL     1     -45.710  58.654 -50.512  1.00  0.00    -0.259 OA
HETATM    5  C   UNL     1     -44.717  58.309 -52.626  1.00  0.00     0.051 A 
HETATM    6  C   UNL     1     -43.855  57.522 -53.393  1.00  0.00    -0.006 A 
HETATM    7  C   UNL     1     -45.397  59.400 -53.192  1.00  0.00     0.018 A 
HETATM    8  C   UNL     1     -45.220  59.716 -54.535  1.00  0.00     0.001 A 
HETATM    9  C   UNL     1     -44.368  58.941 -55.315  1.00  0.00     0.001 A 
HETATM   10  C   UNL     1     -43.693  57.854 -54.750  1.00  0.00     0.013 A 
HETATM   11  C   UNL     1     -43.128  56.377 -52.784  1.00  0.00     0.025 A 
ENDROOT
BRANCH   1  12
HETATM   12  C   UNL     1     -42.645  55.087 -50.652  1.00  0.00     0.276 C 
HETATM   13  N   UNL     1     -41.279  55.260 -50.594  1.00  0.00    -0.351 N 
HETATM   14  H   UNL     1     -40.904  56.138 -50.926  1.00  0.00     0.163 HD
HETATM   15  O   UNL     1     -43.215  54.148 -50.115  1.00  0.00    -0.265 OA
BRANCH  13  16
HETATM   16  C   UNL     1     -40.448  54.372 -49.818  1.00  0.00     0.161 C 
BRANCH  16  17
HETATM   17  C   UNL     1     -40.226  52.999 -50.409  1.00  0.00    -0.038 A 
HETATM   18  C   UNL     1     -39.802  52.764 -51.726  1.00  0.00     0.045 A 
HETATM   19  C   UNL     1     -39.589  51.464 -52.203  1.00  0.00     0.068 A 
HETATM   20  C   UNL     1     -39.829  50.376 -51.366  1.00  0.00     0.037 A 
HETATM   21  C   UNL     1     -40.265  50.588 -50.058  1.00  0.00     0.003 A 
HETATM   22  C   UNL     1     -40.456  51.886 -49.584  1.00  0.00     0.009 A 
BRANCH  19  23
HETATM   23  O   UNL     1     -39.155  51.398 -53.500  1.00  0.00    -0.356 OA
HETATM   24  C   UNL     1     -39.578  50.275 -54.262  1.00  0.00     0.210 C 
ENDBRANCH  19  23
ENDBRANCH  16  17
ENDBRANCH  13  16
ENDBRANCH   1  12
BRANCH  11  25
HETATM   25  C   UNL     1     -42.242  55.491 -53.574  1.00  0.00    -0.022 A 
HETATM   26  C   UNL     1     -42.701  54.232 -53.988  1.00  0.00     0.012 A 
HETATM   27  C   UNL     1     -41.887  53.411 -54.772  1.00  0.00     0.001 A 
HETATM   28  C   UNL     1     -40.615  53.843 -55.146  1.00  0.00     0.000 A 
HETATM   29  C   UNL     1     -40.153  55.093 -54.739  1.00  0.00     0.001 A 
HETATM   30  C   UNL     1     -40.964  55.918 -53.957  1.00  0.00     0.012 A 
ENDBRANCH  11  25
TORSDOF 5
ENDMDL
MODEL 2
REMARK VINA RESULT:      -8.6      1.987      6.818
REMARK  5 active torsions:
REMARK  status: ('A' for Active; 'I' for Inactive)
REMARK    1  A    between atoms: O_2  and  C_3 
REMARK    2  A    between atoms: C_5  and  C_6 
REMARK    3  A    between atoms: C_6  and  N_7 
REMARK       I    between atoms: N_7  and  C_8 
REMARK    4  A    between atoms: C_8  and  C_9 
REMARK    5  A    between atoms: C_19  and  C_20 
ROOT
HETATM    1  C   UNL     1     -41.248  53.502 -51.336  1.00  0.00     0.159 A 
HETATM    2  O   UNL     1     -40.823  52.614 -50.308  1.00  0.00    -0.268 OA
HETATM    3  C   UNL     1     -40.255  51.403 -50.534  1.00  0.00     0.299 A 
HETATM    4  O   UNL     1     -39.891  50.677 -49.620  1.00  0.00    -0.259 OA
HETATM    5  C   UNL     1     -40.095  51.017 -51.948  1.00  0.00     0.051 A 
HETATM    6  C   UNL     1     -40.486  51.890 -52.967  1.00  0.00    -0.006 A 
HETATM    7  C   UNL     1     -39.541  49.761 -52.242  1.00  0.00     0.018 A 
HETATM    8  C   UNL     1     -39.370  49.364 -53.564  1.00  0.00     0.001 A 
HETATM    9  C   UNL     1     -39.750  50.220 -54.592  1.00  0.00     0.001 A 
HETATM   10  C   UNL     1     -40.301  51.471 -54.297  1.00  0.00     0.013 A 
HETATM   11  C   UNL     1     -41.085  53.212 -52.647  1.00  0.00     0.025 A 
ENDROOT
BRANCH   1  12
HETATM   12  C   UNL     1     -41.885  54.770 -50.809  1.00  0.00     0.276 C 
HETATM   13  N   UNL     1     -41.048  55.861 -50.908  1.00  0.00    -0.351 N 
HETATM   14  H   UNL     1     -40.205  55.756 -51.457  1.00  0.00     0.163 HD
HETATM   15  O   UNL     1     -43.007  54.840 -50.328  1.00  0.00    -0.265 OA
BRANCH  13  16
HETATM   16  C   UNL     1     -41.490  57.176 -50.516  1.00  0.00     0.161 C 
BRANCH  16  17
HETATM   17  C   UNL     1     -42.187  57.981 -51.589  1.00  0.00    -0.038 A 
HETATM   18  C   UNL     1     -41.537  58.568 -52.685  1.00  0.00     0.045 A 
HETATM   19  C   UNL     1     -42.248  59.280 -53.660  1.00  0.00     0.068 A 
HETATM   20  C   UNL     1     -43.626  59.436 -53.529  1.00  0.00     0.037 A 
HETATM   21  C   UNL     1     -44.289  58.873 -52.439  1.00  0.00     0.003 A 
HETATM   22  C   UNL     1     -43.577  58.148 -51.482  1.00  0.00     0.009 A 
BRANCH  19  23
HETATM   23  O   UNL     1     -41.477  59.772 -54.679  1.00  0.00    -0.356 OA
HETATM   24  C   UNL     1     -42.080  59.840 -55.964  1.00  0.00     0.210 C 
ENDBRANCH  19  23
ENDBRANCH  16  17
ENDBRANCH  13  16
ENDBRANCH   1  12
BRANCH  11  25
HETATM   25  C   UNL     1     -41.468  54.183 -53.698  1.00  0.00    -0.022 A 
HETATM   26  C   UNL     1     -42.794  54.236 -54.152  1.00  0.00     0.012 A 
HETATM   27  C   UNL     1     -43.170  55.179 -55.111  1.00  0.00     0.001 A 
HETATM   28  C   UNL     1     -42.228  56.074 -55.617  1.00  0.00     0.000 A 
HETATM   29  C   UNL     1     -40.909  56.028 -55.169  1.00  0.00     0.001 A 
HETATM   30  C   UNL     1     -40.528  55.087 -54.210  1.00  0.00     0.012 A 
ENDBRANCH  11  25
TORSDOF 5
ENDMDL
MODEL 3
REMARK VINA RESULT:      -8.5      2.217      7.696
REMARK  5 active torsions:
REMARK  status: ('A' for Active; 'I' for Inactive)
REMARK    1  A    between atoms: O_2  and  C_3 
REMARK    2  A    between atoms: C_5  and  C_6 
REMARK    3  A    between atoms: C_6  and  N_7 
REMARK       I    between atoms: N_7  and  C_8 
REMARK    4  A    between atoms: C_8  and  C_9 
REMARK    5  A    between atoms: C_19  and  C_20 
ROOT
HETATM    1  C   UNL     1     -40.521  53.207 -53.888  1.00  0.00     0.159 A 
HETATM    2  O   UNL     1     -39.973  52.105 -54.604  1.00  0.00    -0.268 OA
HETATM    3  C   UNL     1     -39.632  50.922 -54.035  1.00  0.00     0.299 A 
HETATM    4  O   UNL     1     -39.177  49.994 -54.690  1.00  0.00    -0.259 OA
HETATM    5  C   UNL     1     -39.848  50.817 -52.581  1.00  0.00     0.051 A 
HETATM    6  C   UNL     1     -40.407  51.882 -51.871  1.00  0.00    -0.006 A 
HETATM    7  C   UNL     1     -39.485  49.625 -51.933  1.00  0.00     0.018 A 
HETATM    8  C   UNL     1     -39.678  49.486 -50.562  1.00  0.00     0.001 A 
HETATM    9  C   UNL     1     -40.236  50.535 -49.839  1.00  0.00     0.001 A 
HETATM   10  C   UNL     1     -40.598  51.721 -50.487  1.00  0.00     0.013 A 
HETATM   11  C   UNL     1     -40.776  53.145 -52.562  1.00  0.00     0.025 A 
ENDROOT
BRANCH   1  12
HETATM   12  C   UNL     1     -40.774  54.420 -54.757  1.00  0.00     0.276 C 
HETATM   13  N   UNL     1     -42.089  54.512 -55.163  1.00  0.00    -0.351 N 
HETATM   14  H   UNL     1     -42.759  53.897 -54.721  1.00  0.00     0.163 HD
HETATM   15  O   UNL     1     -39.922  55.231 -55.090  1.00  0.00    -0.265 OA
BRANCH  13  16
HETATM   16  C   UNL     1     -42.548  55.630 -55.949  1.00  0.00     0.161 C 
BRANCH  16  17
HETATM   17  C   UNL     1     -43.081  56.807 -55.164  1.00  0.00    -0.038 A 
HETATM   18  C   UNL     1     -42.316  57.577 -54.275  1.00  0.00     0.045 A 
HETATM   19  C   UNL     1     -42.866  58.673 -53.599  1.00  0.00     0.068 A 
HETATM   20  C   UNL     1     -44.209  58.994 -53.785  1.00  0.00     0.037 A 
HETATM   21  C   UNL     1     -44.991  58.232 -54.654  1.00  0.00     0.003 A 
HETATM   22  C   UNL     1     -44.431  57.153 -55.339  1.00  0.00     0.009 A 
BRANCH  19  23
HETATM   23  O   UNL     1     -41.988  59.338 -52.785  1.00  0.00    -0.356 OA
HETATM   24  C   UNL     1     -40.605  59.072 -52.980  1.00  0.00     0.210 C 
ENDBRANCH  19  23
ENDBRANCH  16  17
ENDBRANCH  13  16
ENDBRANCH   1  12
BRANCH  11  25
HETATM   25  C   UNL     1     -41.414  54.279 -51.852  1.00  0.00    -0.022 A 
HETATM   26  C   UNL     1     -40.618  55.270 -51.260  1.00  0.00     0.012 A 
HETATM   27  C   UNL     1     -41.213  56.364 -50.629  1.00  0.00     0.001 A 
HETATM   28  C   UNL     1     -42.603  56.475 -50.589  1.00  0.00     0.000 A 
HETATM   29  C   UNL     1     -43.400  55.494 -51.177  1.00  0.00     0.001 A 
HETATM   30  C   UNL     1     -42.809  54.399 -51.810  1.00  0.00     0.012 A 
ENDBRANCH  11  25
TORSDOF 5
ENDMDL
MODEL 4
REMARK VINA RESULT:      -8.3      1.734      7.275
REMARK  5 active torsions:
REMARK  status: ('A' for Active; 'I' for Inactive)
REMARK    1  A    between atoms: O_2  and  C_3 
REMARK    2  A    between atoms: C_5  and  C_6 
REMARK    3  A    between atoms: C_6  and  N_7 
REMARK       I    between atoms: N_7  and  C_8 
REMARK    4  A    between atoms: C_8  and  C_9 
REMARK    5  A    between atoms: C_19  and  C_20 
ROOT
HETATM    1  C   UNL     1     -41.731  54.964 -51.398  1.00  0.00     0.159 A 
HETATM    2  O   UNL     1     -41.303  54.399 -50.164  1.00  0.00    -0.268 OA
HETATM    3  C   UNL     1     -40.639  53.221 -50.057  1.00  0.00     0.299 A 
HETATM    4  O   UNL     1     -40.275  52.778 -48.976  1.00  0.00    -0.259 OA
HETATM    5  C   UNL     1     -40.374  52.509 -51.319  1.00  0.00     0.051 A 
HETATM    6  C   UNL     1     -40.768  53.064 -52.539  1.00  0.00    -0.006 A 
HETATM    7  C   UNL     1     -39.716  51.269 -51.266  1.00  0.00     0.018 A 
HETATM    8  C   UNL     1     -39.445  50.569 -52.438  1.00  0.00     0.001 A 
HETATM    9  C   UNL     1     -39.827  51.108 -53.662  1.00  0.00     0.001 A 
HETATM   10  C   UNL     1     -40.481  52.343 -53.712  1.00  0.00     0.013 A 
HETATM   11  C   UNL     1     -41.476  54.370 -52.586  1.00  0.00     0.025 A 
ENDROOT
BRANCH   1  12
HETATM   12  C   UNL     1     -42.485  56.266 -51.233  1.00  0.00     0.276 C 
HETATM   13  N   UNL     1     -43.850  56.100 -51.332  1.00  0.00    -0.351 N 
HETATM   14  H   UNL     1     -44.209  55.155 -51.325  1.00  0.00     0.163 HD
HETATM   15  O   UNL     1     -41.964  57.356 -51.051  1.00  0.00    -0.265 OA
BRANCH  13  16
HETATM   16  C   UNL     1     -44.750  57.211 -51.143  1.00  0.00     0.161 C 
BRANCH  16  17
HETATM   17  C   UNL     1     -44.937  58.114 -52.341  1.00  0.00    -0.038 A 
HETATM   18  C   UNL     1     -45.296  59.468 -52.261  1.00  0.00     0.045 A 
HETATM   19  C   UNL     1     -45.427  60.257 -53.412  1.00  0.00     0.068 A 
HETATM   20  C   UNL     1     -45.225  59.684 -54.665  1.00  0.00     0.037 A 
HETATM   21  C   UNL     1     -44.881  58.336 -54.767  1.00  0.00     0.003 A 
HETATM   22  C   UNL     1     -44.734  57.561 -53.615  1.00  0.00     0.009 A 
BRANCH  19  23
HETATM   23  O   UNL     1     -45.760  61.563 -53.171  1.00  0.00    -0.356 OA
HETATM   24  C   UNL     1     -46.226  61.876 -51.865  1.00  0.00     0.210 C 
ENDBRANCH  19  23
ENDBRANCH  16  17
ENDBRANCH  13  16
ENDBRANCH   1  12
BRANCH  11  25
HETATM   25  C   UNL     1     -41.868  55.013 -53.862  1.00  0.00    -0.022 A 
HETATM   26  C   UNL     1     -41.197  56.163 -54.301  1.00  0.00     0.012 A 
HETATM   27  C   UNL     1     -41.532  56.747 -55.525  1.00  0.00     0.001 A 
HETATM   28  C   UNL     1     -42.533  56.185 -56.315  1.00  0.00     0.000 A 
HETATM   29  C   UNL     1     -43.202  55.040 -55.886  1.00  0.00     0.001 A 
HETATM   30  C   UNL     1     -42.871  54.452 -54.664  1.00  0.00     0.012 A 
ENDBRANCH  11  25
TORSDOF 5
ENDMDL
MODEL 5
REMARK VINA RESULT:      -8.2      2.111      6.836
REMARK  5 active torsions:
REMARK  status: ('A' for Active; 'I' for Inactive)
REMARK    1  A    between atoms: O_2  and  C_3 
REMARK    2  A    between atoms: C_5  and  C_6 
REMARK    3  A    between atoms: C_6  and  N_7 
REMARK       I    between atoms: N_7  and  C_8 
REMARK    4  A    between atoms: C_8  and  C_9 
REMARK    5  A    between atoms: C_19  and  C_20 
ROOT
HETATM    1  C   UNL     1     -41.819  54.805 -51.373  1.00  0.00     0.159 A 
HETATM    2  O   UNL     1     -41.375  54.267 -50.132  1.00  0.00    -0.268 OA
HETATM    3  C   UNL     1     -40.674  53.113 -50.010  1.00  0.00     0.299 A 
HETATM    4  O   UNL     1     -40.299  52.694 -48.923  1.00  0.00    -0.259 OA
HETATM    5  C   UNL     1     -40.385  52.395 -51.264  1.00  0.00     0.051 A 
HETATM    6  C   UNL     1     -40.794  52.923 -52.490  1.00  0.00    -0.006 A 
HETATM    7  C   UNL     1     -39.689  51.177 -51.196  1.00  0.00     0.018 A 
HETATM    8  C   UNL     1     -39.393  50.473 -52.359  1.00  0.00     0.001 A 
HETATM    9  C   UNL     1     -39.790  50.985 -53.589  1.00  0.00     0.001 A 
HETATM   10  C   UNL     1     -40.482  52.199 -53.655  1.00  0.00     0.013 A 
HETATM   11  C   UNL     1     -41.543  54.206 -52.553  1.00  0.00     0.025 A 
ENDROOT
BRANCH   1  12
HETATM   12  C   UNL     1     -42.614  56.084 -51.223  1.00  0.00     0.276 C 
HETATM   13  N   UNL     1     -41.852  57.208 -51.461  1.00  0.00    -0.351 N 
HETATM   14  H   UNL     1     -40.936  57.076 -51.866  1.00  0.00     0.163 HD
HETATM   15  O   UNL     1     -43.794  56.140 -50.909  1.00  0.00    -0.265 OA
BRANCH  13  16
HETATM   16  C   UNL     1     -42.439  58.525 -51.428  1.00  0.00     0.161 C 
BRANCH  16  17
HETATM   17  C   UNL     1     -42.912  59.066 -52.758  1.00  0.00    -0.038 A 
HETATM   18  C   UNL     1     -42.060  59.416 -53.817  1.00  0.00     0.045 A 
HETATM   19  C   UNL     1     -42.566  59.887 -55.035  1.00  0.00     0.068 A 
HETATM   20  C   UNL     1     -43.942  60.040 -55.196  1.00  0.00     0.037 A 
HETATM   21  C   UNL     1     -44.805  59.711 -54.150  1.00  0.00     0.003 A 
HETATM   22  C   UNL     1     -44.294  59.224 -52.946  1.00  0.00     0.009 A 
BRANCH  19  23
HETATM   23  O   UNL     1     -41.613  60.164 -55.978  1.00  0.00    -0.356 OA
HETATM   24  C   UNL     1     -41.956  59.905 -57.333  1.00  0.00     0.210 C 
ENDBRANCH  19  23
ENDBRANCH  16  17
ENDBRANCH  13  16
ENDBRANCH   1  12
BRANCH  11  25
HETATM   25  C   UNL     1     -41.953  54.821 -53.837  1.00  0.00    -0.022 A 
HETATM   26  C   UNL     1     -43.211  54.529 -54.383  1.00  0.00     0.012 A 
HETATM   27  C   UNL     1     -43.621  55.141 -55.569  1.00  0.00     0.001 A 
HETATM   28  C   UNL     1     -42.780  56.048 -56.213  1.00  0.00     0.000 A 
HETATM   29  C   UNL     1     -41.529  56.344 -55.676  1.00  0.00     0.001 A 
HETATM   30  C   UNL     1     -41.115  55.735 -54.489  1.00  0.00     0.012 A 
ENDBRANCH  11  25
TORSDOF 5
ENDMDL
MODEL 6
REMARK VINA RESULT:      -8.2      3.568      7.488
REMARK  5 active torsions:
REMARK  status: ('A' for Active; 'I' for Inactive)
REMARK    1  A    between atoms: O_2  and  C_3 
REMARK    2  A    between atoms: C_5  and  C_6 
REMARK    3  A    between atoms: C_6  and  N_7 
REMARK       I    between atoms: N_7  and  C_8 
REMARK    4  A    between atoms: C_8  and  C_9 
REMARK    5  A    between atoms: C_19  and  C_20 
ROOT
HETATM    1  C   UNL     1     -41.679  56.308 -53.304  1.00  0.00     0.159 A 
HETATM    2  O   UNL     1     -41.145  55.082 -53.793  1.00  0.00    -0.268 OA
HETATM    3  C   UNL     1     -40.695  54.078 -53.000  1.00  0.00     0.299 A 
HETATM    4  O   UNL     1     -40.257  53.033 -53.462  1.00  0.00    -0.259 OA
HETATM    5  C   UNL     1     -40.771  54.317 -51.548  1.00  0.00     0.051 A 
HETATM    6  C   UNL     1     -41.314  55.505 -51.055  1.00  0.00    -0.006 A 
HETATM    7  C   UNL     1     -40.291  53.324 -50.678  1.00  0.00     0.018 A 
HETATM    8  C   UNL     1     -40.350  53.511 -49.301  1.00  0.00     0.001 A 
HETATM    9  C   UNL     1     -40.890  54.687 -48.791  1.00  0.00     0.001 A 
HETATM   10  C   UNL     1     -41.369  55.674 -49.659  1.00  0.00     0.013 A 
HETATM   11  C   UNL     1     -41.807  56.557 -51.981  1.00  0.00     0.025 A 
ENDROOT
BRANCH   1  12
HETATM   12  C   UNL     1     -42.071  57.273 -54.403  1.00  0.00     0.276 C 
HETATM   13  N   UNL     1     -43.155  56.829 -55.130  1.00  0.00    -0.351 N 
HETATM   14  H   UNL     1     -43.669  56.037 -54.770  1.00  0.00     0.163 HD
HETATM   15  O   UNL     1     -41.495  58.323 -54.649  1.00  0.00    -0.265 OA
BRANCH  13  16
HETATM   16  C   UNL     1     -43.722  57.633 -56.185  1.00  0.00     0.161 C 
BRANCH  16  17
HETATM   17  C   UNL     1     -43.204  57.350 -57.576  1.00  0.00    -0.038 A 
HETATM   18  C   UNL     1     -43.601  56.257 -58.361  1.00  0.00     0.045 A 
HETATM   19  C   UNL     1     -43.101  56.068 -59.656  1.00  0.00     0.068 A 
HETATM   20  C   UNL     1     -42.166  56.964 -60.170  1.00  0.00     0.037 A 
HETATM   21  C   UNL     1     -41.747  58.049 -59.400  1.00  0.00     0.003 A 
HETATM   22  C   UNL     1     -42.264  58.242 -58.119  1.00  0.00     0.009 A 
BRANCH  19  23
HETATM   23  O   UNL     1     -43.601  54.970 -60.304  1.00  0.00    -0.356 OA
HETATM   24  C   UNL     1     -44.914  54.558 -59.948  1.00  0.00     0.210 C 
ENDBRANCH  19  23
ENDBRANCH  16  17
ENDBRANCH  13  16
ENDBRANCH   1  12
BRANCH  11  25
HETATM   25  C   UNL     1     -42.432  57.810 -51.497  1.00  0.00    -0.022 A 
HETATM   26  C   UNL     1     -41.626  58.896 -51.126  1.00  0.00     0.012 A 
HETATM   27  C   UNL     1     -42.211  60.095 -50.711  1.00  0.00     0.001 A 
HETATM   28  C   UNL     1     -43.599  60.215 -50.668  1.00  0.00     0.000 A 
HETATM   29  C   UNL     1     -44.406  59.141 -51.037  1.00  0.00     0.001 A 
HETATM   30  C   UNL     1     -43.827  57.941 -51.453  1.00  0.00     0.012 A 
ENDBRANCH  11  25
TORSDOF 5
ENDMDL
MODEL 7
REMARK VINA RESULT:      -8.1      3.875      7.753
REMARK  5 active torsions:
REMARK  status: ('A' for Active; 'I' for Inactive)
REMARK    1  A    between atoms: O_2  and  C_3 
REMARK    2  A    between atoms: C_5  and  C_6 
REMARK    3  A    between atoms: C_6  and  N_7 
REMARK       I    between atoms: N_7  and  C_8 
REMARK    4  A    between atoms: C_8  and  C_9 
REMARK    5  A    between atoms: C_19  and  C_20 
ROOT
HETATM    1  C   UNL     1     -42.341  55.572 -54.272  1.00  0.00     0.159 A 
HETATM    2  O   UNL     1     -42.104  54.236 -54.704  1.00  0.00    -0.268 OA
HETATM    3  C   UNL     1     -41.489  53.290 -53.951  1.00  0.00     0.299 A 
HETATM    4  O   UNL     1     -41.319  52.149 -54.355  1.00  0.00    -0.259 OA
HETATM    5  C   UNL     1     -41.044  53.717 -52.612  1.00  0.00     0.051 A 
HETATM    6  C   UNL     1     -41.291  55.018 -52.167  1.00  0.00    -0.006 A 
HETATM    7  C   UNL     1     -40.374  52.788 -51.800  1.00  0.00     0.018 A 
HETATM    8  C   UNL     1     -39.942  53.153 -50.528  1.00  0.00     0.001 A 
HETATM    9  C   UNL     1     -40.182  54.442 -50.067  1.00  0.00     0.001 A 
HETATM   10  C   UNL     1     -40.851  55.366 -50.877  1.00  0.00     0.013 A 
HETATM   11  C   UNL     1     -41.988  56.000 -53.038  1.00  0.00     0.025 A 
ENDROOT
BRANCH   1  12
HETATM   12  C   UNL     1     -43.009  56.433 -55.322  1.00  0.00     0.276 C 
HETATM   13  N   UNL     1     -42.202  56.648 -56.418  1.00  0.00    -0.351 N 
HETATM   14  H   UNL     1     -41.359  56.095 -56.495  1.00  0.00     0.163 HD
HETATM   15  O   UNL     1     -44.130  56.911 -55.223  1.00  0.00    -0.265 OA
BRANCH  13  16
HETATM   16  C   UNL     1     -42.677  57.395 -57.557  1.00  0.00     0.161 C 
BRANCH  16  17
HETATM   17  C   UNL     1     -43.653  56.669 -58.456  1.00  0.00    -0.038 A 
HETATM   18  C   UNL     1     -44.806  57.251 -59.003  1.00  0.00     0.045 A 
HETATM   19  C   UNL     1     -45.655  56.528 -59.852  1.00  0.00     0.068 A 
HETATM   20  C   UNL     1     -45.369  55.195 -60.138  1.00  0.00     0.037 A 
HETATM   21  C   UNL     1     -44.236  54.594 -59.592  1.00  0.00     0.003 A 
HETATM   22  C   UNL     1     -43.384  55.325 -58.763  1.00  0.00     0.009 A 
BRANCH  19  23
HETATM   23  O   UNL     1     -46.725  57.239 -60.325  1.00  0.00    -0.356 OA
HETATM   24  C   UNL     1     -47.577  56.577 -61.250  1.00  0.00     0.210 C 
ENDBRANCH  19  23
ENDBRANCH  16  17
ENDBRANCH  13  16
ENDBRANCH   1  12
BRANCH  11  25
HETATM   25  C   UNL     1     -42.310  57.373 -52.584  1.00  0.00    -0.022 A 
HETATM   26  C   UNL     1     -43.494  57.616 -51.874  1.00  0.00     0.012 A 
HETATM   27  C   UNL     1     -43.781  58.899 -51.405  1.00  0.00     0.001 A 
HETATM   28  C   UNL     1     -42.886  59.943 -51.639  1.00  0.00     0.000 A 
HETATM   29  C   UNL     1     -41.707  59.709 -52.343  1.00  0.00     0.001 A 
HETATM   30  C   UNL     1     -41.415  58.427 -52.813  1.00  0.00     0.012 A 
ENDBRANCH  11  25
TORSDOF 5
ENDMDL
MODEL 8
REMARK VINA RESULT:      -7.8      3.542      7.688
REMARK  5 active torsions:
REMARK  status: ('A' for Active; 'I' for Inactive)
REMARK    1  A    between atoms: O_2  and  C_3 
REMARK    2  A    between atoms: C_5  and  C_6 
REMARK    3  A    between atoms: C_6  and  N_7 
REMARK       I    between atoms: N_7  and  C_8 
REMARK    4  A    between atoms: C_8  and  C_9 
REMARK    5  A    between atoms: C_19  and  C_20 
ROOT
HETATM    1  C   UNL     1     -41.862  56.209 -53.456  1.00  0.00     0.159 A 
HETATM    2  O   UNL     1     -41.222  55.038 -53.952  1.00  0.00    -0.268 OA
HETATM    3  C   UNL     1     -40.691  54.069 -53.165  1.00  0.00     0.299 A 
HETATM    4  O   UNL     1     -40.162  53.070 -53.633  1.00  0.00    -0.259 OA
HETATM    5  C   UNL     1     -40.796  54.286 -51.711  1.00  0.00     0.051 A 
HETATM    6  C   UNL     1     -41.442  55.419 -51.211  1.00  0.00    -0.006 A 
HETATM    7  C   UNL     1     -40.237  53.331 -50.847  1.00  0.00     0.018 A 
HETATM    8  C   UNL     1     -40.320  53.499 -49.469  1.00  0.00     0.001 A 
HETATM    9  C   UNL     1     -40.962  54.619 -48.952  1.00  0.00     0.001 A 
HETATM   10  C   UNL     1     -41.519  55.569 -49.814  1.00  0.00     0.013 A 
HETATM   11  C   UNL     1     -42.019  56.433 -52.131  1.00  0.00     0.025 A 
ENDROOT
BRANCH   1  12
HETATM   12  C   UNL     1     -42.329  57.146 -54.548  1.00  0.00     0.276 C 
HETATM   13  N   UNL     1     -43.436  56.666 -55.216  1.00  0.00    -0.351 N 
HETATM   14  H   UNL     1     -43.912  55.867 -54.819  1.00  0.00     0.163 HD
HETATM   15  O   UNL     1     -41.792  58.205 -54.837  1.00  0.00    -0.265 OA
BRANCH  13  16
HETATM   16  C   UNL     1     -44.072  57.439 -56.254  1.00  0.00     0.161 C 
BRANCH  16  17
HETATM   17  C   UNL     1     -43.438  57.347 -57.623  1.00  0.00    -0.038 A 
HETATM   18  C   UNL     1     -42.971  58.449 -58.354  1.00  0.00     0.045 A 
HETATM   19  C   UNL     1     -42.368  58.291 -59.608  1.00  0.00     0.068 A 
HETATM   20  C   UNL     1     -42.253  57.017 -60.160  1.00  0.00     0.037 A 
HETATM   21  C   UNL     1     -42.724  55.909 -59.456  1.00  0.00     0.003 A 
HETATM   22  C   UNL     1     -43.306  56.073 -58.198  1.00  0.00     0.009 A 
BRANCH  19  23
HETATM   23  O   UNL     1     -41.943  59.457 -60.186  1.00  0.00    -0.356 OA
HETATM   24  C   UNL     1     -41.852  60.596 -59.341  1.00  0.00     0.210 C 
ENDBRANCH  19  23
ENDBRANCH  16  17
ENDBRANCH  13  16
ENDBRANCH   1  12
BRANCH  11  25
HETATM   25  C   UNL     1     -42.753  57.623 -51.640  1.00  0.00    -0.022 A 
HETATM   26  C   UNL     1     -42.056  58.805 -51.352  1.00  0.00     0.012 A 
HETATM   27  C   UNL     1     -42.747  59.943 -50.932  1.00  0.00     0.001 A 
HETATM   28  C   UNL     1     -44.135  59.907 -50.799  1.00  0.00     0.000 A 
HETATM   29  C   UNL     1     -44.834  58.736 -51.085  1.00  0.00     0.001 A 
HETATM   30  C   UNL     1     -44.147  57.596 -51.507  1.00  0.00     0.012 A 
ENDBRANCH  11  25
TORSDOF 5
ENDMDL
MODEL 9
REMARK VINA RESULT:      -7.6      2.715      7.384
REMARK  5 active torsions:
REMARK  status: ('A' for Active; 'I' for Inactive)
REMARK    1  A    between atoms: O_2  and  C_3 
REMARK    2  A    between atoms: C_5  and  C_6 
REMARK    3  A    between atoms: C_6  and  N_7 
REMARK       I    between atoms: N_7  and  C_8 
REMARK    4  A    between atoms: C_8  and  C_9 
REMARK    5  A    between atoms: C_19  and  C_20 
ROOT
HETATM    1  C   UNL     1     -40.985  54.308 -53.489  1.00  0.00     0.159 A 
HETATM    2  O   UNL     1     -40.492  53.004 -53.202  1.00  0.00    -0.268 OA
HETATM    3  C   UNL     1     -40.263  52.536 -51.950  1.00  0.00     0.299 A 
HETATM    4  O   UNL     1     -39.852  51.401 -51.747  1.00  0.00    -0.259 OA
HETATM    5  C   UNL     1     -40.544  53.472 -50.847  1.00  0.00     0.051 A 
HETATM    6  C   UNL     1     -41.050  54.746 -51.113  1.00  0.00    -0.006 A 
HETATM    7  C   UNL     1     -40.296  53.051 -49.530  1.00  0.00     0.018 A 
HETATM    8  C   UNL     1     -40.553  53.905 -48.462  1.00  0.00     0.001 A 
HETATM    9  C   UNL     1     -41.060  55.177 -48.708  1.00  0.00     0.001 A 
HETATM   10  C   UNL     1     -41.308  55.593 -50.020  1.00  0.00     0.013 A 
HETATM   11  C   UNL     1     -41.297  55.189 -52.511  1.00  0.00     0.025 A 
ENDROOT
BRANCH   1  12
HETATM   12  C   UNL     1     -41.113  54.589 -54.971  1.00  0.00     0.276 C 
HETATM   13  N   UNL     1     -42.389  54.973 -55.326  1.00  0.00    -0.351 N 
HETATM   14  H   UNL     1     -43.036  55.193 -54.581  1.00  0.00     0.163 HD
HETATM   15  O   UNL     1     -40.207  54.478 -55.784  1.00  0.00    -0.265 OA
BRANCH  13  16
HETATM   16  C   UNL     1     -42.704  55.343 -56.683  1.00  0.00     0.161 C 
BRANCH  16  17
HETATM   17  C   UNL     1     -43.032  56.803 -56.905  1.00  0.00    -0.038 A 
HETATM   18  C   UNL     1     -42.091  57.842 -56.848  1.00  0.00     0.045 A 
HETATM   19  C   UNL     1     -42.457  59.172 -57.090  1.00  0.00     0.068 A 
HETATM   20  C   UNL     1     -43.788  59.480 -57.365  1.00  0.00     0.037 A 
HETATM   21  C   UNL     1     -44.742  58.463 -57.412  1.00  0.00     0.003 A 
HETATM   22  C   UNL     1     -44.365  57.138 -57.189  1.00  0.00     0.009 A 
BRANCH  19  23
HETATM   23  O   UNL     1     -41.424  60.068 -57.021  1.00  0.00    -0.356 OA
HETATM   24  C   UNL     1     -41.544  61.246 -57.808  1.00  0.00     0.210 C 
ENDBRANCH  19  23
ENDBRANCH  16  17
ENDBRANCH  13  16
ENDBRANCH   1  12
BRANCH  11  25
HETATM   25  C   UNL     1     -41.876  56.514 -52.831  1.00  0.00    -0.022 A 
HETATM   26  C   UNL     1     -43.267  56.692 -52.814  1.00  0.00     0.012 A 
HETATM   27  C   UNL     1     -43.817  57.949 -53.071  1.00  0.00     0.001 A 
HETATM   28  C   UNL     1     -42.983  59.034 -53.342  1.00  0.00     0.000 A 
HETATM   29  C   UNL     1     -41.600  58.864 -53.358  1.00  0.00     0.001 A 
HETATM   30  C   UNL     1     -41.045  57.609 -53.101  1.00  0.00     0.012 A 
ENDBRANCH  11  25
TORSDOF 5
ENDMDL
MODEL 10
REMARK VINA RESULT:      -7.5      2.845      7.758
REMARK  5 active torsions:
REMARK  status: ('A' for Active; 'I' for Inactive)
REMARK    1  A    between atoms: O_2  and  C_3 
REMARK    2  A    between atoms: C_5  and  C_6 
REMARK    3  A    between atoms: C_6  and  N_7 
REMARK       I    between atoms: N_7  and  C_8 
REMARK    4  A    between atoms: C_8  and  C_9 
REMARK    5  A    between atoms: C_19  and  C_20 
ROOT
HETATM    1  C   UNL     1     -41.960  54.334 -54.304  1.00  0.00     0.159 A 
HETATM    2  O   UNL     1     -41.316  53.069 -54.201  1.00  0.00    -0.268 OA
HETATM    3  C   UNL     1     -40.621  52.654 -53.113  1.00  0.00     0.299 A 
HETATM    4  O   UNL     1     -40.095  51.551 -53.060  1.00  0.00    -0.259 OA
HETATM    5  C   UNL     1     -40.544  53.608 -51.992  1.00  0.00     0.051 A 
HETATM    6  C   UNL     1     -41.192  54.843 -52.070  1.00  0.00    -0.006 A 
HETATM    7  C   UNL     1     -39.812  53.244 -50.850  1.00  0.00     0.018 A 
HETATM    8  C   UNL     1     -39.721  54.116 -49.770  1.00  0.00     0.001 A 
HETATM    9  C   UNL     1     -40.361  55.349 -49.828  1.00  0.00     0.001 A 
HETATM   10  C   UNL     1     -41.091  55.709 -50.966  1.00  0.00     0.013 A 
HETATM   11  C   UNL     1     -41.953  55.226 -53.288  1.00  0.00     0.025 A 
ENDROOT
BRANCH   1  12
HETATM   12  C   UNL     1     -42.630  54.560 -55.642  1.00  0.00     0.276 C 
HETATM   13  N   UNL     1     -42.056  55.593 -56.351  1.00  0.00    -0.351 N 
HETATM   14  H   UNL     1     -41.178  55.962 -56.012  1.00  0.00     0.163 HD
HETATM   15  O   UNL     1     -43.588  53.924 -56.059  1.00  0.00    -0.265 OA
BRANCH  13  16
HETATM   16  C   UNL     1     -42.512  55.928 -57.678  1.00  0.00     0.161 C 
BRANCH  16  17
HETATM   17  C   UNL     1     -43.086  57.317 -57.842  1.00  0.00    -0.038 A 
HETATM   18  C   UNL     1     -44.403  57.671 -57.515  1.00  0.00     0.045 A 
HETATM   19  C   UNL     1     -44.864  58.986 -57.667  1.00  0.00     0.068 A 
HETATM   20  C   UNL     1     -44.010  59.959 -58.180  1.00  0.00     0.037 A 
HETATM   21  C   UNL     1     -42.701  59.624 -58.525  1.00  0.00     0.003 A 
HETATM   22  C   UNL     1     -42.243  58.317 -58.352  1.00  0.00     0.009 A 
BRANCH  19  23
HETATM   23  O   UNL     1     -46.165  59.180 -57.284  1.00  0.00    -0.356 OA
HETATM   24  C   UNL     1     -47.094  58.160 -57.628  1.00  0.00     0.210 C 
ENDBRANCH  19  23
ENDBRANCH  16  17
ENDBRANCH  13  16
ENDBRANCH   1  12
BRANCH  11  25
HETATM   25  C   UNL     1     -42.691  56.507 -53.390  1.00  0.00    -0.022 A 
HETATM   26  C   UNL     1     -42.028  57.664 -53.825  1.00  0.00     0.012 A 
HETATM   27  C   UNL     1     -42.729  58.863 -53.966  1.00  0.00     0.001 A 
HETATM   28  C   UNL     1     -44.093  58.912 -53.678  1.00  0.00     0.000 A 
HETATM   29  C   UNL     1     -44.758  57.766 -53.247  1.00  0.00     0.001 A 
HETATM   30  C   UNL     1     -44.062  56.564 -53.105  1.00  0.00     0.012 A 
ENDBRANCH  11  25
TORSDOF 5
ENDMDL
