MODEL 1
REMARK VINA RESULT:      -9.0      0.000      0.000
REMARK  4 active torsions:
REMARK  status: ('A' for Active; 'I' for Inactive)
REMARK    1  A    between atoms: C_3  and  O_4 
REMARK    2  A    between atoms: O_4  and  C_5 
REMARK    3  A    between atoms: C_11  and  C_12 
REMARK    4  A    between atoms: C_23  and  N_24 
ROOT
HETATM    1  C   UNL     1     -42.757  55.032 -53.597  1.00  0.00     0.244 A 
HETATM    2  N   UNL     1     -42.248  56.381 -53.667  1.00  0.00    -0.151 N 
HETATM    3  C   UNL     1     -42.192  57.049 -54.864  1.00  0.00     0.734 A 
HETATM    4  N   UNL     1     -41.705  58.255 -54.673  1.00  0.00    -0.060 NA
HETATM    5  C   UNL     1     -41.494  58.378 -53.323  1.00  0.00     0.103 A 
HETATM    6  C   UNL     1     -41.841  57.208 -52.656  1.00  0.00     0.083 A 
HETATM    7  C   UNL     1     -41.013  59.473 -52.591  1.00  0.00     0.034 A 
HETATM    8  C   UNL     1     -40.902  59.355 -51.201  1.00  0.00     0.002 A 
HETATM    9  C   UNL     1     -41.260  58.170 -50.554  1.00  0.00     0.002 A 
HETATM   10  C   UNL     1     -41.738  57.064 -51.267  1.00  0.00     0.033 A 
HETATM   11  N   UNL     1     -42.592  56.495 -56.031  1.00  0.00    -0.033 NA
HETATM   12  C   UNL     1     -43.104  55.317 -56.019  1.00  0.00     0.193 A 
HETATM   13  N   UNL     1     -43.268  54.535 -54.871  1.00  0.00    -0.339 N 
HETATM   14  H   UNL     1     -43.731  53.641 -54.917  1.00  0.00     0.164 HD
ENDROOT
BRANCH   1  15
HETATM   15  C   UNL     1     -41.714  54.025 -53.139  1.00  0.00    -0.014 A 
HETATM   16  C   UNL     1     -41.398  53.924 -51.773  1.00  0.00     0.020 A 
HETATM   17  C   UNL     1     -40.502  52.951 -51.299  1.00  0.00    -0.027 A 
HETATM   18  C   UNL     1     -39.908  52.076 -52.219  1.00  0.00     0.086 A 
HETATM   19  C   UNL     1     -40.260  52.859 -49.817  1.00  0.00     0.051 C 
HETATM   20  C   UNL     1     -40.238  52.124 -53.583  1.00  0.00    -0.027 A 
HETATM   21  C   UNL     1     -39.642  51.157 -54.571  1.00  0.00     0.051 C 
HETATM   22  C   UNL     1     -41.128  53.110 -54.032  1.00  0.00     0.020 A 
BRANCH  18  23
HETATM   23  O   UNL     1     -39.065  51.095 -51.770  1.00  0.00    -0.289 OA
BRANCH  23  24
HETATM   24  C   UNL     1     -39.805  49.980 -51.285  1.00  0.00     0.505 C 
HETATM   25  F   UNL     1     -39.795  49.024 -52.246  1.00  0.00    -0.184 F 
HETATM   26  F   UNL     1     -39.127  49.478 -50.222  1.00  0.00    -0.184 F 
ENDBRANCH  23  24
ENDBRANCH  18  23
ENDBRANCH   1  15
BRANCH  12  27
HETATM   27  N   UNL     1     -43.549  54.699 -57.131  1.00  0.00    -0.272 NA
HETATM   28  H   UNL     1     -43.429  55.293 -57.949  1.00  0.00     0.127 HD
HETATM   29  H   UNL     1     -43.190  53.771 -57.306  1.00  0.00     0.127 HD
ENDBRANCH  12  27
TORSDOF 4
ENDMDL
MODEL 2
REMARK VINA RESULT:      -8.6      4.711      7.279
REMARK  4 active torsions:
REMARK  status: ('A' for Active; 'I' for Inactive)
REMARK    1  A    between atoms: C_3  and  O_4 
REMARK    2  A    between atoms: O_4  and  C_5 
REMARK    3  A    between atoms: C_11  and  C_12 
REMARK    4  A    between atoms: C_23  and  N_24 
ROOT
HETATM    1  C   UNL     1     -43.448  55.154 -53.298  1.00  0.00     0.244 A 
HETATM    2  N   UNL     1     -42.334  54.530 -52.623  1.00  0.00    -0.151 N 
HETATM    3  C   UNL     1     -42.030  54.853 -51.325  1.00  0.00     0.734 A 
HETATM    4  N   UNL     1     -40.990  54.153 -50.930  1.00  0.00    -0.060 NA
HETATM    5  C   UNL     1     -40.656  53.331 -51.976  1.00  0.00     0.103 A 
HETATM    6  C   UNL     1     -41.499  53.540 -53.063  1.00  0.00     0.083 A 
HETATM    7  C   UNL     1     -39.641  52.368 -52.066  1.00  0.00     0.034 A 
HETATM    8  C   UNL     1     -39.511  51.637 -53.252  1.00  0.00     0.002 A 
HETATM    9  C   UNL     1     -40.373  51.863 -54.328  1.00  0.00     0.002 A 
HETATM   10  C   UNL     1     -41.389  52.823 -54.260  1.00  0.00     0.033 A 
HETATM   11  N   UNL     1     -42.733  55.763 -50.613  1.00  0.00    -0.033 NA
HETATM   12  C   UNL     1     -43.766  56.309 -51.146  1.00  0.00     0.193 A 
HETATM   13  N   UNL     1     -44.225  56.045 -52.441  1.00  0.00    -0.339 N 
HETATM   14  H   UNL     1     -45.076  56.461 -52.781  1.00  0.00     0.164 HD
ENDROOT
BRANCH   1  15
HETATM   15  C   UNL     1     -43.026  55.986 -54.499  1.00  0.00    -0.014 A 
HETATM   16  C   UNL     1     -43.151  55.452 -55.793  1.00  0.00     0.020 A 
HETATM   17  C   UNL     1     -42.850  56.217 -56.933  1.00  0.00    -0.027 A 
HETATM   18  C   UNL     1     -42.406  57.535 -56.762  1.00  0.00     0.086 A 
HETATM   19  C   UNL     1     -43.069  55.602 -58.289  1.00  0.00     0.051 C 
HETATM   20  C   UNL     1     -42.314  58.110 -55.484  1.00  0.00    -0.027 A 
HETATM   21  C   UNL     1     -41.885  59.541 -55.294  1.00  0.00     0.051 C 
HETATM   22  C   UNL     1     -42.611  57.323 -54.363  1.00  0.00     0.020 A 
BRANCH  18  23
HETATM   23  O   UNL     1     -42.149  58.309 -57.862  1.00  0.00    -0.289 OA
BRANCH  23  24
HETATM   24  C   UNL     1     -43.341  58.932 -58.327  1.00  0.00     0.505 C 
HETATM   25  F   UNL     1     -43.158  60.274 -58.272  1.00  0.00    -0.184 F 
HETATM   26  F   UNL     1     -43.482  58.607 -59.637  1.00  0.00    -0.184 F 
ENDBRANCH  23  24
ENDBRANCH  18  23
ENDBRANCH   1  15
BRANCH  12  27
HETATM   27  N   UNL     1     -44.536  57.207 -50.500  1.00  0.00    -0.272 NA
HETATM   28  H   UNL     1     -45.073  56.760 -49.760  1.00  0.00     0.127 HD
HETATM   29  H   UNL     1     -44.070  58.035 -50.155  1.00  0.00     0.127 HD
ENDBRANCH  12  27
TORSDOF 4
ENDMDL
MODEL 3
REMARK VINA RESULT:      -8.5      4.754      7.456
REMARK  4 active torsions:
REMARK  status: ('A' for Active; 'I' for Inactive)
REMARK    1  A    between atoms: C_3  and  O_4 
REMARK    2  A    between atoms: O_4  and  C_5 
REMARK    3  A    between atoms: C_11  and  C_12 
REMARK    4  A    between atoms: C_23  and  N_24 
ROOT
HETATM    1  C   UNL     1     -42.158  54.806 -50.377  1.00  0.00     0.244 A 
HETATM    2  N   UNL     1     -41.275  54.022 -51.209  1.00  0.00    -0.151 N 
HETATM    3  C   UNL     1     -40.178  53.396 -50.674  1.00  0.00     0.734 A 
HETATM    4  N   UNL     1     -39.541  52.741 -51.619  1.00  0.00    -0.060 NA
HETATM    5  C   UNL     1     -40.271  52.910 -52.768  1.00  0.00     0.103 A 
HETATM    6  C   UNL     1     -41.386  53.710 -52.537  1.00  0.00     0.083 A 
HETATM    7  C   UNL     1     -40.045  52.398 -54.053  1.00  0.00     0.034 A 
HETATM    8  C   UNL     1     -40.957  52.704 -55.069  1.00  0.00     0.002 A 
HETATM    9  C   UNL     1     -42.070  53.507 -54.811  1.00  0.00     0.002 A 
HETATM   10  C   UNL     1     -42.312  54.032 -53.536  1.00  0.00     0.033 A 
HETATM   11  N   UNL     1     -39.855  53.478 -49.364  1.00  0.00    -0.033 NA
HETATM   12  C   UNL     1     -40.635  54.117 -48.568  1.00  0.00     0.193 A 
HETATM   13  N   UNL     1     -41.811  54.766 -48.960  1.00  0.00    -0.339 N 
HETATM   14  H   UNL     1     -42.412  55.201 -48.278  1.00  0.00     0.164 HD
ENDROOT
BRANCH   1  15
HETATM   15  C   UNL     1     -42.190  56.276 -50.763  1.00  0.00    -0.014 A 
HETATM   16  C   UNL     1     -43.396  56.858 -51.188  1.00  0.00     0.020 A 
HETATM   17  C   UNL     1     -43.487  58.231 -51.474  1.00  0.00    -0.027 A 
HETATM   18  C   UNL     1     -42.339  59.024 -51.340  1.00  0.00     0.086 A 
HETATM   19  C   UNL     1     -44.826  58.797 -51.861  1.00  0.00     0.051 C 
HETATM   20  C   UNL     1     -41.131  58.480 -50.875  1.00  0.00    -0.027 A 
HETATM   21  C   UNL     1     -39.907  59.334 -50.682  1.00  0.00     0.051 C 
HETATM   22  C   UNL     1     -41.065  57.106 -50.605  1.00  0.00     0.020 A 
BRANCH  18  23
HETATM   23  O   UNL     1     -42.419  60.371 -51.574  1.00  0.00    -0.289 OA
BRANCH  23  24
HETATM   24  C   UNL     1     -42.557  60.631 -52.966  1.00  0.00     0.505 C 
HETATM   25  F   UNL     1     -42.551  61.975 -53.141  1.00  0.00    -0.184 F 
HETATM   26  F   UNL     1     -41.447  60.149 -53.578  1.00  0.00    -0.184 F 
ENDBRANCH  23  24
ENDBRANCH  18  23
ENDBRANCH   1  15
BRANCH  12  27
HETATM   27  N   UNL     1     -40.402  54.229 -47.245  1.00  0.00    -0.272 NA
HETATM   28  H   UNL     1     -39.494  53.838 -47.002  1.00  0.00     0.127 HD
HETATM   29  H   UNL     1     -40.515  55.150 -46.843  1.00  0.00     0.127 HD
ENDBRANCH  12  27
TORSDOF 4
ENDMDL
MODEL 4
REMARK VINA RESULT:      -8.2      4.558      7.036
REMARK  4 active torsions:
REMARK  status: ('A' for Active; 'I' for Inactive)
REMARK    1  A    between atoms: C_3  and  O_4 
REMARK    2  A    between atoms: O_4  and  C_5 
REMARK    3  A    between atoms: C_11  and  C_12 
REMARK    4  A    between atoms: C_23  and  N_24 
ROOT
HETATM    1  C   UNL     1     -43.591  55.238 -53.257  1.00  0.00     0.244 A 
HETATM    2  N   UNL     1     -42.435  54.643 -52.628  1.00  0.00    -0.151 N 
HETATM    3  C   UNL     1     -42.076  54.990 -51.350  1.00  0.00     0.734 A 
HETATM    4  N   UNL     1     -41.006  54.313 -50.996  1.00  0.00    -0.060 NA
HETATM    5  C   UNL     1     -40.708  53.481 -52.045  1.00  0.00     0.103 A 
HETATM    6  C   UNL     1     -41.606  53.659 -53.093  1.00  0.00     0.083 A 
HETATM    7  C   UNL     1     -39.682  52.534 -52.169  1.00  0.00     0.034 A 
HETATM    8  C   UNL     1     -39.597  51.787 -53.350  1.00  0.00     0.002 A 
HETATM    9  C   UNL     1     -40.512  51.982 -54.386  1.00  0.00     0.002 A 
HETATM   10  C   UNL     1     -41.541  52.926 -54.284  1.00  0.00     0.033 A 
HETATM   11  N   UNL     1     -42.759  55.899 -50.619  1.00  0.00    -0.033 NA
HETATM   12  C   UNL     1     -43.826  56.420 -51.109  1.00  0.00     0.193 A 
HETATM   13  N   UNL     1     -44.341  56.129 -52.377  1.00  0.00    -0.339 N 
HETATM   14  H   UNL     1     -45.215  56.525 -52.682  1.00  0.00     0.164 HD
ENDROOT
BRANCH   1  15
HETATM   15  C   UNL     1     -43.241  56.058 -54.489  1.00  0.00    -0.014 A 
HETATM   16  C   UNL     1     -42.765  57.371 -54.339  1.00  0.00     0.020 A 
HETATM   17  C   UNL     1     -42.354  58.133 -55.446  1.00  0.00    -0.027 A 
HETATM   18  C   UNL     1     -42.435  57.562 -56.724  1.00  0.00     0.086 A 
HETATM   19  C   UNL     1     -41.794  59.508 -55.205  1.00  0.00     0.051 C 
HETATM   20  C   UNL     1     -42.864  56.236 -56.901  1.00  0.00    -0.027 A 
HETATM   21  C   UNL     1     -42.908  55.600 -58.264  1.00  0.00     0.051 C 
HETATM   22  C   UNL     1     -43.278  55.502 -55.782  1.00  0.00     0.020 A 
BRANCH  18  23
HETATM   23  O   UNL     1     -41.998  58.273 -57.809  1.00  0.00    -0.289 OA
BRANCH  23  24
HETATM   24  C   UNL     1     -43.091  58.909 -58.465  1.00  0.00     0.505 C 
HETATM   25  F   UNL     1     -44.125  58.965 -57.591  1.00  0.00    -0.184 F 
HETATM   26  F   UNL     1     -42.719  60.189 -58.719  1.00  0.00    -0.184 F 
ENDBRANCH  23  24
ENDBRANCH  18  23
ENDBRANCH   1  15
BRANCH  12  27
HETATM   27  N   UNL     1     -44.579  57.315 -50.441  1.00  0.00    -0.272 NA
HETATM   28  H   UNL     1     -45.551  57.268 -50.741  1.00  0.00     0.127 HD
HETATM   29  H   UNL     1     -44.514  57.296 -49.432  1.00  0.00     0.127 HD
ENDBRANCH  12  27
TORSDOF 4
ENDMDL
MODEL 5
REMARK VINA RESULT:      -7.8      2.177      2.738
REMARK  4 active torsions:
REMARK  status: ('A' for Active; 'I' for Inactive)
REMARK    1  A    between atoms: C_3  and  O_4 
REMARK    2  A    between atoms: O_4  and  C_5 
REMARK    3  A    between atoms: C_11  and  C_12 
REMARK    4  A    between atoms: C_23  and  N_24 
ROOT
HETATM    1  C   UNL     1     -43.562  56.592 -55.422  1.00  0.00     0.244 A 
HETATM    2  N   UNL     1     -43.058  57.937 -55.275  1.00  0.00    -0.151 N 
HETATM    3  C   UNL     1     -42.425  58.567 -56.317  1.00  0.00     0.734 A 
HETATM    4  N   UNL     1     -42.069  59.777 -55.949  1.00  0.00    -0.060 NA
HETATM    5  C   UNL     1     -42.527  59.943 -54.666  1.00  0.00     0.103 A 
HETATM    6  C   UNL     1     -43.171  58.794 -54.215  1.00  0.00     0.083 A 
HETATM    7  C   UNL     1     -42.437  61.059 -53.823  1.00  0.00     0.034 A 
HETATM    8  C   UNL     1     -43.006  60.985 -52.547  1.00  0.00     0.002 A 
HETATM    9  C   UNL     1     -43.650  59.822 -52.118  1.00  0.00     0.002 A 
HETATM   10  C   UNL     1     -43.747  58.695 -52.943  1.00  0.00     0.033 A 
HETATM   11  N   UNL     1     -42.228  57.977 -57.517  1.00  0.00    -0.033 NA
HETATM   12  C   UNL     1     -42.703  56.801 -57.720  1.00  0.00     0.193 A 
HETATM   13  N   UNL     1     -43.410  56.056 -56.771  1.00  0.00    -0.339 N 
HETATM   14  H   UNL     1     -43.809  55.162 -57.009  1.00  0.00     0.164 HD
ENDROOT
BRANCH   1  15
HETATM   15  C   UNL     1     -42.882  55.598 -54.493  1.00  0.00    -0.014 A 
HETATM   16  C   UNL     1     -43.410  55.371 -53.210  1.00  0.00     0.020 A 
HETATM   17  C   UNL     1     -42.861  54.402 -52.353  1.00  0.00    -0.027 A 
HETATM   18  C   UNL     1     -41.757  53.660 -52.795  1.00  0.00     0.086 A 
HETATM   19  C   UNL     1     -43.517  54.168 -51.020  1.00  0.00     0.051 C 
HETATM   20  C   UNL     1     -41.236  53.833 -54.087  1.00  0.00    -0.027 A 
HETATM   21  C   UNL     1     -40.081  53.006 -54.586  1.00  0.00     0.051 C 
HETATM   22  C   UNL     1     -41.795  54.813 -54.918  1.00  0.00     0.020 A 
BRANCH  18  23
HETATM   23  O   UNL     1     -41.236  52.683 -51.989  1.00  0.00    -0.289 OA
BRANCH  23  24
HETATM   24  C   UNL     1     -40.252  53.224 -51.115  1.00  0.00     0.505 C 
HETATM   25  F   UNL     1     -40.553  52.830 -49.854  1.00  0.00    -0.184 F 
HETATM   26  F   UNL     1     -39.067  52.647 -51.436  1.00  0.00    -0.184 F 
ENDBRANCH  23  24
ENDBRANCH  18  23
ENDBRANCH   1  15
BRANCH  12  27
HETATM   27  N   UNL     1     -42.573  56.149 -58.893  1.00  0.00    -0.272 NA
HETATM   28  H   UNL     1     -42.120  56.739 -59.588  1.00  0.00     0.127 HD
HETATM   29  H   UNL     1     -42.136  55.238 -58.857  1.00  0.00     0.127 HD
ENDBRANCH  12  27
TORSDOF 4
ENDMDL
MODEL 6
REMARK VINA RESULT:      -7.8      3.696      5.320
REMARK  4 active torsions:
REMARK  status: ('A' for Active; 'I' for Inactive)
REMARK    1  A    between atoms: C_3  and  O_4 
REMARK    2  A    between atoms: O_4  and  C_5 
REMARK    3  A    between atoms: C_11  and  C_12 
REMARK    4  A    between atoms: C_23  and  N_24 
ROOT
HETATM    1  C   UNL     1     -43.999  57.053 -57.760  1.00  0.00     0.244 A 
HETATM    2  N   UNL     1     -43.173  57.935 -58.551  1.00  0.00    -0.151 N 
HETATM    3  C   UNL     1     -42.744  57.563 -59.799  1.00  0.00     0.734 A 
HETATM    4  N   UNL     1     -42.021  58.528 -60.322  1.00  0.00    -0.060 NA
HETATM    5  C   UNL     1     -42.031  59.556 -59.413  1.00  0.00     0.103 A 
HETATM    6  C   UNL     1     -42.765  59.213 -58.282  1.00  0.00     0.083 A 
HETATM    7  C   UNL     1     -41.438  60.823 -59.493  1.00  0.00     0.034 A 
HETATM    8  C   UNL     1     -41.608  61.713 -58.426  1.00  0.00     0.002 A 
HETATM    9  C   UNL     1     -42.353  61.347 -57.303  1.00  0.00     0.002 A 
HETATM   10  C   UNL     1     -42.949  60.085 -57.202  1.00  0.00     0.033 A 
HETATM   11  N   UNL     1     -43.052  56.368 -60.353  1.00  0.00    -0.033 NA
HETATM   12  C   UNL     1     -43.828  55.567 -59.716  1.00  0.00     0.193 A 
HETATM   13  N   UNL     1     -44.380  55.829 -58.458  1.00  0.00    -0.339 N 
HETATM   14  H   UNL     1     -45.029  55.186 -58.035  1.00  0.00     0.164 HD
ENDROOT
BRANCH   1  15
HETATM   15  C   UNL     1     -43.330  56.613 -56.467  1.00  0.00    -0.014 A 
HETATM   16  C   UNL     1     -43.852  57.038 -55.234  1.00  0.00     0.020 A 
HETATM   17  C   UNL     1     -43.314  56.588 -54.016  1.00  0.00    -0.027 A 
HETATM   18  C   UNL     1     -42.228  55.703 -54.046  1.00  0.00     0.086 A 
HETATM   19  C   UNL     1     -43.963  57.034 -52.734  1.00  0.00     0.051 C 
HETATM   20  C   UNL     1     -41.714  55.225 -55.262  1.00  0.00    -0.027 A 
HETATM   21  C   UNL     1     -40.578  54.237 -55.303  1.00  0.00     0.051 C 
HETATM   22  C   UNL     1     -42.261  55.697 -56.462  1.00  0.00     0.020 A 
BRANCH  18  23
HETATM   23  O   UNL     1     -41.718  55.220 -52.870  1.00  0.00    -0.289 OA
BRANCH  23  24
HETATM   24  C   UNL     1     -42.291  53.956 -52.556  1.00  0.00     0.505 C 
HETATM   25  F   UNL     1     -41.285  53.116 -52.211  1.00  0.00    -0.184 F 
HETATM   26  F   UNL     1     -43.060  54.125 -51.451  1.00  0.00    -0.184 F 
ENDBRANCH  23  24
ENDBRANCH  18  23
ENDBRANCH   1  15
BRANCH  12  27
HETATM   27  N   UNL     1     -44.205  54.368 -60.203  1.00  0.00    -0.272 NA
HETATM   28  H   UNL     1     -44.294  53.684 -59.455  1.00  0.00     0.127 HD
HETATM   29  H   UNL     1     -45.023  54.359 -60.797  1.00  0.00     0.127 HD
ENDBRANCH  12  27
TORSDOF 4
ENDMDL
MODEL 7
REMARK VINA RESULT:      -7.7      2.341      4.343
REMARK  4 active torsions:
REMARK  status: ('A' for Active; 'I' for Inactive)
REMARK    1  A    between atoms: C_3  and  O_4 
REMARK    2  A    between atoms: O_4  and  C_5 
REMARK    3  A    between atoms: C_11  and  C_12 
REMARK    4  A    between atoms: C_23  and  N_24 
ROOT
HETATM    1  C   UNL     1     -41.297  58.300 -53.525  1.00  0.00     0.244 A 
HETATM    2  N   UNL     1     -42.622  58.640 -53.988  1.00  0.00    -0.151 N 
HETATM    3  C   UNL     1     -43.430  59.470 -53.253  1.00  0.00     0.734 A 
HETATM    4  N   UNL     1     -44.574  59.637 -53.879  1.00  0.00    -0.060 NA
HETATM    5  C   UNL     1     -44.475  58.944 -55.059  1.00  0.00     0.103 A 
HETATM    6  C   UNL     1     -43.241  58.309 -55.162  1.00  0.00     0.083 A 
HETATM    7  C   UNL     1     -45.404  58.819 -56.102  1.00  0.00     0.034 A 
HETATM    8  C   UNL     1     -45.056  58.059 -57.224  1.00  0.00     0.002 A 
HETATM    9  C   UNL     1     -43.810  57.434 -57.305  1.00  0.00     0.002 A 
HETATM   10  C   UNL     1     -42.870  57.542 -56.273  1.00  0.00     0.033 A 
HETATM   11  N   UNL     1     -43.050  60.002 -52.070  1.00  0.00    -0.033 NA
HETATM   12  C   UNL     1     -41.862  59.777 -51.637  1.00  0.00     0.193 A 
HETATM   13  N   UNL     1     -40.912  58.991 -52.298  1.00  0.00    -0.339 N 
HETATM   14  H   UNL     1     -39.976  58.900 -51.937  1.00  0.00     0.164 HD
ENDROOT
BRANCH   1  15
HETATM   15  C   UNL     1     -41.127  56.815 -53.245  1.00  0.00    -0.014 A 
HETATM   16  C   UNL     1     -41.559  56.285 -52.017  1.00  0.00     0.020 A 
HETATM   17  C   UNL     1     -41.496  54.907 -51.752  1.00  0.00    -0.027 A 
HETATM   18  C   UNL     1     -40.978  54.054 -52.736  1.00  0.00     0.086 A 
HETATM   19  C   UNL     1     -42.036  54.402 -50.441  1.00  0.00     0.051 C 
HETATM   20  C   UNL     1     -40.580  54.548 -53.989  1.00  0.00    -0.027 A 
HETATM   21  C   UNL     1     -40.068  53.633 -55.069  1.00  0.00     0.051 C 
HETATM   22  C   UNL     1     -40.644  55.928 -54.225  1.00  0.00     0.020 A 
BRANCH  18  23
HETATM   23  O   UNL     1     -40.949  52.703 -52.511  1.00  0.00    -0.289 OA
BRANCH  23  24
HETATM   24  C   UNL     1     -39.771  52.339 -51.800  1.00  0.00     0.505 C 
HETATM   25  F   UNL     1     -40.137  51.536 -50.771  1.00  0.00    -0.184 F 
HETATM   26  F   UNL     1     -39.012  51.587 -52.636  1.00  0.00    -0.184 F 
ENDBRANCH  23  24
ENDBRANCH  18  23
ENDBRANCH   1  15
BRANCH  12  27
HETATM   27  N   UNL     1     -41.393  60.287 -50.481  1.00  0.00    -0.272 NA
HETATM   28  H   UNL     1     -41.280  61.297 -50.549  1.00  0.00     0.127 HD
HETATM   29  H   UNL     1     -41.897  60.039 -49.641  1.00  0.00     0.127 HD
ENDBRANCH  12  27
TORSDOF 4
ENDMDL
MODEL 8
REMARK VINA RESULT:      -7.6     15.112     16.760
REMARK  4 active torsions:
REMARK  status: ('A' for Active; 'I' for Inactive)
REMARK    1  A    between atoms: C_3  and  O_4 
REMARK    2  A    between atoms: O_4  and  C_5 
REMARK    3  A    between atoms: C_11  and  C_12 
REMARK    4  A    between atoms: C_23  and  N_24 
ROOT
HETATM    1  C   UNL     1     -34.521  41.259 -55.629  1.00  0.00     0.244 A 
HETATM    2  N   UNL     1     -34.772  40.541 -54.401  1.00  0.00    -0.151 N 
HETATM    3  C   UNL     1     -33.819  39.710 -53.868  1.00  0.00     0.734 A 
HETATM    4  N   UNL     1     -34.271  39.181 -52.753  1.00  0.00    -0.060 NA
HETATM    5  C   UNL     1     -35.515  39.723 -52.543  1.00  0.00     0.103 A 
HETATM    6  C   UNL     1     -35.855  40.600 -53.568  1.00  0.00     0.083 A 
HETATM    7  C   UNL     1     -36.411  39.517 -51.486  1.00  0.00     0.034 A 
HETATM    8  C   UNL     1     -37.628  40.209 -51.491  1.00  0.00     0.002 A 
HETATM    9  C   UNL     1     -37.945  41.086 -52.530  1.00  0.00     0.002 A 
HETATM   10  C   UNL     1     -37.066  41.303 -53.598  1.00  0.00     0.033 A 
HETATM   11  N   UNL     1     -32.616  39.508 -54.450  1.00  0.00    -0.033 NA
HETATM   12  C   UNL     1     -32.319  40.162 -55.514  1.00  0.00     0.193 A 
HETATM   13  N   UNL     1     -33.168  41.077 -56.146  1.00  0.00    -0.339 N 
HETATM   14  H   UNL     1     -32.856  41.604 -56.946  1.00  0.00     0.164 HD
ENDROOT
BRANCH   1  15
HETATM   15  C   UNL     1     -35.461  40.858 -56.755  1.00  0.00    -0.014 A 
HETATM   16  C   UNL     1     -36.000  39.560 -56.783  1.00  0.00     0.020 A 
HETATM   17  C   UNL     1     -36.935  39.176 -57.759  1.00  0.00    -0.027 A 
HETATM   18  C   UNL     1     -37.323  40.114 -58.726  1.00  0.00     0.086 A 
HETATM   19  C   UNL     1     -37.519  37.791 -57.689  1.00  0.00     0.051 C 
HETATM   20  C   UNL     1     -36.836  41.431 -58.697  1.00  0.00    -0.027 A 
HETATM   21  C   UNL     1     -37.284  42.457 -59.703  1.00  0.00     0.051 C 
HETATM   22  C   UNL     1     -35.897  41.785 -57.720  1.00  0.00     0.020 A 
BRANCH  18  23
HETATM   23  O   UNL     1     -38.265  39.770 -59.659  1.00  0.00    -0.289 OA
BRANCH  23  24
HETATM   24  C   UNL     1     -37.695  38.944 -60.668  1.00  0.00     0.505 C 
HETATM   25  F   UNL     1     -38.600  38.824 -61.669  1.00  0.00    -0.184 F 
HETATM   26  F   UNL     1     -36.628  39.609 -61.178  1.00  0.00    -0.184 F 
ENDBRANCH  23  24
ENDBRANCH  18  23
ENDBRANCH   1  15
BRANCH  12  27
HETATM   27  N   UNL     1     -31.135  40.039 -56.146  1.00  0.00    -0.272 NA
HETATM   28  H   UNL     1     -31.163  40.485 -57.061  1.00  0.00     0.127 HD
HETATM   29  H   UNL     1     -30.316  40.332 -55.630  1.00  0.00     0.127 HD
ENDBRANCH  12  27
TORSDOF 4
ENDMDL
MODEL 9
REMARK VINA RESULT:      -7.5      3.574      6.190
REMARK  4 active torsions:
REMARK  status: ('A' for Active; 'I' for Inactive)
REMARK    1  A    between atoms: C_3  and  O_4 
REMARK    2  A    between atoms: O_4  and  C_5 
REMARK    3  A    between atoms: C_11  and  C_12 
REMARK    4  A    between atoms: C_23  and  N_24 
ROOT
HETATM    1  C   UNL     1     -42.211  57.633 -57.184  1.00  0.00     0.244 A 
HETATM    2  N   UNL     1     -43.356  57.690 -58.063  1.00  0.00    -0.151 N 
HETATM    3  C   UNL     1     -43.963  58.887 -58.348  1.00  0.00     0.734 A 
HETATM    4  N   UNL     1     -44.968  58.685 -59.171  1.00  0.00    -0.060 NA
HETATM    5  C   UNL     1     -44.971  57.343 -59.458  1.00  0.00     0.103 A 
HETATM    6  C   UNL     1     -43.951  56.686 -58.777  1.00  0.00     0.083 A 
HETATM    7  C   UNL     1     -45.817  56.614 -60.304  1.00  0.00     0.034 A 
HETATM    8  C   UNL     1     -45.604  55.238 -60.444  1.00  0.00     0.002 A 
HETATM    9  C   UNL     1     -44.571  54.602 -59.752  1.00  0.00     0.002 A 
HETATM   10  C   UNL     1     -43.718  55.311 -58.899  1.00  0.00     0.033 A 
HETATM   11  N   UNL     1     -43.544  60.062 -57.828  1.00  0.00    -0.033 NA
HETATM   12  C   UNL     1     -42.497  60.077 -57.083  1.00  0.00     0.193 A 
HETATM   13  N   UNL     1     -41.748  58.946 -56.744  1.00  0.00    -0.339 N 
HETATM   14  H   UNL     1     -40.902  59.030 -56.204  1.00  0.00     0.164 HD
ENDROOT
BRANCH   1  15
HETATM   15  C   UNL     1     -42.472  56.831 -55.919  1.00  0.00    -0.014 A 
HETATM   16  C   UNL     1     -43.284  57.371 -54.907  1.00  0.00     0.020 A 
HETATM   17  C   UNL     1     -43.615  56.629 -53.760  1.00  0.00    -0.027 A 
HETATM   18  C   UNL     1     -43.110  55.328 -53.630  1.00  0.00     0.086 A 
HETATM   19  C   UNL     1     -44.541  57.247 -52.748  1.00  0.00     0.051 C 
HETATM   20  C   UNL     1     -42.334  54.746 -54.645  1.00  0.00    -0.027 A 
HETATM   21  C   UNL     1     -41.828  53.332 -54.534  1.00  0.00     0.051 C 
HETATM   22  C   UNL     1     -42.009  55.510 -55.774  1.00  0.00     0.020 A 
BRANCH  18  23
HETATM   23  O   UNL     1     -43.458  54.576 -52.539  1.00  0.00    -0.289 OA
BRANCH  23  24
HETATM   24  C   UNL     1     -42.486  54.709 -51.508  1.00  0.00     0.505 C 
HETATM   25  F   UNL     1     -43.098  55.248 -50.426  1.00  0.00    -0.184 F 
HETATM   26  F   UNL     1     -42.096  53.457 -51.158  1.00  0.00    -0.184 F 
ENDBRANCH  23  24
ENDBRANCH  18  23
ENDBRANCH   1  15
BRANCH  12  27
HETATM   27  N   UNL     1     -41.997  61.206 -56.543  1.00  0.00    -0.272 NA
HETATM   28  H   UNL     1     -41.042  61.062 -56.218  1.00  0.00     0.127 HD
HETATM   29  H   UNL     1     -42.060  62.043 -57.108  1.00  0.00     0.127 HD
ENDBRANCH  12  27
TORSDOF 4
ENDMDL
MODEL 10
REMARK VINA RESULT:      -7.5     15.170     17.051
REMARK  4 active torsions:
REMARK  status: ('A' for Active; 'I' for Inactive)
REMARK    1  A    between atoms: C_3  and  O_4 
REMARK    2  A    between atoms: O_4  and  C_5 
REMARK    3  A    between atoms: C_11  and  C_12 
REMARK    4  A    between atoms: C_23  and  N_24 
ROOT
HETATM    1  C   UNL     1     -33.635  40.914 -56.080  1.00  0.00     0.244 A 
HETATM    2  N   UNL     1     -33.609  40.398 -54.732  1.00  0.00    -0.151 N 
HETATM    3  C   UNL     1     -32.703  39.434 -54.367  1.00  0.00     0.734 A 
HETATM    4  N   UNL     1     -32.867  39.135 -53.098  1.00  0.00    -0.060 NA
HETATM    5  C   UNL     1     -33.861  39.958 -52.630  1.00  0.00     0.103 A 
HETATM    6  C   UNL     1     -34.344  40.780 -53.643  1.00  0.00     0.083 A 
HETATM    7  C   UNL     1     -34.399  40.064 -51.340  1.00  0.00     0.034 A 
HETATM    8  C   UNL     1     -35.408  41.005 -51.108  1.00  0.00     0.002 A 
HETATM    9  C   UNL     1     -35.874  41.821 -52.140  1.00  0.00     0.002 A 
HETATM   10  C   UNL     1     -35.354  41.728 -53.437  1.00  0.00     0.033 A 
HETATM   11  N   UNL     1     -31.804  38.911 -55.230  1.00  0.00    -0.033 NA
HETATM   12  C   UNL     1     -31.746  39.373 -56.427  1.00  0.00     0.193 A 
HETATM   13  N   UNL     1     -32.571  40.385 -56.928  1.00  0.00    -0.339 N 
HETATM   14  H   UNL     1     -32.438  40.746 -57.859  1.00  0.00     0.164 HD
ENDROOT
BRANCH   1  15
HETATM   15  C   UNL     1     -34.939  40.621 -56.805  1.00  0.00    -0.014 A 
HETATM   16  C   UNL     1     -35.502  41.596 -57.647  1.00  0.00     0.020 A 
HETATM   17  C   UNL     1     -36.660  41.334 -58.397  1.00  0.00    -0.027 A 
HETATM   18  C   UNL     1     -37.264  40.074 -58.287  1.00  0.00     0.086 A 
HETATM   19  C   UNL     1     -37.171  42.402 -59.327  1.00  0.00     0.051 C 
HETATM   20  C   UNL     1     -36.700  39.066 -57.489  1.00  0.00    -0.027 A 
HETATM   21  C   UNL     1     -37.316  37.695 -57.403  1.00  0.00     0.051 C 
HETATM   22  C   UNL     1     -35.550  39.355 -56.743  1.00  0.00     0.020 A 
BRANCH  18  23
HETATM   23  O   UNL     1     -38.370  39.788 -59.044  1.00  0.00    -0.289 OA
BRANCH  23  24
HETATM   24  C   UNL     1     -38.005  39.050 -60.205  1.00  0.00     0.505 C 
HETATM   25  F   UNL     1     -39.049  38.251 -60.536  1.00  0.00    -0.184 F 
HETATM   26  F   UNL     1     -37.855  39.941 -61.218  1.00  0.00    -0.184 F 
ENDBRANCH  23  24
ENDBRANCH  18  23
ENDBRANCH   1  15
BRANCH  12  27
HETATM   27  N   UNL     1     -30.865  38.926 -57.344  1.00  0.00    -0.272 NA
HETATM   28  H   UNL     1     -31.239  39.027 -58.286  1.00  0.00     0.127 HD
HETATM   29  H   UNL     1     -29.927  39.300 -57.289  1.00  0.00     0.127 HD
ENDBRANCH  12  27
TORSDOF 4
ENDMDL
