MODEL 1
REMARK VINA RESULT:      -8.8      0.000      0.000
REMARK  3 active torsions:
REMARK  status: ('A' for Active; 'I' for Inactive)
REMARK    1  A    between atoms: C_4  and  C_5 
REMARK    2  A    between atoms: C_9  and  C_10 
REMARK    3  A    between atoms: C_23  and  N_24 
ROOT
HETATM    1  C   UNL     1     -41.715  54.085 -53.847  1.00  0.00     0.070 A 
HETATM    2  N   UNL     1     -42.347  54.716 -52.834  1.00  0.00    -0.228 NA
HETATM    3  C   UNL     1     -43.125  55.770 -53.057  1.00  0.00     0.165 A 
HETATM    4  C   UNL     1     -43.349  56.273 -54.342  1.00  0.00     0.063 A 
HETATM    5  C   UNL     1     -42.668  55.630 -55.428  1.00  0.00    -0.006 A 
HETATM    6  C   UNL     1     -41.851  54.525 -55.151  1.00  0.00     0.046 A 
HETATM    7  N   UNL     1     -43.677  56.289 -51.971  1.00  0.00    -0.222 NA
HETATM    8  C   UNL     1     -44.481  57.336 -52.126  1.00  0.00     0.237 A 
HETATM    9  N   UNL     1     -44.808  57.900 -53.284  1.00  0.00    -0.229 NA
HETATM   10  C   UNL     1     -44.254  57.359 -54.375  1.00  0.00     0.117 A 
ENDROOT
BRANCH   5  11
HETATM   11  C   UNL     1     -42.778  56.053 -56.837  1.00  0.00    -0.022 A 
HETATM   12  C   UNL     1     -42.215  57.266 -57.272  1.00  0.00     0.052 A 
HETATM   13  C   UNL     1     -42.364  57.622 -58.598  1.00  0.00     0.105 A 
HETATM   14  C   UNL     1     -43.018  56.814 -59.496  1.00  0.00     0.105 A 
HETATM   15  O   UNL     1     -41.910  58.770 -59.168  1.00  0.00    -0.323 OA
HETATM   16  O   UNL     1     -43.060  57.352 -60.744  1.00  0.00    -0.323 OA
HETATM   17  C   UNL     1     -43.560  55.606 -59.122  1.00  0.00     0.040 A 
HETATM   18  C   UNL     1     -42.388  58.610 -60.521  1.00  0.00     0.352 A 
HETATM   19  C   UNL     1     -43.439  55.227 -57.780  1.00  0.00     0.015 A 
ENDBRANCH   5  11
BRANCH  10  20
HETATM   20  N   UNL     1     -44.641  57.999 -55.550  1.00  0.00    -0.286 NA
HETATM   21  H   UNL     1     -44.565  57.327 -56.309  1.00  0.00     0.125 HD
HETATM   22  H   UNL     1     -44.105  58.839 -55.733  1.00  0.00     0.125 HD
ENDBRANCH  10  20
BRANCH   1  23
HETATM   23  C   UNL     1     -40.919  52.898 -53.464  1.00  0.00    -0.007 A 
HETATM   24  C   UNL     1     -40.366  52.796 -52.172  1.00  0.00     0.014 A 
HETATM   25  C   UNL     1     -39.627  51.677 -51.774  1.00  0.00     0.001 A 
HETATM   26  C   UNL     1     -39.418  50.632 -52.665  1.00  0.00     0.000 A 
HETATM   27  C   UNL     1     -39.939  50.708 -53.953  1.00  0.00     0.001 A 
HETATM   28  C   UNL     1     -40.678  51.829 -54.348  1.00  0.00     0.014 A 
ENDBRANCH   1  23
TORSDOF 3
ENDMDL
MODEL 2
REMARK VINA RESULT:      -8.6      3.241      5.514
REMARK  3 active torsions:
REMARK  status: ('A' for Active; 'I' for Inactive)
REMARK    1  A    between atoms: C_4  and  C_5 
REMARK    2  A    between atoms: C_9  and  C_10 
REMARK    3  A    between atoms: C_23  and  N_24 
ROOT
HETATM    1  C   UNL     1     -41.753  54.481 -53.916  1.00  0.00     0.070 A 
HETATM    2  N   UNL     1     -42.025  54.518 -55.239  1.00  0.00    -0.228 NA
HETATM    3  C   UNL     1     -42.673  55.544 -55.780  1.00  0.00     0.165 A 
HETATM    4  C   UNL     1     -43.091  56.644 -55.026  1.00  0.00     0.063 A 
HETATM    5  C   UNL     1     -42.832  56.612 -53.616  1.00  0.00    -0.006 A 
HETATM    6  C   UNL     1     -42.151  55.510 -53.081  1.00  0.00     0.046 A 
HETATM    7  N   UNL     1     -42.874  55.443 -57.085  1.00  0.00    -0.222 NA
HETATM    8  C   UNL     1     -43.502  56.445 -57.693  1.00  0.00     0.237 A 
HETATM    9  N   UNL     1     -43.929  57.561 -57.112  1.00  0.00    -0.229 NA
HETATM   10  C   UNL     1     -43.709  57.656 -55.796  1.00  0.00     0.117 A 
ENDROOT
BRANCH   5  11
HETATM   11  C   UNL     1     -43.229  57.680 -52.679  1.00  0.00    -0.022 A 
HETATM   12  C   UNL     1     -44.466  57.630 -52.010  1.00  0.00     0.052 A 
HETATM   13  C   UNL     1     -44.795  58.665 -51.158  1.00  0.00     0.105 A 
HETATM   14  C   UNL     1     -43.941  59.717 -50.932  1.00  0.00     0.105 A 
HETATM   15  O   UNL     1     -45.958  58.783 -50.464  1.00  0.00    -0.323 OA
HETATM   16  O   UNL     1     -44.459  60.630 -50.068  1.00  0.00    -0.323 OA
HETATM   17  C   UNL     1     -42.710  59.794 -51.542  1.00  0.00     0.040 A 
HETATM   18  C   UNL     1     -45.755  60.051 -49.804  1.00  0.00     0.352 A 
HETATM   19  C   UNL     1     -42.356  58.767 -52.423  1.00  0.00     0.015 A 
ENDBRANCH   5  11
BRANCH  10  20
HETATM   20  N   UNL     1     -44.181  58.850 -55.256  1.00  0.00    -0.286 NA
HETATM   21  H   UNL     1     -43.564  59.110 -54.490  1.00  0.00     0.125 HD
HETATM   22  H   UNL     1     -45.148  58.791 -54.960  1.00  0.00     0.125 HD
ENDBRANCH  10  20
BRANCH   1  23
HETATM   23  C   UNL     1     -40.985  53.304 -53.453  1.00  0.00    -0.007 A 
HETATM   24  C   UNL     1     -40.633  52.281 -54.356  1.00  0.00     0.014 A 
HETATM   25  C   UNL     1     -39.889  51.168 -53.954  1.00  0.00     0.001 A 
HETATM   26  C   UNL     1     -39.482  51.047 -52.630  1.00  0.00     0.000 A 
HETATM   27  C   UNL     1     -39.824  52.034 -51.711  1.00  0.00     0.001 A 
HETATM   28  C   UNL     1     -40.568  53.148 -52.117  1.00  0.00     0.014 A 
ENDBRANCH   1  23
TORSDOF 3
ENDMDL
MODEL 3
REMARK VINA RESULT:      -8.3      1.246      1.977
REMARK  3 active torsions:
REMARK  status: ('A' for Active; 'I' for Inactive)
REMARK    1  A    between atoms: C_4  and  C_5 
REMARK    2  A    between atoms: C_9  and  C_10 
REMARK    3  A    between atoms: C_23  and  N_24 
ROOT
HETATM    1  C   UNL     1     -41.893  54.682 -53.369  1.00  0.00     0.070 A 
HETATM    2  N   UNL     1     -42.567  55.055 -52.260  1.00  0.00    -0.228 NA
HETATM    3  C   UNL     1     -43.352  56.128 -52.259  1.00  0.00     0.165 A 
HETATM    4  C   UNL     1     -43.540  56.915 -53.398  1.00  0.00     0.063 A 
HETATM    5  C   UNL     1     -42.815  56.547 -54.580  1.00  0.00    -0.006 A 
HETATM    6  C   UNL     1     -41.993  55.413 -54.539  1.00  0.00     0.046 A 
HETATM    7  N   UNL     1     -43.946  56.377 -51.102  1.00  0.00    -0.222 NA
HETATM    8  C   UNL     1     -44.759  57.426 -51.037  1.00  0.00     0.237 A 
HETATM    9  N   UNL     1     -45.055  58.243 -52.043  1.00  0.00    -0.229 NA
HETATM   10  C   UNL     1     -44.458  57.973 -53.209  1.00  0.00     0.117 A 
ENDROOT
BRANCH   5  11
HETATM   11  C   UNL     1     -42.885  57.286 -55.854  1.00  0.00    -0.022 A 
HETATM   12  C   UNL     1     -43.685  56.822 -56.914  1.00  0.00     0.052 A 
HETATM   13  C   UNL     1     -43.700  57.543 -58.091  1.00  0.00     0.105 A 
HETATM   14  C   UNL     1     -42.979  58.703 -58.240  1.00  0.00     0.105 A 
HETATM   15  O   UNL     1     -44.391  57.215 -59.215  1.00  0.00    -0.323 OA
HETATM   16  O   UNL     1     -43.125  59.251 -59.476  1.00  0.00    -0.323 OA
HETATM   17  C   UNL     1     -42.204  59.210 -57.221  1.00  0.00     0.040 A 
HETATM   18  C   UNL     1     -43.992  58.282 -60.102  1.00  0.00     0.352 A 
HETATM   19  C   UNL     1     -42.158  58.491 -56.021  1.00  0.00     0.015 A 
ENDBRANCH   5  11
BRANCH  10  20
HETATM   20  N   UNL     1     -44.815  58.868 -54.216  1.00  0.00    -0.286 NA
HETATM   21  H   UNL     1     -45.318  58.347 -54.931  1.00  0.00     0.125 HD
HETATM   22  H   UNL     1     -44.020  59.365 -54.599  1.00  0.00     0.125 HD
ENDBRANCH  10  20
BRANCH   1  23
HETATM   23  C   UNL     1     -41.094  53.443 -53.245  1.00  0.00    -0.007 A 
HETATM   24  C   UNL     1     -41.008  52.539 -54.323  1.00  0.00     0.014 A 
HETATM   25  C   UNL     1     -40.243  51.370 -54.244  1.00  0.00     0.001 A 
HETATM   26  C   UNL     1     -39.547  51.074 -53.078  1.00  0.00     0.000 A 
HETATM   27  C   UNL     1     -39.622  51.940 -51.991  1.00  0.00     0.001 A 
HETATM   28  C   UNL     1     -40.388  53.109 -52.074  1.00  0.00     0.014 A 
ENDBRANCH   1  23
TORSDOF 3
ENDMDL
MODEL 4
REMARK VINA RESULT:      -8.2      1.820      2.433
REMARK  3 active torsions:
REMARK  status: ('A' for Active; 'I' for Inactive)
REMARK    1  A    between atoms: C_4  and  C_5 
REMARK    2  A    between atoms: C_9  and  C_10 
REMARK    3  A    between atoms: C_23  and  N_24 
ROOT
HETATM    1  C   UNL     1     -40.854  53.686 -52.948  1.00  0.00     0.070 A 
HETATM    2  N   UNL     1     -40.611  54.284 -51.761  1.00  0.00    -0.228 NA
HETATM    3  C   UNL     1     -41.004  55.531 -51.524  1.00  0.00     0.165 A 
HETATM    4  C   UNL     1     -41.703  56.285 -52.470  1.00  0.00     0.063 A 
HETATM    5  C   UNL     1     -41.951  55.676 -53.745  1.00  0.00    -0.006 A 
HETATM    6  C   UNL     1     -41.515  54.361 -53.959  1.00  0.00     0.046 A 
HETATM    7  N   UNL     1     -40.694  55.988 -50.321  1.00  0.00    -0.222 NA
HETATM    8  C   UNL     1     -41.074  57.223 -50.012  1.00  0.00     0.237 A 
HETATM    9  N   UNL     1     -41.766  58.043 -50.797  1.00  0.00    -0.229 NA
HETATM   10  C   UNL     1     -42.084  57.564 -52.005  1.00  0.00     0.117 A 
ENDROOT
BRANCH   5  11
HETATM   11  C   UNL     1     -42.652  56.345 -54.857  1.00  0.00    -0.022 A 
HETATM   12  C   UNL     1     -41.945  56.803 -55.984  1.00  0.00     0.052 A 
HETATM   13  C   UNL     1     -42.648  57.438 -56.988  1.00  0.00     0.105 A 
HETATM   14  C   UNL     1     -44.010  57.607 -56.924  1.00  0.00     0.105 A 
HETATM   15  O   UNL     1     -42.114  57.965 -58.122  1.00  0.00    -0.323 OA
HETATM   16  O   UNL     1     -44.505  58.263 -58.007  1.00  0.00    -0.323 OA
HETATM   17  C   UNL     1     -44.747  57.151 -55.854  1.00  0.00     0.040 A 
HETATM   18  C   UNL     1     -43.291  58.520 -58.746  1.00  0.00     0.352 A 
HETATM   19  C   UNL     1     -44.058  56.517 -54.814  1.00  0.00     0.015 A 
ENDBRANCH   5  11
BRANCH  10  20
HETATM   20  N   UNL     1     -42.808  58.475 -52.771  1.00  0.00    -0.286 NA
HETATM   21  H   UNL     1     -42.212  58.781 -53.536  1.00  0.00     0.125 HD
HETATM   22  H   UNL     1     -43.156  59.255 -52.226  1.00  0.00     0.125 HD
ENDBRANCH  10  20
BRANCH   1  23
HETATM   23  C   UNL     1     -40.405  52.281 -53.062  1.00  0.00    -0.007 A 
HETATM   24  C   UNL     1     -39.881  51.607 -51.941  1.00  0.00     0.014 A 
HETATM   25  C   UNL     1     -39.467  50.273 -52.012  1.00  0.00     0.001 A 
HETATM   26  C   UNL     1     -39.564  49.579 -53.212  1.00  0.00     0.000 A 
HETATM   27  C   UNL     1     -40.065  50.221 -54.341  1.00  0.00     0.001 A 
HETATM   28  C   UNL     1     -40.479  51.556 -54.267  1.00  0.00     0.014 A 
ENDBRANCH   1  23
TORSDOF 3
ENDMDL
MODEL 5
REMARK VINA RESULT:      -8.0      3.414      5.322
REMARK  3 active torsions:
REMARK  status: ('A' for Active; 'I' for Inactive)
REMARK    1  A    between atoms: C_4  and  C_5 
REMARK    2  A    between atoms: C_9  and  C_10 
REMARK    3  A    between atoms: C_23  and  N_24 
ROOT
HETATM    1  C   UNL     1     -41.123  53.684 -54.038  1.00  0.00     0.070 A 
HETATM    2  N   UNL     1     -41.660  53.803 -55.271  1.00  0.00    -0.228 NA
HETATM    3  C   UNL     1     -42.142  54.964 -55.704  1.00  0.00     0.165 A 
HETATM    4  C   UNL     1     -42.105  56.123 -54.924  1.00  0.00     0.063 A 
HETATM    5  C   UNL     1     -41.560  56.012 -53.602  1.00  0.00    -0.006 A 
HETATM    6  C   UNL     1     -41.067  54.769 -53.181  1.00  0.00     0.046 A 
HETATM    7  N   UNL     1     -42.642  54.932 -56.929  1.00  0.00    -0.222 NA
HETATM    8  C   UNL     1     -43.125  56.064 -57.430  1.00  0.00     0.237 A 
HETATM    9  N   UNL     1     -43.130  57.244 -56.819  1.00  0.00    -0.229 NA
HETATM   10  C   UNL     1     -42.612  57.266 -55.585  1.00  0.00     0.117 A 
ENDROOT
BRANCH   5  11
HETATM   11  C   UNL     1     -41.471  57.133 -52.649  1.00  0.00    -0.022 A 
HETATM   12  C   UNL     1     -40.255  57.807 -52.439  1.00  0.00     0.052 A 
HETATM   13  C   UNL     1     -40.224  58.838 -51.521  1.00  0.00     0.105 A 
HETATM   14  C   UNL     1     -41.348  59.232 -50.836  1.00  0.00     0.105 A 
HETATM   15  O   UNL     1     -39.128  59.566 -51.180  1.00  0.00    -0.323 OA
HETATM   16  O   UNL     1     -41.101  60.256 -49.976  1.00  0.00    -0.323 OA
HETATM   17  C   UNL     1     -42.566  58.620 -51.029  1.00  0.00     0.040 A 
HETATM   18  C   UNL     1     -39.682  60.439 -50.172  1.00  0.00     0.352 A 
HETATM   19  C   UNL     1     -42.623  57.561 -51.942  1.00  0.00     0.015 A 
ENDBRANCH   5  11
BRANCH  10  20
HETATM   20  N   UNL     1     -42.650  58.533 -55.008  1.00  0.00    -0.286 NA
HETATM   21  H   UNL     1     -43.423  59.043 -55.428  1.00  0.00     0.125 HD
HETATM   22  H   UNL     1     -41.772  59.032 -55.100  1.00  0.00     0.125 HD
ENDBRANCH  10  20
BRANCH   1  23
HETATM   23  C   UNL     1     -40.581  52.349 -53.701  1.00  0.00    -0.007 A 
HETATM   24  C   UNL     1     -39.990  52.115 -52.444  1.00  0.00     0.014 A 
HETATM   25  C   UNL     1     -39.488  50.859 -52.089  1.00  0.00     0.001 A 
HETATM   26  C   UNL     1     -39.562  49.803 -52.990  1.00  0.00     0.000 A 
HETATM   27  C   UNL     1     -40.127  50.005 -54.245  1.00  0.00     0.001 A 
HETATM   28  C   UNL     1     -40.629  51.263 -54.597  1.00  0.00     0.014 A 
ENDBRANCH   1  23
TORSDOF 3
ENDMDL
MODEL 6
REMARK VINA RESULT:      -8.0      3.614      5.957
REMARK  3 active torsions:
REMARK  status: ('A' for Active; 'I' for Inactive)
REMARK    1  A    between atoms: C_4  and  C_5 
REMARK    2  A    between atoms: C_9  and  C_10 
REMARK    3  A    between atoms: C_23  and  N_24 
ROOT
HETATM    1  C   UNL     1     -41.580  55.450 -53.179  1.00  0.00     0.070 A 
HETATM    2  N   UNL     1     -41.726  55.558 -54.518  1.00  0.00    -0.228 NA
HETATM    3  C   UNL     1     -42.262  56.643 -55.067  1.00  0.00     0.165 A 
HETATM    4  C   UNL     1     -42.685  57.734 -54.302  1.00  0.00     0.063 A 
HETATM    5  C   UNL     1     -42.559  57.629 -52.877  1.00  0.00    -0.006 A 
HETATM    6  C   UNL     1     -41.994  56.465 -52.336  1.00  0.00     0.046 A 
HETATM    7  N   UNL     1     -42.347  56.609 -56.387  1.00  0.00    -0.222 NA
HETATM    8  C   UNL     1     -42.857  57.671 -57.002  1.00  0.00     0.237 A 
HETATM    9  N   UNL     1     -43.272  58.787 -56.410  1.00  0.00    -0.229 NA
HETATM   10  C   UNL     1     -43.170  58.813 -55.076  1.00  0.00     0.117 A 
ENDROOT
BRANCH   5  11
HETATM   11  C   UNL     1     -42.980  58.679 -51.931  1.00  0.00    -0.022 A 
HETATM   12  C   UNL     1     -44.313  58.759 -51.489  1.00  0.00     0.052 A 
HETATM   13  C   UNL     1     -44.656  59.773 -50.617  1.00  0.00     0.105 A 
HETATM   14  C   UNL     1     -43.731  60.678 -50.157  1.00  0.00     0.105 A 
HETATM   15  O   UNL     1     -45.901  60.008 -50.123  1.00  0.00    -0.323 OA
HETATM   16  O   UNL     1     -44.276  61.598 -49.317  1.00  0.00    -0.323 OA
HETATM   17  C   UNL     1     -42.410  60.621 -50.541  1.00  0.00     0.040 A 
HETATM   18  C   UNL     1     -45.661  61.190 -49.329  1.00  0.00     0.352 A 
HETATM   19  C   UNL     1     -42.037  59.613 -51.436  1.00  0.00     0.015 A 
ENDBRANCH   5  11
BRANCH  10  20
HETATM   20  N   UNL     1     -43.621  60.011 -54.526  1.00  0.00    -0.286 NA
HETATM   21  H   UNL     1     -43.580  60.722 -55.252  1.00  0.00     0.125 HD
HETATM   22  H   UNL     1     -43.100  60.283 -53.700  1.00  0.00     0.125 HD
ENDBRANCH  10  20
BRANCH   1  23
HETATM   23  C   UNL     1     -40.926  54.210 -52.705  1.00  0.00    -0.007 A 
HETATM   24  C   UNL     1     -40.671  54.018 -51.333  1.00  0.00     0.014 A 
HETATM   25  C   UNL     1     -40.073  52.849 -50.851  1.00  0.00     0.001 A 
HETATM   26  C   UNL     1     -39.711  51.841 -51.736  1.00  0.00     0.000 A 
HETATM   27  C   UNL     1     -39.937  52.005 -53.099  1.00  0.00     0.001 A 
HETATM   28  C   UNL     1     -40.535  53.177 -53.578  1.00  0.00     0.014 A 
ENDBRANCH   1  23
TORSDOF 3
ENDMDL
MODEL 7
REMARK VINA RESULT:      -7.7      2.978      4.867
REMARK  3 active torsions:
REMARK  status: ('A' for Active; 'I' for Inactive)
REMARK    1  A    between atoms: C_4  and  C_5 
REMARK    2  A    between atoms: C_9  and  C_10 
REMARK    3  A    between atoms: C_23  and  N_24 
ROOT
HETATM    1  C   UNL     1     -41.966  54.998 -54.580  1.00  0.00     0.070 A 
HETATM    2  N   UNL     1     -42.195  54.791 -55.895  1.00  0.00    -0.228 NA
HETATM    3  C   UNL     1     -42.852  55.684 -56.630  1.00  0.00     0.165 A 
HETATM    4  C   UNL     1     -43.323  56.886 -56.096  1.00  0.00     0.063 A 
HETATM    5  C   UNL     1     -43.110  57.114 -54.695  1.00  0.00    -0.006 A 
HETATM    6  C   UNL     1     -42.418  56.146 -53.954  1.00  0.00     0.046 A 
HETATM    7  N   UNL     1     -43.007  55.346 -57.900  1.00  0.00    -0.222 NA
HETATM    8  C   UNL     1     -43.639  56.204 -58.695  1.00  0.00     0.237 A 
HETATM    9  N   UNL     1     -44.114  57.392 -58.335  1.00  0.00    -0.229 NA
HETATM   10  C   UNL     1     -43.940  57.726 -57.051  1.00  0.00     0.117 A 
ENDROOT
BRANCH   5  11
HETATM   11  C   UNL     1     -43.565  58.318 -53.976  1.00  0.00    -0.022 A 
HETATM   12  C   UNL     1     -42.771  59.478 -53.935  1.00  0.00     0.052 A 
HETATM   13  C   UNL     1     -43.237  60.571 -53.233  1.00  0.00     0.105 A 
HETATM   14  C   UNL     1     -44.458  60.560 -52.602  1.00  0.00     0.105 A 
HETATM   15  O   UNL     1     -42.581  61.750 -53.070  1.00  0.00    -0.323 OA
HETATM   16  O   UNL     1     -44.723  61.729 -51.962  1.00  0.00    -0.323 OA
HETATM   17  C   UNL     1     -45.282  59.457 -52.639  1.00  0.00     0.040 A 
HETATM   18  C   UNL     1     -43.512  62.467 -52.231  1.00  0.00     0.352 A 
HETATM   19  C   UNL     1     -44.827  58.329 -53.330  1.00  0.00     0.015 A 
ENDBRANCH   5  11
BRANCH  10  20
HETATM   20  N   UNL     1     -44.461  58.982 -56.746  1.00  0.00    -0.286 NA
HETATM   21  H   UNL     1     -45.472  58.929 -56.837  1.00  0.00     0.125 HD
HETATM   22  H   UNL     1     -44.067  59.718 -57.320  1.00  0.00     0.125 HD
ENDBRANCH  10  20
BRANCH   1  23
HETATM   23  C   UNL     1     -41.184  53.947 -53.894  1.00  0.00    -0.007 A 
HETATM   24  C   UNL     1     -41.086  53.933 -52.488  1.00  0.00     0.014 A 
HETATM   25  C   UNL     1     -40.371  52.941 -51.809  1.00  0.00     0.001 A 
HETATM   26  C   UNL     1     -39.730  51.937 -52.524  1.00  0.00     0.000 A 
HETATM   27  C   UNL     1     -39.796  51.930 -53.914  1.00  0.00     0.001 A 
HETATM   28  C   UNL     1     -40.512  52.924 -54.590  1.00  0.00     0.014 A 
ENDBRANCH   1  23
TORSDOF 3
ENDMDL
MODEL 8
REMARK VINA RESULT:      -7.6      3.550      7.117
REMARK  3 active torsions:
REMARK  status: ('A' for Active; 'I' for Inactive)
REMARK    1  A    between atoms: C_4  and  C_5 
REMARK    2  A    between atoms: C_9  and  C_10 
REMARK    3  A    between atoms: C_23  and  N_24 
ROOT
HETATM    1  C   UNL     1     -42.265  56.707 -55.373  1.00  0.00     0.070 A 
HETATM    2  N   UNL     1     -41.660  55.577 -54.949  1.00  0.00    -0.228 NA
HETATM    3  C   UNL     1     -41.445  55.353 -53.657  1.00  0.00     0.165 A 
HETATM    4  C   UNL     1     -41.846  56.254 -52.667  1.00  0.00     0.063 A 
HETATM    5  C   UNL     1     -42.470  57.472 -53.099  1.00  0.00    -0.006 A 
HETATM    6  C   UNL     1     -42.673  57.674 -54.471  1.00  0.00     0.046 A 
HETATM    7  N   UNL     1     -40.839  54.207 -53.389  1.00  0.00    -0.222 NA
HETATM    8  C   UNL     1     -40.610  53.912 -52.113  1.00  0.00     0.237 A 
HETATM    9  N   UNL     1     -40.958  54.657 -51.069  1.00  0.00    -0.229 NA
HETATM   10  C   UNL     1     -41.581  55.806 -51.353  1.00  0.00     0.117 A 
ENDROOT
BRANCH   5  11
HETATM   11  C   UNL     1     -42.927  58.534 -52.184  1.00  0.00    -0.022 A 
HETATM   12  C   UNL     1     -44.229  58.517 -51.651  1.00  0.00     0.052 A 
HETATM   13  C   UNL     1     -44.611  59.546 -50.814  1.00  0.00     0.105 A 
HETATM   14  C   UNL     1     -43.750  60.560 -50.473  1.00  0.00     0.105 A 
HETATM   15  O   UNL     1     -45.837  59.693 -50.245  1.00  0.00    -0.323 OA
HETATM   16  O   UNL     1     -44.324  61.475 -49.647  1.00  0.00    -0.323 OA
HETATM   17  C   UNL     1     -42.458  60.604 -50.947  1.00  0.00     0.040 A 
HETATM   18  C   UNL     1     -45.660  60.939 -49.536  1.00  0.00     0.352 A 
HETATM   19  C   UNL     1     -42.049  59.582 -51.811  1.00  0.00     0.015 A 
ENDBRANCH   5  11
BRANCH  10  20
HETATM   20  N   UNL     1     -41.918  56.532 -50.212  1.00  0.00    -0.286 NA
HETATM   21  H   UNL     1     -42.519  55.947 -49.638  1.00  0.00     0.125 HD
HETATM   22  H   UNL     1     -42.351  57.423 -50.429  1.00  0.00     0.125 HD
ENDBRANCH  10  20
BRANCH   1  23
HETATM   23  C   UNL     1     -42.484  56.808 -56.833  1.00  0.00    -0.007 A 
HETATM   24  C   UNL     1     -42.997  55.712 -57.554  1.00  0.00     0.014 A 
HETATM   25  C   UNL     1     -43.234  55.783 -58.931  1.00  0.00     0.001 A 
HETATM   26  C   UNL     1     -42.960  56.956 -59.622  1.00  0.00     0.000 A 
HETATM   27  C   UNL     1     -42.441  58.053 -58.941  1.00  0.00     0.001 A 
HETATM   28  C   UNL     1     -42.204  57.979 -57.563  1.00  0.00     0.014 A 
ENDBRANCH   1  23
TORSDOF 3
ENDMDL
MODEL 9
REMARK VINA RESULT:      -7.5      3.445      7.760
REMARK  3 active torsions:
REMARK  status: ('A' for Active; 'I' for Inactive)
REMARK    1  A    between atoms: C_4  and  C_5 
REMARK    2  A    between atoms: C_9  and  C_10 
REMARK    3  A    between atoms: C_23  and  N_24 
ROOT
HETATM    1  C   UNL     1     -42.465  58.260 -58.844  1.00  0.00     0.070 A 
HETATM    2  N   UNL     1     -43.108  57.694 -59.888  1.00  0.00    -0.228 NA
HETATM    3  C   UNL     1     -43.607  56.465 -59.806  1.00  0.00     0.165 A 
HETATM    4  C   UNL     1     -43.515  55.700 -58.641  1.00  0.00     0.063 A 
HETATM    5  C   UNL     1     -42.816  56.275 -57.528  1.00  0.00    -0.006 A 
HETATM    6  C   UNL     1     -42.298  57.571 -57.656  1.00  0.00     0.046 A 
HETATM    7  N   UNL     1     -44.206  56.038 -60.907  1.00  0.00    -0.222 NA
HETATM    8  C   UNL     1     -44.743  54.822 -60.886  1.00  0.00     0.237 A 
HETATM    9  N   UNL     1     -44.758  53.996 -59.845  1.00  0.00    -0.229 NA
HETATM   10  C   UNL     1     -44.160  54.445 -58.735  1.00  0.00     0.117 A 
ENDROOT
BRANCH   5  11
HETATM   11  C   UNL     1     -42.611  55.589 -56.238  1.00  0.00    -0.022 A 
HETATM   12  C   UNL     1     -41.448  54.836 -55.998  1.00  0.00     0.052 A 
HETATM   13  C   UNL     1     -41.315  54.201 -54.780  1.00  0.00     0.105 A 
HETATM   14  C   UNL     1     -42.270  54.308 -53.799  1.00  0.00     0.105 A 
HETATM   15  O   UNL     1     -40.273  53.412 -54.404  1.00  0.00    -0.323 OA
HETATM   16  O   UNL     1     -41.951  53.600 -52.683  1.00  0.00    -0.323 OA
HETATM   17  C   UNL     1     -43.412  55.057 -53.978  1.00  0.00     0.040 A 
HETATM   18  C   UNL     1     -40.700  53.004 -53.087  1.00  0.00     0.352 A 
HETATM   19  C   UNL     1     -43.580  55.699 -55.210  1.00  0.00     0.015 A 
ENDBRANCH   5  11
BRANCH  10  20
HETATM   20  N   UNL     1     -44.215  53.530 -57.687  1.00  0.00    -0.286 NA
HETATM   21  H   UNL     1     -45.064  52.981 -57.798  1.00  0.00     0.125 HD
HETATM   22  H   UNL     1     -44.167  53.973 -56.777  1.00  0.00     0.125 HD
ENDBRANCH  10  20
BRANCH   1  23
HETATM   23  C   UNL     1     -42.001  59.649 -59.054  1.00  0.00    -0.007 A 
HETATM   24  C   UNL     1     -41.573  60.431 -57.964  1.00  0.00     0.014 A 
HETATM   25  C   UNL     1     -41.109  61.740 -58.133  1.00  0.00     0.001 A 
HETATM   26  C   UNL     1     -41.067  62.302 -59.404  1.00  0.00     0.000 A 
HETATM   27  C   UNL     1     -41.495  61.560 -60.500  1.00  0.00     0.001 A 
HETATM   28  C   UNL     1     -41.959  60.250 -60.327  1.00  0.00     0.014 A 
ENDBRANCH   1  23
TORSDOF 3
ENDMDL
MODEL 10
REMARK VINA RESULT:      -7.4      3.430      6.941
REMARK  3 active torsions:
REMARK  status: ('A' for Active; 'I' for Inactive)
REMARK    1  A    between atoms: C_4  and  C_5 
REMARK    2  A    between atoms: C_9  and  C_10 
REMARK    3  A    between atoms: C_23  and  N_24 
ROOT
HETATM    1  C   UNL     1     -43.114  57.026 -56.200  1.00  0.00     0.070 A 
HETATM    2  N   UNL     1     -43.003  58.336 -55.888  1.00  0.00    -0.228 NA
HETATM    3  C   UNL     1     -42.551  58.726 -54.700  1.00  0.00     0.165 A 
HETATM    4  C   UNL     1     -42.150  57.814 -53.720  1.00  0.00     0.063 A 
HETATM    5  C   UNL     1     -42.282  56.419 -54.023  1.00  0.00    -0.006 A 
HETATM    6  C   UNL     1     -42.768  56.048 -55.285  1.00  0.00     0.046 A 
HETATM    7  N   UNL     1     -42.500  60.038 -54.533  1.00  0.00    -0.222 NA
HETATM    8  C   UNL     1     -42.040  60.495 -53.373  1.00  0.00     0.237 A 
HETATM    9  N   UNL     1     -41.598  59.752 -52.364  1.00  0.00    -0.229 NA
HETATM   10  C   UNL     1     -41.644  58.428 -52.551  1.00  0.00     0.117 A 
ENDROOT
BRANCH   5  11
HETATM   11  C   UNL     1     -41.926  55.334 -53.090  1.00  0.00    -0.022 A 
HETATM   12  C   UNL     1     -40.789  54.536 -53.311  1.00  0.00     0.052 A 
HETATM   13  C   UNL     1     -40.513  53.522 -52.416  1.00  0.00     0.105 A 
HETATM   14  C   UNL     1     -41.299  53.295 -51.313  1.00  0.00     0.105 A 
HETATM   15  O   UNL     1     -39.477  52.646 -52.502  1.00  0.00    -0.323 OA
HETATM   16  O   UNL     1     -40.859  52.247 -50.566  1.00  0.00    -0.323 OA
HETATM   17  C   UNL     1     -42.406  54.068 -51.041  1.00  0.00     0.040 A 
HETATM   18  C   UNL     1     -39.723  51.816 -51.347  1.00  0.00     0.352 A 
HETATM   19  C   UNL     1     -42.719  55.093 -51.940  1.00  0.00     0.015 A 
ENDBRANCH   5  11
BRANCH  10  20
HETATM   20  N   UNL     1     -41.164  57.713 -51.455  1.00  0.00    -0.286 NA
HETATM   21  H   UNL     1     -40.270  57.305 -51.718  1.00  0.00     0.125 HD
HETATM   22  H   UNL     1     -41.819  57.012 -51.128  1.00  0.00     0.125 HD
ENDBRANCH  10  20
BRANCH   1  23
HETATM   23  C   UNL     1     -43.586  56.732 -57.571  1.00  0.00    -0.007 A 
HETATM   24  C   UNL     1     -44.424  57.641 -58.247  1.00  0.00     0.014 A 
HETATM   25  C   UNL     1     -44.869  57.401 -59.551  1.00  0.00     0.001 A 
HETATM   26  C   UNL     1     -44.488  56.239 -60.211  1.00  0.00     0.000 A 
HETATM   27  C   UNL     1     -43.671  55.315 -59.566  1.00  0.00     0.001 A 
HETATM   28  C   UNL     1     -43.228  55.558 -58.261  1.00  0.00     0.014 A 
ENDBRANCH   1  23
TORSDOF 3
ENDMDL
