MODEL 1
REMARK VINA RESULT:      -7.4      0.000      0.000
REMARK  10 active torsions:
REMARK  status: ('A' for Active; 'I' for Inactive)
REMARK    1  A    between atoms: C_2  and  O_3 
REMARK    2  A    between atoms: O_3  and  C_4 
REMARK    3  A    between atoms: C_7  and  C_8 
REMARK    4  A    between atoms: C_8  and  C_9 
REMARK    5  A    between atoms: C_10  and  C_11 
REMARK    6  A    between atoms: C_13  and  N_14 
REMARK    7  A    between atoms: N_20  and  C_21 
REMARK    8  A    between atoms: C_21  and  C_22 
REMARK    9  A    between atoms: C_22  and  N_23 
REMARK   10  A    between atoms: C_34  and  O_35 
ROOT
HETATM    1  C   UNL     1     -43.608  57.739 -56.047  1.00  0.00     0.059 C 
HETATM    2  C   UNL     1     -43.076  58.708 -55.047  1.00  0.00     0.161 C 
HETATM    3  N   UNL     1     -44.214  59.600 -54.893  1.00  0.00    -0.332 N 
HETATM    4  C   UNL     1     -45.158  59.371 -55.883  1.00  0.00     0.278 C 
HETATM    5  O   UNL     1     -45.984  60.196 -56.240  1.00  0.00    -0.265 OA
HETATM    6  C   UNL     1     -44.820  58.072 -56.511  1.00  0.00     0.146 C 
ENDROOT
BRANCH   1   7
HETATM    7  C   UNL     1     -42.835  56.651 -56.673  1.00  0.00     0.193 C 
HETATM    8  O   UNL     1     -42.415  56.745 -57.817  1.00  0.00    -0.287 OA
BRANCH   7   9
HETATM    9  C   UNL     1     -42.414  55.568 -55.767  1.00  0.00     0.015 A 
HETATM   10  C   UNL     1     -43.348  54.815 -55.057  1.00  0.00     0.018 A 
HETATM   11  C   UNL     1     -42.909  53.951 -54.048  1.00  0.00     0.038 A 
HETATM   12  C   UNL     1     -41.545  53.842 -53.765  1.00  0.00     0.069 A 
HETATM   13  C   UNL     1     -40.615  54.537 -54.545  1.00  0.00     0.038 A 
HETATM   14  C   UNL     1     -41.044  55.411 -55.541  1.00  0.00     0.018 A 
BRANCH  12  15
HETATM   15  O   UNL     1     -40.999  53.055 -52.793  1.00  0.00    -0.347 OA
BRANCH  15  16
HETATM   16  C   UNL     1     -39.919  52.185 -53.158  1.00  0.00     0.120 C 
HETATM   17  C   UNL     1     -40.413  51.126 -54.144  1.00  0.00     0.040 C 
HETATM   18  C   UNL     1     -39.444  51.516 -51.871  1.00  0.00     0.040 C 
ENDBRANCH  15  16
ENDBRANCH  12  15
ENDBRANCH   7   9
ENDBRANCH   1   7
BRANCH   2  19
HETATM   19  C   UNL     1     -42.597  58.175 -53.718  1.00  0.00    -0.028 A 
HETATM   20  C   UNL     1     -43.528  57.542 -52.876  1.00  0.00     0.045 A 
HETATM   21  C   UNL     1     -43.120  56.976 -51.658  1.00  0.00     0.103 A 
HETATM   22  C   UNL     1     -41.790  57.055 -51.247  1.00  0.00     0.036 A 
HETATM   23  C   UNL     1     -40.862  57.689 -52.077  1.00  0.00     0.003 A 
HETATM   24  C   UNL     1     -41.257  58.234 -53.306  1.00  0.00     0.010 A 
BRANCH  21  25
HETATM   25  N   UNL     1     -44.110  56.264 -50.843  1.00  0.00    -0.116 N 
HETATM   26  O   UNL     1     -45.109  56.912 -50.487  1.00  0.00    -0.532 OA
HETATM   27  O   UNL     1     -43.899  55.077 -50.580  1.00  0.00    -0.532 OA
ENDBRANCH  21  25
ENDBRANCH   2  19
BRANCH   6  28
HETATM   28  O   UNL     1     -45.544  57.484 -57.505  1.00  0.00    -0.355 OA
HETATM   29  H   UNL     1     -46.219  58.133 -57.814  1.00  0.00     0.218 HD
ENDBRANCH   6  28
BRANCH   3  30
HETATM   30  C   UNL     1     -44.158  60.870 -54.193  1.00  0.00     0.155 C 
BRANCH  30  31
HETATM   31  C   UNL     1     -45.121  60.907 -52.993  1.00  0.00     0.254 C 
BRANCH  31  32
HETATM   32  N   UNL     1     -44.688  61.904 -51.920  1.00  0.00    -0.066 N 
HETATM   33  H   UNL     1     -44.826  62.839 -52.339  1.00  0.00     0.280 HD
HETATM   34  C   UNL     1     -43.195  61.823 -51.545  1.00  0.00     0.262 C 
HETATM   35  C   UNL     1     -42.883  60.600 -50.648  1.00  0.00     0.260 C 
HETATM   36  N   UNL     1     -43.811  60.557 -49.449  1.00  0.00    -0.072 N 
HETATM   37  H   UNL     1     -43.553  61.292 -48.770  1.00  0.00     0.277 HD
HETATM   38  H   UNL     1     -43.632  59.676 -48.934  1.00  0.00     0.277 HD
HETATM   39  C   UNL     1     -45.278  60.634 -49.788  1.00  0.00     0.260 C 
HETATM   40  C   UNL     1     -45.584  61.864 -50.678  1.00  0.00     0.262 C 
ENDBRANCH  31  32
ENDBRANCH  30  31
ENDBRANCH   3  30
TORSDOF 10
ENDMDL
MODEL 2
REMARK VINA RESULT:      -7.3      1.848      2.113
REMARK  10 active torsions:
REMARK  status: ('A' for Active; 'I' for Inactive)
REMARK    1  A    between atoms: C_2  and  O_3 
REMARK    2  A    between atoms: O_3  and  C_4 
REMARK    3  A    between atoms: C_7  and  C_8 
REMARK    4  A    between atoms: C_8  and  C_9 
REMARK    5  A    between atoms: C_10  and  C_11 
REMARK    6  A    between atoms: C_13  and  N_14 
REMARK    7  A    between atoms: N_20  and  C_21 
REMARK    8  A    between atoms: C_21  and  C_22 
REMARK    9  A    between atoms: C_22  and  N_23 
REMARK   10  A    between atoms: C_34  and  O_35 
ROOT
HETATM    1  C   UNL     1     -43.448  57.998 -55.870  1.00  0.00     0.059 C 
HETATM    2  C   UNL     1     -42.947  59.007 -54.894  1.00  0.00     0.161 C 
HETATM    3  N   UNL     1     -44.147  59.795 -54.668  1.00  0.00    -0.332 N 
HETATM    4  C   UNL     1     -45.122  59.487 -55.606  1.00  0.00     0.278 C 
HETATM    5  O   UNL     1     -46.036  60.238 -55.908  1.00  0.00    -0.265 OA
HETATM    6  C   UNL     1     -44.709  58.225 -56.263  1.00  0.00     0.146 C 
ENDROOT
BRANCH   1   7
HETATM    7  C   UNL     1     -42.619  56.985 -56.548  1.00  0.00     0.193 C 
HETATM    8  O   UNL     1     -42.128  57.196 -57.647  1.00  0.00    -0.287 OA
BRANCH   7   9
HETATM    9  C   UNL     1     -42.240  55.822 -55.727  1.00  0.00     0.015 A 
HETATM   10  C   UNL     1     -43.186  54.878 -55.330  1.00  0.00     0.018 A 
HETATM   11  C   UNL     1     -42.837  53.915 -54.377  1.00  0.00     0.038 A 
HETATM   12  C   UNL     1     -41.549  53.900 -53.837  1.00  0.00     0.069 A 
HETATM   13  C   UNL     1     -40.586  54.798 -54.310  1.00  0.00     0.038 A 
HETATM   14  C   UNL     1     -40.929  55.769 -55.248  1.00  0.00     0.018 A 
BRANCH  12  15
HETATM   15  O   UNL     1     -41.098  53.030 -52.887  1.00  0.00    -0.347 OA
BRANCH  15  16
HETATM   16  C   UNL     1     -39.940  52.241 -53.190  1.00  0.00     0.120 C 
HETATM   17  C   UNL     1     -40.306  51.136 -54.181  1.00  0.00     0.040 C 
HETATM   18  C   UNL     1     -39.474  51.627 -51.873  1.00  0.00     0.040 C 
ENDBRANCH  15  16
ENDBRANCH  12  15
ENDBRANCH   7   9
ENDBRANCH   1   7
BRANCH   2  19
HETATM   19  C   UNL     1     -42.348  58.513 -53.599  1.00  0.00    -0.028 A 
HETATM   20  C   UNL     1     -41.084  58.999 -53.218  1.00  0.00     0.045 A 
HETATM   21  C   UNL     1     -40.511  58.618 -51.995  1.00  0.00     0.103 A 
HETATM   22  C   UNL     1     -41.171  57.730 -51.146  1.00  0.00     0.036 A 
HETATM   23  C   UNL     1     -42.423  57.239 -51.522  1.00  0.00     0.003 A 
HETATM   24  C   UNL     1     -43.013  57.635 -52.731  1.00  0.00     0.010 A 
BRANCH  21  25
HETATM   25  N   UNL     1     -39.224  59.203 -51.605  1.00  0.00    -0.116 N 
HETATM   26  O   UNL     1     -38.343  59.247 -52.481  1.00  0.00    -0.532 OA
HETATM   27  O   UNL     1     -39.104  59.623 -50.451  1.00  0.00    -0.532 OA
ENDBRANCH  21  25
ENDBRANCH   2  19
BRANCH   6  28
HETATM   28  O   UNL     1     -45.434  57.581 -57.219  1.00  0.00    -0.355 OA
HETATM   29  H   UNL     1     -44.922  56.789 -57.509  1.00  0.00     0.218 HD
ENDBRANCH   6  28
BRANCH   3  30
HETATM   30  C   UNL     1     -44.163  61.062 -53.962  1.00  0.00     0.155 C 
BRANCH  30  31
HETATM   31  C   UNL     1     -45.066  61.014 -52.716  1.00  0.00     0.254 C 
BRANCH  31  32
HETATM   32  N   UNL     1     -44.683  62.057 -51.669  1.00  0.00    -0.066 N 
HETATM   33  H   UNL     1     -44.780  62.973 -52.141  1.00  0.00     0.280 HD
HETATM   34  C   UNL     1     -43.217  61.975 -51.200  1.00  0.00     0.262 C 
HETATM   35  C   UNL     1     -42.979  60.794 -50.227  1.00  0.00     0.260 C 
HETATM   36  N   UNL     1     -43.978  60.822 -49.086  1.00  0.00    -0.072 N 
HETATM   37  H   UNL     1     -43.750  61.587 -48.429  1.00  0.00     0.277 HD
HETATM   38  H   UNL     1     -43.846  59.966 -48.519  1.00  0.00     0.277 HD
HETATM   39  C   UNL     1     -45.421  60.902 -49.518  1.00  0.00     0.260 C 
HETATM   40  C   UNL     1     -45.652  62.091 -50.484  1.00  0.00     0.262 C 
ENDBRANCH  31  32
ENDBRANCH  30  31
ENDBRANCH   3  30
TORSDOF 10
ENDMDL
MODEL 3
REMARK VINA RESULT:      -7.1      2.085      2.539
REMARK  10 active torsions:
REMARK  status: ('A' for Active; 'I' for Inactive)
REMARK    1  A    between atoms: C_2  and  O_3 
REMARK    2  A    between atoms: O_3  and  C_4 
REMARK    3  A    between atoms: C_7  and  C_8 
REMARK    4  A    between atoms: C_8  and  C_9 
REMARK    5  A    between atoms: C_10  and  C_11 
REMARK    6  A    between atoms: C_13  and  N_14 
REMARK    7  A    between atoms: N_20  and  C_21 
REMARK    8  A    between atoms: C_21  and  C_22 
REMARK    9  A    between atoms: C_22  and  N_23 
REMARK   10  A    between atoms: C_34  and  O_35 
ROOT
HETATM    1  C   UNL     1     -43.523  57.876 -55.750  1.00  0.00     0.059 C 
HETATM    2  C   UNL     1     -42.831  58.941 -54.970  1.00  0.00     0.161 C 
HETATM    3  N   UNL     1     -43.866  59.961 -54.916  1.00  0.00    -0.332 N 
HETATM    4  C   UNL     1     -44.896  59.665 -55.797  1.00  0.00     0.278 C 
HETATM    5  O   UNL     1     -45.664  60.499 -56.250  1.00  0.00    -0.265 OA
HETATM    6  C   UNL     1     -44.728  58.249 -56.200  1.00  0.00     0.146 C 
ENDROOT
BRANCH   1   7
HETATM    7  C   UNL     1     -42.902  56.621 -56.212  1.00  0.00     0.193 C 
HETATM    8  O   UNL     1     -42.501  56.495 -57.360  1.00  0.00    -0.287 OA
BRANCH   7   9
HETATM    9  C   UNL     1     -42.596  55.638 -55.159  1.00  0.00     0.015 A 
HETATM   10  C   UNL     1     -43.611  55.005 -54.443  1.00  0.00     0.018 A 
HETATM   11  C   UNL     1     -43.285  54.250 -53.311  1.00  0.00     0.038 A 
HETATM   12  C   UNL     1     -41.951  54.129 -52.911  1.00  0.00     0.069 A 
HETATM   13  C   UNL     1     -40.938  54.697 -53.690  1.00  0.00     0.038 A 
HETATM   14  C   UNL     1     -41.255  55.462 -54.810  1.00  0.00     0.018 A 
BRANCH  12  15
HETATM   15  O   UNL     1     -41.512  53.443 -51.817  1.00  0.00    -0.347 OA
BRANCH  15  16
HETATM   16  C   UNL     1     -40.099  53.380 -51.582  1.00  0.00     0.120 C 
HETATM   17  C   UNL     1     -39.619  51.932 -51.679  1.00  0.00     0.040 C 
HETATM   18  C   UNL     1     -39.866  53.912 -50.171  1.00  0.00     0.040 C 
ENDBRANCH  15  16
ENDBRANCH  12  15
ENDBRANCH   7   9
ENDBRANCH   1   7
BRANCH   2  19
HETATM   19  C   UNL     1     -42.310  58.597 -53.595  1.00  0.00    -0.028 A 
HETATM   20  C   UNL     1     -41.003  58.993 -53.257  1.00  0.00     0.045 A 
HETATM   21  C   UNL     1     -40.494  58.752 -51.972  1.00  0.00     0.103 A 
HETATM   22  C   UNL     1     -41.263  58.091 -51.015  1.00  0.00     0.036 A 
HETATM   23  C   UNL     1     -42.558  57.689 -51.347  1.00  0.00     0.003 A 
HETATM   24  C   UNL     1     -43.083  57.950 -52.621  1.00  0.00     0.010 A 
BRANCH  21  25
HETATM   25  N   UNL     1     -39.153  59.244 -51.640  1.00  0.00    -0.116 N 
HETATM   26  O   UNL     1     -38.317  59.249 -52.560  1.00  0.00    -0.532 OA
HETATM   27  O   UNL     1     -38.947  59.631 -50.486  1.00  0.00    -0.532 OA
ENDBRANCH  21  25
ENDBRANCH   2  19
BRANCH   6  28
HETATM   28  O   UNL     1     -45.574  57.579 -57.032  1.00  0.00    -0.355 OA
HETATM   29  H   UNL     1     -46.449  58.032 -57.007  1.00  0.00     0.218 HD
ENDBRANCH   6  28
BRANCH   3  30
HETATM   30  C   UNL     1     -43.640  61.319 -54.459  1.00  0.00     0.155 C 
BRANCH  30  31
HETATM   31  C   UNL     1     -44.643  61.731 -53.365  1.00  0.00     0.254 C 
BRANCH  31  32
HETATM   32  N   UNL     1     -44.462  60.941 -52.071  1.00  0.00    -0.066 N 
HETATM   33  H   UNL     1     -44.209  59.982 -52.364  1.00  0.00     0.280 HD
HETATM   34  C   UNL     1     -45.746  60.802 -51.229  1.00  0.00     0.262 C 
HETATM   35  C   UNL     1     -46.097  62.109 -50.476  1.00  0.00     0.260 C 
HETATM   36  N   UNL     1     -44.906  62.614 -49.685  1.00  0.00    -0.072 N 
HETATM   37  H   UNL     1     -44.749  62.018 -48.854  1.00  0.00     0.277 HD
HETATM   38  H   UNL     1     -45.154  63.534 -49.280  1.00  0.00     0.277 HD
HETATM   39  C   UNL     1     -43.636  62.760 -50.485  1.00  0.00     0.260 C 
HETATM   40  C   UNL     1     -43.288  61.446 -51.227  1.00  0.00     0.262 C 
ENDBRANCH  31  32
ENDBRANCH  30  31
ENDBRANCH   3  30
TORSDOF 10
ENDMDL
MODEL 4
REMARK VINA RESULT:      -7.1      2.982      6.027
REMARK  10 active torsions:
REMARK  status: ('A' for Active; 'I' for Inactive)
REMARK    1  A    between atoms: C_2  and  O_3 
REMARK    2  A    between atoms: O_3  and  C_4 
REMARK    3  A    between atoms: C_7  and  C_8 
REMARK    4  A    between atoms: C_8  and  C_9 
REMARK    5  A    between atoms: C_10  and  C_11 
REMARK    6  A    between atoms: C_13  and  N_14 
REMARK    7  A    between atoms: N_20  and  C_21 
REMARK    8  A    between atoms: C_21  and  C_22 
REMARK    9  A    between atoms: C_22  and  N_23 
REMARK   10  A    between atoms: C_34  and  O_35 
ROOT
HETATM    1  C   UNL     1     -43.000  58.899 -54.077  1.00  0.00     0.059 C 
HETATM    2  C   UNL     1     -43.375  57.949 -55.162  1.00  0.00     0.161 C 
HETATM    3  N   UNL     1     -42.575  58.456 -56.265  1.00  0.00    -0.332 N 
HETATM    4  C   UNL     1     -42.050  59.704 -55.959  1.00  0.00     0.278 C 
HETATM    5  O   UNL     1     -41.697  60.518 -56.798  1.00  0.00    -0.265 OA
HETATM    6  C   UNL     1     -42.205  59.893 -54.498  1.00  0.00     0.146 C 
ENDROOT
BRANCH   1   7
HETATM    7  C   UNL     1     -43.600  58.933 -52.731  1.00  0.00     0.193 C 
HETATM    8  O   UNL     1     -44.540  59.669 -52.472  1.00  0.00    -0.287 OA
BRANCH   7   9
HETATM    9  C   UNL     1     -43.150  57.877 -51.808  1.00  0.00     0.015 A 
HETATM   10  C   UNL     1     -41.804  57.733 -51.475  1.00  0.00     0.018 A 
HETATM   11  C   UNL     1     -41.387  56.594 -50.778  1.00  0.00     0.038 A 
HETATM   12  C   UNL     1     -42.317  55.616 -50.415  1.00  0.00     0.069 A 
HETATM   13  C   UNL     1     -43.675  55.817 -50.679  1.00  0.00     0.038 A 
HETATM   14  C   UNL     1     -44.097  56.941 -51.386  1.00  0.00     0.018 A 
BRANCH  12  15
HETATM   15  O   UNL     1     -42.030  54.456 -49.757  1.00  0.00    -0.347 OA
BRANCH  15  16
HETATM   16  C   UNL     1     -40.653  54.087 -49.609  1.00  0.00     0.120 C 
HETATM   17  C   UNL     1     -40.407  52.722 -50.253  1.00  0.00     0.040 C 
HETATM   18  C   UNL     1     -40.379  54.013 -48.110  1.00  0.00     0.040 C 
ENDBRANCH  15  16
ENDBRANCH  12  15
ENDBRANCH   7   9
ENDBRANCH   1   7
BRANCH   2  19
HETATM   19  C   UNL     1     -43.142  56.474 -54.933  1.00  0.00    -0.028 A 
HETATM   20  C   UNL     1     -41.829  55.981 -55.030  1.00  0.00     0.045 A 
HETATM   21  C   UNL     1     -41.552  54.631 -54.766  1.00  0.00     0.103 A 
HETATM   22  C   UNL     1     -42.576  53.747 -54.431  1.00  0.00     0.036 A 
HETATM   23  C   UNL     1     -43.884  54.229 -54.341  1.00  0.00     0.003 A 
HETATM   24  C   UNL     1     -44.164  55.582 -54.577  1.00  0.00     0.010 A 
BRANCH  21  25
HETATM   25  N   UNL     1     -40.159  54.174 -54.810  1.00  0.00    -0.116 N 
HETATM   26  O   UNL     1     -39.305  55.018 -55.131  1.00  0.00    -0.532 OA
HETATM   27  O   UNL     1     -39.924  52.999 -54.513  1.00  0.00    -0.532 OA
ENDBRANCH  21  25
ENDBRANCH   2  19
BRANCH   6  28
HETATM   28  O   UNL     1     -41.771  60.987 -53.811  1.00  0.00    -0.355 OA
HETATM   29  H   UNL     1     -42.448  61.696 -53.909  1.00  0.00     0.218 HD
ENDBRANCH   6  28
BRANCH   3  30
HETATM   30  C   UNL     1     -42.731  58.029 -57.642  1.00  0.00     0.155 C 
BRANCH  30  31
HETATM   31  C   UNL     1     -44.158  58.277 -58.163  1.00  0.00     0.254 C 
BRANCH  31  32
HETATM   32  N   UNL     1     -44.327  57.890 -59.630  1.00  0.00    -0.066 N 
HETATM   33  H   UNL     1     -43.822  58.616 -60.168  1.00  0.00     0.280 HD
HETATM   34  C   UNL     1     -45.785  57.929 -60.131  1.00  0.00     0.262 C 
HETATM   35  C   UNL     1     -46.606  56.714 -59.634  1.00  0.00     0.260 C 
HETATM   36  N   UNL     1     -45.893  55.413 -59.946  1.00  0.00    -0.072 N 
HETATM   37  H   UNL     1     -45.948  55.208 -60.958  1.00  0.00     0.277 HD
HETATM   38  H   UNL     1     -46.427  54.639 -59.512  1.00  0.00     0.277 HD
HETATM   39  C   UNL     1     -44.465  55.349 -59.466  1.00  0.00     0.260 C 
HETATM   40  C   UNL     1     -43.647  56.562 -59.976  1.00  0.00     0.262 C 
ENDBRANCH  31  32
ENDBRANCH  30  31
ENDBRANCH   3  30
TORSDOF 10
ENDMDL
MODEL 5
REMARK VINA RESULT:      -7.0      2.551      5.334
REMARK  10 active torsions:
REMARK  status: ('A' for Active; 'I' for Inactive)
REMARK    1  A    between atoms: C_2  and  O_3 
REMARK    2  A    between atoms: O_3  and  C_4 
REMARK    3  A    between atoms: C_7  and  C_8 
REMARK    4  A    between atoms: C_8  and  C_9 
REMARK    5  A    between atoms: C_10  and  C_11 
REMARK    6  A    between atoms: C_13  and  N_14 
REMARK    7  A    between atoms: N_20  and  C_21 
REMARK    8  A    between atoms: C_21  and  C_22 
REMARK    9  A    between atoms: C_22  and  N_23 
REMARK   10  A    between atoms: C_34  and  O_35 
ROOT
HETATM    1  C   UNL     1     -42.085  58.413 -53.655  1.00  0.00     0.059 C 
HETATM    2  C   UNL     1     -43.109  58.223 -54.721  1.00  0.00     0.161 C 
HETATM    3  N   UNL     1     -44.089  59.229 -54.347  1.00  0.00    -0.332 N 
HETATM    4  C   UNL     1     -43.829  59.722 -53.077  1.00  0.00     0.278 C 
HETATM    5  O   UNL     1     -44.670  60.250 -52.366  1.00  0.00    -0.265 OA
HETATM    6  C   UNL     1     -42.454  59.301 -52.722  1.00  0.00     0.146 C 
ENDROOT
BRANCH   1   7
HETATM    7  C   UNL     1     -40.889  57.573 -53.464  1.00  0.00     0.193 C 
HETATM    8  O   UNL     1     -39.855  58.033 -53.004  1.00  0.00    -0.287 OA
BRANCH   7   9
HETATM    9  C   UNL     1     -41.094  56.125 -53.643  1.00  0.00     0.015 A 
HETATM   10  C   UNL     1     -41.797  55.373 -52.703  1.00  0.00     0.018 A 
HETATM   11  C   UNL     1     -41.784  53.977 -52.792  1.00  0.00     0.038 A 
HETATM   12  C   UNL     1     -41.077  53.348 -53.821  1.00  0.00     0.069 A 
HETATM   13  C   UNL     1     -40.450  54.118 -54.805  1.00  0.00     0.038 A 
HETATM   14  C   UNL     1     -40.446  55.509 -54.716  1.00  0.00     0.018 A 
BRANCH  12  15
HETATM   15  O   UNL     1     -40.970  52.000 -53.998  1.00  0.00    -0.347 OA
BRANCH  15  16
HETATM   16  C   UNL     1     -39.684  51.394 -53.805  1.00  0.00     0.120 C 
HETATM   17  C   UNL     1     -39.677  49.986 -54.400  1.00  0.00     0.040 C 
HETATM   18  C   UNL     1     -39.458  51.323 -52.297  1.00  0.00     0.040 C 
ENDBRANCH  15  16
ENDBRANCH  12  15
ENDBRANCH   7   9
ENDBRANCH   1   7
BRANCH   2  19
HETATM   19  C   UNL     1     -42.679  58.366 -56.161  1.00  0.00    -0.028 A 
HETATM   20  C   UNL     1     -42.872  57.276 -57.029  1.00  0.00     0.045 A 
HETATM   21  C   UNL     1     -42.546  57.380 -58.389  1.00  0.00     0.103 A 
HETATM   22  C   UNL     1     -41.999  58.556 -58.902  1.00  0.00     0.036 A 
HETATM   23  C   UNL     1     -41.798  59.639 -58.044  1.00  0.00     0.003 A 
HETATM   24  C   UNL     1     -42.146  59.551 -56.688  1.00  0.00     0.010 A 
BRANCH  21  25
HETATM   25  N   UNL     1     -42.829  56.244 -59.273  1.00  0.00    -0.116 N 
HETATM   26  O   UNL     1     -43.670  55.421 -58.871  1.00  0.00    -0.532 OA
HETATM   27  O   UNL     1     -42.233  56.186 -60.352  1.00  0.00    -0.532 OA
ENDBRANCH  21  25
ENDBRANCH   2  19
BRANCH   6  28
HETATM   28  O   UNL     1     -41.822  59.630 -51.560  1.00  0.00    -0.355 OA
HETATM   29  H   UNL     1     -41.015  59.069 -51.482  1.00  0.00     0.218 HD
ENDBRANCH   6  28
BRANCH   3  30
HETATM   30  C   UNL     1     -45.416  59.323 -54.928  1.00  0.00     0.155 C 
BRANCH  30  31
HETATM   31  C   UNL     1     -45.587  60.604 -55.764  1.00  0.00     0.254 C 
BRANCH  31  32
HETATM   32  N   UNL     1     -46.741  60.509 -56.759  1.00  0.00    -0.066 N 
HETATM   33  H   UNL     1     -47.596  60.416 -56.184  1.00  0.00     0.280 HD
HETATM   34  C   UNL     1     -46.699  59.259 -57.661  1.00  0.00     0.262 C 
HETATM   35  C   UNL     1     -45.637  59.383 -58.782  1.00  0.00     0.260 C 
HETATM   36  N   UNL     1     -45.809  60.679 -59.551  1.00  0.00    -0.072 N 
HETATM   37  H   UNL     1     -46.643  60.626 -60.160  1.00  0.00     0.277 HD
HETATM   38  H   UNL     1     -45.024  60.763 -60.221  1.00  0.00     0.277 HD
HETATM   39  C   UNL     1     -45.854  61.917 -58.692  1.00  0.00     0.260 C 
HETATM   40  C   UNL     1     -46.924  61.790 -57.579  1.00  0.00     0.262 C 
ENDBRANCH  31  32
ENDBRANCH  30  31
ENDBRANCH   3  30
TORSDOF 10
ENDMDL
MODEL 6
REMARK VINA RESULT:      -6.9     17.535     20.381
REMARK  10 active torsions:
REMARK  status: ('A' for Active; 'I' for Inactive)
REMARK    1  A    between atoms: C_2  and  O_3 
REMARK    2  A    between atoms: O_3  and  C_4 
REMARK    3  A    between atoms: C_7  and  C_8 
REMARK    4  A    between atoms: C_8  and  C_9 
REMARK    5  A    between atoms: C_10  and  C_11 
REMARK    6  A    between atoms: C_13  and  N_14 
REMARK    7  A    between atoms: N_20  and  C_21 
REMARK    8  A    between atoms: C_21  and  C_22 
REMARK    9  A    between atoms: C_22  and  N_23 
REMARK   10  A    between atoms: C_34  and  O_35 
ROOT
HETATM    1  C   UNL     1     -36.406  40.732 -52.888  1.00  0.00     0.059 C 
HETATM    2  C   UNL     1     -35.338  39.727 -52.620  1.00  0.00     0.161 C 
HETATM    3  N   UNL     1     -36.045  38.796 -51.755  1.00  0.00    -0.332 N 
HETATM    4  C   UNL     1     -37.249  39.336 -51.329  1.00  0.00     0.278 C 
HETATM    5  O   UNL     1     -37.837  38.977 -50.320  1.00  0.00    -0.265 OA
HETATM    6  C   UNL     1     -37.529  40.507 -52.193  1.00  0.00     0.146 C 
ENDROOT
BRANCH   1   7
HETATM    7  C   UNL     1     -36.223  41.989 -53.637  1.00  0.00     0.193 C 
HETATM    8  O   UNL     1     -35.719  42.972 -53.116  1.00  0.00    -0.287 OA
BRANCH   7   9
HETATM    9  C   UNL     1     -36.469  41.906 -55.087  1.00  0.00     0.015 A 
HETATM   10  C   UNL     1     -37.702  41.491 -55.588  1.00  0.00     0.018 A 
HETATM   11  C   UNL     1     -37.829  41.214 -56.954  1.00  0.00     0.038 A 
HETATM   12  C   UNL     1     -36.730  41.361 -57.803  1.00  0.00     0.069 A 
HETATM   13  C   UNL     1     -35.525  41.862 -57.300  1.00  0.00     0.038 A 
HETATM   14  C   UNL     1     -35.385  42.126 -55.939  1.00  0.00     0.018 A 
BRANCH  12  15
HETATM   15  O   UNL     1     -36.724  41.100 -59.142  1.00  0.00    -0.347 OA
BRANCH  15  16
HETATM   16  C   UNL     1     -37.103  39.787 -59.576  1.00  0.00     0.120 C 
HETATM   17  C   UNL     1     -35.987  38.791 -59.260  1.00  0.00     0.040 C 
HETATM   18  C   UNL     1     -37.314  39.870 -61.085  1.00  0.00     0.040 C 
ENDBRANCH  15  16
ENDBRANCH  12  15
ENDBRANCH   7   9
ENDBRANCH   1   7
BRANCH   2  19
HETATM   19  C   UNL     1     -34.702  39.027 -53.797  1.00  0.00    -0.028 A 
HETATM   20  C   UNL     1     -33.415  39.428 -54.198  1.00  0.00     0.045 A 
HETATM   21  C   UNL     1     -32.755  38.769 -55.246  1.00  0.00     0.103 A 
HETATM   22  C   UNL     1     -33.374  37.722 -55.929  1.00  0.00     0.036 A 
HETATM   23  C   UNL     1     -34.655  37.325 -55.541  1.00  0.00     0.003 A 
HETATM   24  C   UNL     1     -35.310  37.962 -54.477  1.00  0.00     0.010 A 
BRANCH  21  25
HETATM   25  N   UNL     1     -31.386  39.172 -55.584  1.00  0.00    -0.116 N 
HETATM   26  O   UNL     1     -31.243  40.309 -56.066  1.00  0.00    -0.532 OA
HETATM   27  O   UNL     1     -30.474  38.373 -55.358  1.00  0.00    -0.532 OA
ENDBRANCH  21  25
ENDBRANCH   2  19
BRANCH   6  28
HETATM   28  O   UNL     1     -38.648  41.279 -52.106  1.00  0.00    -0.355 OA
HETATM   29  H   UNL     1     -39.021  41.380 -53.013  1.00  0.00     0.218 HD
ENDBRANCH   6  28
BRANCH   3  30
HETATM   30  C   UNL     1     -35.398  37.732 -51.011  1.00  0.00     0.155 C 
BRANCH  30  31
HETATM   31  C   UNL     1     -34.616  38.272 -49.800  1.00  0.00     0.254 C 
BRANCH  31  32
HETATM   32  N   UNL     1     -33.189  37.733 -49.729  1.00  0.00    -0.066 N 
HETATM   33  H   UNL     1     -33.280  36.703 -49.772  1.00  0.00     0.280 HD
HETATM   34  C   UNL     1     -32.460  38.041 -48.406  1.00  0.00     0.262 C 
HETATM   35  C   UNL     1     -31.992  39.515 -48.325  1.00  0.00     0.260 C 
HETATM   36  N   UNL     1     -31.196  39.898 -49.558  1.00  0.00    -0.072 N 
HETATM   37  H   UNL     1     -30.261  39.458 -49.532  1.00  0.00     0.277 HD
HETATM   38  H   UNL     1     -30.989  40.912 -49.506  1.00  0.00     0.277 HD
HETATM   39  C   UNL     1     -31.887  39.608 -50.866  1.00  0.00     0.260 C 
HETATM   40  C   UNL     1     -32.344  38.130 -50.943  1.00  0.00     0.262 C 
ENDBRANCH  31  32
ENDBRANCH  30  31
ENDBRANCH   3  30
TORSDOF 10
ENDMDL
MODEL 7
REMARK VINA RESULT:      -6.8      1.273      1.809
REMARK  10 active torsions:
REMARK  status: ('A' for Active; 'I' for Inactive)
REMARK    1  A    between atoms: C_2  and  O_3 
REMARK    2  A    between atoms: O_3  and  C_4 
REMARK    3  A    between atoms: C_7  and  C_8 
REMARK    4  A    between atoms: C_8  and  C_9 
REMARK    5  A    between atoms: C_10  and  C_11 
REMARK    6  A    between atoms: C_13  and  N_14 
REMARK    7  A    between atoms: N_20  and  C_21 
REMARK    8  A    between atoms: C_21  and  C_22 
REMARK    9  A    between atoms: C_22  and  N_23 
REMARK   10  A    between atoms: C_34  and  O_35 
ROOT
HETATM    1  C   UNL     1     -43.456  57.469 -56.230  1.00  0.00     0.059 C 
HETATM    2  C   UNL     1     -42.742  58.557 -55.504  1.00  0.00     0.161 C 
HETATM    3  N   UNL     1     -43.583  59.700 -55.820  1.00  0.00    -0.332 N 
HETATM    4  C   UNL     1     -44.478  59.387 -56.833  1.00  0.00     0.278 C 
HETATM    5  O   UNL     1     -45.004  60.218 -57.557  1.00  0.00    -0.265 OA
HETATM    6  C   UNL     1     -44.484  57.912 -56.966  1.00  0.00     0.146 C 
ENDROOT
BRANCH   1   7
HETATM    7  C   UNL     1     -42.985  56.077 -56.355  1.00  0.00     0.193 C 
HETATM    8  O   UNL     1     -42.846  55.548 -57.448  1.00  0.00    -0.287 OA
BRANCH   7   9
HETATM    9  C   UNL     1     -42.483  55.462 -55.114  1.00  0.00     0.015 A 
HETATM   10  C   UNL     1     -41.120  55.249 -54.912  1.00  0.00     0.018 A 
HETATM   11  C   UNL     1     -40.701  54.469 -53.829  1.00  0.00     0.038 A 
HETATM   12  C   UNL     1     -41.643  53.919 -52.956  1.00  0.00     0.069 A 
HETATM   13  C   UNL     1     -42.999  54.215 -53.121  1.00  0.00     0.038 A 
HETATM   14  C   UNL     1     -43.428  54.978 -54.206  1.00  0.00     0.018 A 
BRANCH  12  15
HETATM   15  O   UNL     1     -41.359  53.125 -51.883  1.00  0.00    -0.347 OA
BRANCH  15  16
HETATM   16  C   UNL     1     -39.987  52.980 -51.495  1.00  0.00     0.120 C 
HETATM   17  C   UNL     1     -39.658  51.502 -51.284  1.00  0.00     0.040 C 
HETATM   18  C   UNL     1     -39.820  53.743 -50.184  1.00  0.00     0.040 C 
ENDBRANCH  15  16
ENDBRANCH  12  15
ENDBRANCH   7   9
ENDBRANCH   1   7
BRANCH   2  19
HETATM   19  C   UNL     1     -42.534  58.408 -54.016  1.00  0.00    -0.028 A 
HETATM   20  C   UNL     1     -43.640  58.069 -53.216  1.00  0.00     0.045 A 
HETATM   21  C   UNL     1     -43.487  57.859 -51.837  1.00  0.00     0.103 A 
HETATM   22  C   UNL     1     -42.241  58.010 -51.229  1.00  0.00     0.036 A 
HETATM   23  C   UNL     1     -41.141  58.354 -52.017  1.00  0.00     0.003 A 
HETATM   24  C   UNL     1     -41.281  58.540 -53.399  1.00  0.00     0.010 A 
BRANCH  21  25
HETATM   25  N   UNL     1     -44.652  57.438 -51.053  1.00  0.00    -0.116 N 
HETATM   26  O   UNL     1     -45.595  58.245 -50.977  1.00  0.00    -0.532 OA
HETATM   27  O   UNL     1     -44.630  56.317 -50.538  1.00  0.00    -0.532 OA
ENDBRANCH  21  25
ENDBRANCH   2  19
BRANCH   6  28
HETATM   28  O   UNL     1     -45.272  57.219 -57.836  1.00  0.00    -0.355 OA
HETATM   29  H   UNL     1     -44.939  57.386 -58.748  1.00  0.00     0.218 HD
ENDBRANCH   6  28
BRANCH   3  30
HETATM   30  C   UNL     1     -43.215  61.076 -55.547  1.00  0.00     0.155 C 
BRANCH  30  31
HETATM   31  C   UNL     1     -44.118  61.709 -54.472  1.00  0.00     0.254 C 
BRANCH  31  32
HETATM   32  N   UNL     1     -43.325  62.426 -53.382  1.00  0.00    -0.066 N 
HETATM   33  H   UNL     1     -42.383  62.580 -53.781  1.00  0.00     0.280 HD
HETATM   34  C   UNL     1     -43.113  61.593 -52.102  1.00  0.00     0.262 C 
HETATM   35  C   UNL     1     -44.393  61.519 -51.233  1.00  0.00     0.260 C 
HETATM   36  N   UNL     1     -44.948  62.904 -50.969  1.00  0.00    -0.072 N 
HETATM   37  H   UNL     1     -44.352  63.405 -50.288  1.00  0.00     0.277 HD
HETATM   38  H   UNL     1     -45.851  62.801 -50.471  1.00  0.00     0.277 HD
HETATM   39  C   UNL     1     -45.166  63.740 -52.205  1.00  0.00     0.260 C 
HETATM   40  C   UNL     1     -43.879  63.817 -53.063  1.00  0.00     0.262 C 
ENDBRANCH  31  32
ENDBRANCH  30  31
ENDBRANCH   3  30
TORSDOF 10
ENDMDL
MODEL 8
REMARK VINA RESULT:      -6.7      2.149      4.231
REMARK  10 active torsions:
REMARK  status: ('A' for Active; 'I' for Inactive)
REMARK    1  A    between atoms: C_2  and  O_3 
REMARK    2  A    between atoms: O_3  and  C_4 
REMARK    3  A    between atoms: C_7  and  C_8 
REMARK    4  A    between atoms: C_8  and  C_9 
REMARK    5  A    between atoms: C_10  and  C_11 
REMARK    6  A    between atoms: C_13  and  N_14 
REMARK    7  A    between atoms: N_20  and  C_21 
REMARK    8  A    between atoms: C_21  and  C_22 
REMARK    9  A    between atoms: C_22  and  N_23 
REMARK   10  A    between atoms: C_34  and  O_35 
ROOT
HETATM    1  C   UNL     1     -43.287  56.620 -53.066  1.00  0.00     0.059 C 
HETATM    2  C   UNL     1     -42.618  57.941 -53.224  1.00  0.00     0.161 C 
HETATM    3  N   UNL     1     -43.173  58.384 -54.493  1.00  0.00    -0.332 N 
HETATM    4  C   UNL     1     -43.828  57.342 -55.133  1.00  0.00     0.278 C 
HETATM    5  O   UNL     1     -44.029  57.302 -56.337  1.00  0.00    -0.265 OA
HETATM    6  C   UNL     1     -44.024  56.271 -54.129  1.00  0.00     0.146 C 
ENDROOT
BRANCH   1   7
HETATM    7  C   UNL     1     -43.016  55.651 -51.987  1.00  0.00     0.193 C 
HETATM    8  O   UNL     1     -43.773  55.529 -51.036  1.00  0.00    -0.287 OA
BRANCH   7   9
HETATM    9  C   UNL     1     -41.920  54.702 -52.248  1.00  0.00     0.015 A 
HETATM   10  C   UNL     1     -41.406  54.525 -53.532  1.00  0.00     0.018 A 
HETATM   11  C   UNL     1     -40.525  53.466 -53.779  1.00  0.00     0.038 A 
HETATM   12  C   UNL     1     -40.162  52.602 -52.743  1.00  0.00     0.069 A 
HETATM   13  C   UNL     1     -40.616  52.845 -51.443  1.00  0.00     0.038 A 
HETATM   14  C   UNL     1     -41.505  53.888 -51.191  1.00  0.00     0.018 A 
BRANCH  12  15
HETATM   15  O   UNL     1     -39.334  51.525 -52.864  1.00  0.00    -0.347 OA
BRANCH  15  16
HETATM   16  C   UNL     1     -39.921  50.254 -53.177  1.00  0.00     0.120 C 
HETATM   17  C   UNL     1     -39.479  49.209 -52.153  1.00  0.00     0.040 C 
HETATM   18  C   UNL     1     -39.416  49.870 -54.565  1.00  0.00     0.040 C 
ENDBRANCH  15  16
ENDBRANCH  12  15
ENDBRANCH   7   9
ENDBRANCH   1   7
BRANCH   2  19
HETATM   19  C   UNL     1     -42.806  58.974 -52.139  1.00  0.00    -0.028 A 
HETATM   20  C   UNL     1     -44.089  59.135 -51.584  1.00  0.00     0.045 A 
HETATM   21  C   UNL     1     -44.303  60.038 -50.531  1.00  0.00     0.103 A 
HETATM   22  C   UNL     1     -43.256  60.812 -50.034  1.00  0.00     0.036 A 
HETATM   23  C   UNL     1     -41.982  60.662 -50.585  1.00  0.00     0.003 A 
HETATM   24  C   UNL     1     -41.755  59.743 -51.620  1.00  0.00     0.010 A 
BRANCH  21  25
HETATM   25  N   UNL     1     -45.641  60.123 -49.935  1.00  0.00    -0.116 N 
HETATM   26  O   UNL     1     -46.172  59.050 -49.602  1.00  0.00    -0.532 OA
HETATM   27  O   UNL     1     -46.140  61.242 -49.790  1.00  0.00    -0.532 OA
ENDBRANCH  21  25
ENDBRANCH   2  19
BRANCH   6  28
HETATM   28  O   UNL     1     -44.670  55.095 -54.372  1.00  0.00    -0.355 OA
HETATM   29  H   UNL     1     -45.587  55.173 -54.020  1.00  0.00     0.218 HD
ENDBRANCH   6  28
BRANCH   3  30
HETATM   30  C   UNL     1     -42.680  59.527 -55.237  1.00  0.00     0.155 C 
BRANCH  30  31
HETATM   31  C   UNL     1     -43.779  60.581 -55.465  1.00  0.00     0.254 C 
BRANCH  31  32
HETATM   32  N   UNL     1     -44.473  60.428 -56.817  1.00  0.00    -0.066 N 
HETATM   33  H   UNL     1     -44.139  59.526 -57.199  1.00  0.00     0.280 HD
HETATM   34  C   UNL     1     -44.082  61.499 -57.854  1.00  0.00     0.262 C 
HETATM   35  C   UNL     1     -44.761  62.862 -57.570  1.00  0.00     0.260 C 
HETATM   36  N   UNL     1     -46.259  62.697 -57.405  1.00  0.00    -0.072 N 
HETATM   37  H   UNL     1     -46.703  62.514 -58.321  1.00  0.00     0.277 HD
HETATM   38  H   UNL     1     -46.655  63.611 -57.122  1.00  0.00     0.277 HD
HETATM   39  C   UNL     1     -46.668  61.655 -56.395  1.00  0.00     0.260 C 
HETATM   40  C   UNL     1     -45.993  60.292 -56.691  1.00  0.00     0.262 C 
ENDBRANCH  31  32
ENDBRANCH  30  31
ENDBRANCH   3  30
TORSDOF 10
ENDMDL
MODEL 9
REMARK VINA RESULT:      -6.7     17.611     20.312
REMARK  10 active torsions:
REMARK  status: ('A' for Active; 'I' for Inactive)
REMARK    1  A    between atoms: C_2  and  O_3 
REMARK    2  A    between atoms: O_3  and  C_4 
REMARK    3  A    between atoms: C_7  and  C_8 
REMARK    4  A    between atoms: C_8  and  C_9 
REMARK    5  A    between atoms: C_10  and  C_11 
REMARK    6  A    between atoms: C_13  and  N_14 
REMARK    7  A    between atoms: N_20  and  C_21 
REMARK    8  A    between atoms: C_21  and  C_22 
REMARK    9  A    between atoms: C_22  and  N_23 
REMARK   10  A    between atoms: C_34  and  O_35 
ROOT
HETATM    1  C   UNL     1     -36.158  40.422 -52.712  1.00  0.00     0.059 C 
HETATM    2  C   UNL     1     -35.068  39.414 -52.842  1.00  0.00     0.161 C 
HETATM    3  N   UNL     1     -35.594  38.330 -52.030  1.00  0.00    -0.332 N 
HETATM    4  C   UNL     1     -36.683  38.757 -51.283  1.00  0.00     0.278 C 
HETATM    5  O   UNL     1     -37.059  38.214 -50.256  1.00  0.00    -0.265 OA
HETATM    6  C   UNL     1     -37.120  40.052 -51.856  1.00  0.00     0.146 C 
ENDROOT
BRANCH   1   7
HETATM    7  C   UNL     1     -36.118  41.794 -53.251  1.00  0.00     0.193 C 
HETATM    8  O   UNL     1     -35.792  42.743 -52.553  1.00  0.00    -0.287 OA
BRANCH   7   9
HETATM    9  C   UNL     1     -36.267  41.906 -54.712  1.00  0.00     0.015 A 
HETATM   10  C   UNL     1     -37.443  41.517 -55.351  1.00  0.00     0.018 A 
HETATM   11  C   UNL     1     -37.470  41.431 -56.747  1.00  0.00     0.038 A 
HETATM   12  C   UNL     1     -36.327  41.740 -57.490  1.00  0.00     0.069 A 
HETATM   13  C   UNL     1     -35.183  42.213 -56.839  1.00  0.00     0.038 A 
HETATM   14  C   UNL     1     -35.143  42.288 -55.449  1.00  0.00     0.018 A 
BRANCH  12  15
HETATM   15  O   UNL     1     -36.223  41.672 -58.848  1.00  0.00    -0.347 OA
BRANCH  15  16
HETATM   16  C   UNL     1     -37.433  41.601 -59.615  1.00  0.00     0.120 C 
HETATM   17  C   UNL     1     -37.439  40.329 -60.462  1.00  0.00     0.040 C 
HETATM   18  C   UNL     1     -37.448  42.829 -60.521  1.00  0.00     0.040 C 
ENDBRANCH  15  16
ENDBRANCH  12  15
ENDBRANCH   7   9
ENDBRANCH   1   7
BRANCH   2  19
HETATM   19  C   UNL     1     -34.689  38.945 -54.226  1.00  0.00    -0.028 A 
HETATM   20  C   UNL     1     -35.682  38.352 -55.027  1.00  0.00     0.045 A 
HETATM   21  C   UNL     1     -35.396  37.956 -56.342  1.00  0.00     0.103 A 
HETATM   22  C   UNL     1     -34.115  38.116 -56.871  1.00  0.00     0.036 A 
HETATM   23  C   UNL     1     -33.124  38.697 -56.078  1.00  0.00     0.003 A 
HETATM   24  C   UNL     1     -33.409  39.119 -54.772  1.00  0.00     0.010 A 
BRANCH  21  25
HETATM   25  N   UNL     1     -36.478  37.407 -57.166  1.00  0.00    -0.116 N 
HETATM   26  O   UNL     1     -36.391  37.588 -58.393  1.00  0.00    -0.532 OA
HETATM   27  O   UNL     1     -37.386  36.794 -56.598  1.00  0.00    -0.532 OA
ENDBRANCH  21  25
ENDBRANCH   2  19
BRANCH   6  28
HETATM   28  O   UNL     1     -38.191  40.768 -51.413  1.00  0.00    -0.355 OA
HETATM   29  H   UNL     1     -38.188  40.744 -50.427  1.00  0.00     0.218 HD
ENDBRANCH   6  28
BRANCH   3  30
HETATM   30  C   UNL     1     -34.821  37.170 -51.627  1.00  0.00     0.155 C 
BRANCH  30  31
HETATM   31  C   UNL     1     -33.603  37.562 -50.771  1.00  0.00     0.254 C 
BRANCH  31  32
HETATM   32  N   UNL     1     -33.966  38.497 -49.619  1.00  0.00    -0.066 N 
HETATM   33  H   UNL     1     -34.969  38.717 -49.747  1.00  0.00     0.280 HD
HETATM   34  C   UNL     1     -33.229  39.850 -49.645  1.00  0.00     0.262 C 
HETATM   35  C   UNL     1     -31.756  39.722 -49.181  1.00  0.00     0.260 C 
HETATM   36  N   UNL     1     -31.669  39.010 -47.845  1.00  0.00    -0.072 N 
HETATM   37  H   UNL     1     -31.996  39.631 -47.086  1.00  0.00     0.277 HD
HETATM   38  H   UNL     1     -30.668  38.861 -47.623  1.00  0.00     0.277 HD
HETATM   39  C   UNL     1     -32.383  37.683 -47.794  1.00  0.00     0.260 C 
HETATM   40  C   UNL     1     -33.857  37.821 -48.250  1.00  0.00     0.262 C 
ENDBRANCH  31  32
ENDBRANCH  30  31
ENDBRANCH   3  30
TORSDOF 10
ENDMDL
MODEL 10
REMARK VINA RESULT:      -6.5      2.024      2.728
REMARK  10 active torsions:
REMARK  status: ('A' for Active; 'I' for Inactive)
REMARK    1  A    between atoms: C_2  and  O_3 
REMARK    2  A    between atoms: O_3  and  C_4 
REMARK    3  A    between atoms: C_7  and  C_8 
REMARK    4  A    between atoms: C_8  and  C_9 
REMARK    5  A    between atoms: C_10  and  C_11 
REMARK    6  A    between atoms: C_13  and  N_14 
REMARK    7  A    between atoms: N_20  and  C_21 
REMARK    8  A    between atoms: C_21  and  C_22 
REMARK    9  A    between atoms: C_22  and  N_23 
REMARK   10  A    between atoms: C_34  and  O_35 
ROOT
HETATM    1  C   UNL     1     -43.283  57.675 -54.100  1.00  0.00     0.059 C 
HETATM    2  C   UNL     1     -43.090  57.812 -52.629  1.00  0.00     0.161 C 
HETATM    3  N   UNL     1     -44.220  58.657 -52.279  1.00  0.00    -0.332 N 
HETATM    4  C   UNL     1     -44.807  59.191 -53.416  1.00  0.00     0.278 C 
HETATM    5  O   UNL     1     -45.482  60.209 -53.420  1.00  0.00    -0.265 OA
HETATM    6  C   UNL     1     -44.290  58.422 -54.572  1.00  0.00     0.146 C 
ENDROOT
BRANCH   1   7
HETATM    7  C   UNL     1     -42.352  56.998 -55.022  1.00  0.00     0.193 C 
HETATM    8  O   UNL     1     -41.799  57.604 -55.927  1.00  0.00    -0.287 OA
BRANCH   7   9
HETATM    9  C   UNL     1     -41.966  55.628 -54.641  1.00  0.00     0.015 A 
HETATM   10  C   UNL     1     -40.658  55.322 -54.269  1.00  0.00     0.018 A 
HETATM   11  C   UNL     1     -40.279  53.983 -54.129  1.00  0.00     0.038 A 
HETATM   12  C   UNL     1     -41.210  52.965 -54.354  1.00  0.00     0.069 A 
HETATM   13  C   UNL     1     -42.539  53.290 -54.641  1.00  0.00     0.038 A 
HETATM   14  C   UNL     1     -42.922  54.621 -54.797  1.00  0.00     0.018 A 
BRANCH  12  15
HETATM   15  O   UNL     1     -40.955  51.627 -54.273  1.00  0.00    -0.347 OA
BRANCH  15  16
HETATM   16  C   UNL     1     -39.648  51.213 -53.851  1.00  0.00     0.120 C 
HETATM   17  C   UNL     1     -39.305  49.859 -54.472  1.00  0.00     0.040 C 
HETATM   18  C   UNL     1     -39.698  51.092 -52.331  1.00  0.00     0.040 C 
ENDBRANCH  15  16
ENDBRANCH  12  15
ENDBRANCH   7   9
ENDBRANCH   1   7
BRANCH   2  19
HETATM   19  C   UNL     1     -43.049  56.556 -51.793  1.00  0.00    -0.028 A 
HETATM   20  C   UNL     1     -41.917  56.324 -50.990  1.00  0.00     0.045 A 
HETATM   21  C   UNL     1     -41.856  55.203 -50.148  1.00  0.00     0.103 A 
HETATM   22  C   UNL     1     -42.904  54.283 -50.111  1.00  0.00     0.036 A 
HETATM   23  C   UNL     1     -44.027  54.504 -50.912  1.00  0.00     0.003 A 
HETATM   24  C   UNL     1     -44.105  55.636 -51.736  1.00  0.00     0.010 A 
BRANCH  21  25
HETATM   25  N   UNL     1     -40.689  55.037 -49.276  1.00  0.00    -0.116 N 
HETATM   26  O   UNL     1     -40.907  55.004 -48.052  1.00  0.00    -0.532 OA
HETATM   27  O   UNL     1     -39.580  54.925 -49.805  1.00  0.00    -0.532 OA
ENDBRANCH  21  25
ENDBRANCH   2  19
BRANCH   6  28
HETATM   28  O   UNL     1     -44.668  58.627 -55.866  1.00  0.00    -0.355 OA
HETATM   29  H   UNL     1     -45.175  57.836 -56.164  1.00  0.00     0.218 HD
ENDBRANCH   6  28
BRANCH   3  30
HETATM   30  C   UNL     1     -44.385  59.292 -50.984  1.00  0.00     0.155 C 
BRANCH  30  31
HETATM   31  C   UNL     1     -43.510  60.550 -50.845  1.00  0.00     0.254 C 
BRANCH  31  32
HETATM   32  N   UNL     1     -44.284  61.840 -51.109  1.00  0.00    -0.066 N 
HETATM   33  H   UNL     1     -44.803  61.677 -51.989  1.00  0.00     0.280 HD
HETATM   34  C   UNL     1     -43.392  63.072 -51.365  1.00  0.00     0.262 C 
HETATM   35  C   UNL     1     -42.765  63.621 -50.060  1.00  0.00     0.260 C 
HETATM   36  N   UNL     1     -43.829  63.852 -49.003  1.00  0.00    -0.072 N 
HETATM   37  H   UNL     1     -44.396  64.683 -49.241  1.00  0.00     0.277 HD
HETATM   38  H   UNL     1     -43.356  64.124 -48.123  1.00  0.00     0.277 HD
HETATM   39  C   UNL     1     -44.715  62.661 -48.734  1.00  0.00     0.260 C 
HETATM   40  C   UNL     1     -45.345  62.124 -50.043  1.00  0.00     0.262 C 
ENDBRANCH  31  32
ENDBRANCH  30  31
ENDBRANCH   3  30
TORSDOF 10
ENDMDL
