MODEL 1
REMARK VINA RESULT:      -8.7      0.000      0.000
REMARK  5 active torsions:
REMARK  status: ('A' for Active; 'I' for Inactive)
REMARK    1  A    between atoms: C_5  and  N_6 
REMARK       I    between atoms: N_6  and  C_7 
REMARK       I    between atoms: C_7  and  N_8 
REMARK    2  A    between atoms: N_8  and  C_9 
REMARK    3  A    between atoms: C_12  and  C_13 
REMARK    4  A    between atoms: C_13  and  C_14 
REMARK       I    between atoms: C_14  and  N_15 
REMARK    5  A    between atoms: N_15  and  C_16 
ROOT
HETATM    1  C   UNL     1     -42.352  57.618 -51.313  1.00  0.00     0.174 A 
HETATM    2  S   UNL     1     -40.964  58.262 -50.571  1.00  0.00    -0.062 SA
HETATM    3  C   UNL     1     -40.971  59.540 -51.719  1.00  0.00     0.081 A 
HETATM    4  C   UNL     1     -42.032  59.389 -52.593  1.00  0.00     0.052 A 
HETATM    5  N   UNL     1     -42.821  58.263 -52.356  1.00  0.00    -0.228 NA
ENDROOT
BRANCH   1   6
HETATM    6  N   UNL     1     -42.858  56.496 -50.731  1.00  0.00    -0.287 N 
HETATM    7  C   UNL     1     -42.515  55.204 -51.030  1.00  0.00     0.326 C 
HETATM    8  N   UNL     1     -41.471  55.033 -51.900  1.00  0.00    -0.309 N 
HETATM    9  O   UNL     1     -43.168  54.307 -50.500  1.00  0.00    -0.247 OA
HETATM   10  H   UNL     1     -40.952  55.879 -52.114  1.00  0.00     0.170 HD
HETATM   11  H   UNL     1     -43.613  56.600 -50.070  1.00  0.00     0.172 HD
BRANCH   8  12
HETATM   12  C   UNL     1     -40.983  53.838 -52.461  1.00  0.00     0.036 A 
HETATM   13  C   UNL     1     -40.124  52.961 -51.801  1.00  0.00     0.030 A 
HETATM   14  C   UNL     1     -39.705  51.778 -52.422  1.00  0.00     0.009 A 
HETATM   15  C   UNL     1     -40.146  51.450 -53.708  1.00  0.00    -0.062 A 
HETATM   16  C   UNL     1     -39.662  50.197 -54.375  1.00  0.00     0.048 C 
HETATM   17  C   UNL     1     -41.002  52.332 -54.373  1.00  0.00     0.009 A 
HETATM   18  C   UNL     1     -41.420  53.514 -53.752  1.00  0.00     0.030 A 
ENDBRANCH   8  12
ENDBRANCH   1   6
BRANCH   4  19
HETATM   19  C   UNL     1     -42.394  60.287 -53.735  1.00  0.00     0.163 C 
BRANCH  19  20
HETATM   20  C   UNL     1     -42.351  59.615 -55.105  1.00  0.00     0.227 C 
HETATM   21  N   UNL     1     -43.247  58.575 -55.271  1.00  0.00    -0.327 N 
HETATM   22  H   UNL     1     -43.930  58.458 -54.524  1.00  0.00     0.169 HD
HETATM   23  O   UNL     1     -41.510  59.969 -55.929  1.00  0.00    -0.273 OA
BRANCH  21  24
HETATM   24  C   UNL     1     -43.370  57.692 -56.361  1.00  0.00     0.036 A 
HETATM   25  C   UNL     1     -43.978  58.025 -57.574  1.00  0.00     0.056 A 
HETATM   26  C   UNL     1     -44.026  57.090 -58.613  1.00  0.00     0.074 A 
HETATM   27 CL   UNL     1     -44.766  57.523 -60.107  1.00  0.00    -0.081 Cl
HETATM   28  C   UNL     1     -43.473  55.824 -58.442  1.00  0.00     0.138 A 
HETATM   29  F   UNL     1     -43.507  54.918 -59.429  1.00  0.00    -0.204 F 
HETATM   30  C   UNL     1     -42.870  55.478 -57.239  1.00  0.00     0.046 A 
HETATM   31  C   UNL     1     -42.820  56.411 -56.201  1.00  0.00     0.032 A 
ENDBRANCH  21  24
ENDBRANCH  19  20
ENDBRANCH   4  19
TORSDOF 5
ENDMDL
MODEL 2
REMARK VINA RESULT:      -8.5      3.606      5.889
REMARK  5 active torsions:
REMARK  status: ('A' for Active; 'I' for Inactive)
REMARK    1  A    between atoms: C_5  and  N_6 
REMARK       I    between atoms: N_6  and  C_7 
REMARK       I    between atoms: C_7  and  N_8 
REMARK    2  A    between atoms: N_8  and  C_9 
REMARK    3  A    between atoms: C_12  and  C_13 
REMARK    4  A    between atoms: C_13  and  C_14 
REMARK       I    between atoms: C_14  and  N_15 
REMARK    5  A    between atoms: N_15  and  C_16 
ROOT
HETATM    1  C   UNL     1     -44.043  58.327 -54.792  1.00  0.00     0.174 A 
HETATM    2  S   UNL     1     -44.349  59.395 -56.079  1.00  0.00    -0.062 SA
HETATM    3  C   UNL     1     -43.781  58.202 -57.175  1.00  0.00     0.081 A 
HETATM    4  C   UNL     1     -43.394  57.066 -56.485  1.00  0.00     0.052 A 
HETATM    5  N   UNL     1     -43.540  57.155 -55.101  1.00  0.00    -0.228 NA
ENDROOT
BRANCH   1   6
HETATM    6  N   UNL     1     -44.376  58.792 -53.556  1.00  0.00    -0.287 N 
HETATM    7  C   UNL     1     -43.954  58.280 -52.358  1.00  0.00     0.326 C 
HETATM    8  N   UNL     1     -43.006  57.293 -52.413  1.00  0.00    -0.309 N 
HETATM    9  O   UNL     1     -44.459  58.740 -51.336  1.00  0.00    -0.247 OA
HETATM   10  H   UNL     1     -42.593  57.150 -53.329  1.00  0.00     0.170 HD
HETATM   11  H   UNL     1     -45.057  59.534 -53.493  1.00  0.00     0.172 HD
BRANCH   8  12
HETATM   12  C   UNL     1     -42.480  56.521 -51.360  1.00  0.00     0.036 A 
HETATM   13  C   UNL     1     -43.113  55.401 -50.824  1.00  0.00     0.030 A 
HETATM   14  C   UNL     1     -42.509  54.673 -49.791  1.00  0.00     0.009 A 
HETATM   15  C   UNL     1     -41.260  55.048 -49.287  1.00  0.00    -0.062 A 
HETATM   16  C   UNL     1     -40.641  54.279 -48.158  1.00  0.00     0.048 C 
HETATM   17  C   UNL     1     -40.629  56.175 -49.820  1.00  0.00     0.009 A 
HETATM   18  C   UNL     1     -41.232  56.902 -50.851  1.00  0.00     0.030 A 
ENDBRANCH   8  12
ENDBRANCH   1   6
BRANCH   4  19
HETATM   19  C   UNL     1     -42.846  55.801 -57.067  1.00  0.00     0.163 C 
BRANCH  19  20
HETATM   20  C   UNL     1     -42.646  54.675 -56.056  1.00  0.00     0.227 C 
HETATM   21  N   UNL     1     -41.412  54.666 -55.432  1.00  0.00    -0.327 N 
HETATM   22  H   UNL     1     -40.825  55.482 -55.603  1.00  0.00     0.169 HD
HETATM   23  O   UNL     1     -43.525  53.828 -55.908  1.00  0.00    -0.273 OA
BRANCH  21  24
HETATM   24  C   UNL     1     -40.885  53.703 -54.550  1.00  0.00     0.036 A 
HETATM   25  C   UNL     1     -40.526  52.407 -54.929  1.00  0.00     0.056 A 
HETATM   26  C   UNL     1     -39.980  51.528 -53.988  1.00  0.00     0.074 A 
HETATM   27 CL   UNL     1     -39.529  49.940 -54.476  1.00  0.00    -0.081 Cl
HETATM   28  C   UNL     1     -39.797  51.939 -52.671  1.00  0.00     0.138 A 
HETATM   29  F   UNL     1     -39.272  51.109 -51.758  1.00  0.00    -0.204 F 
HETATM   30  C   UNL     1     -40.154  53.223 -52.279  1.00  0.00     0.046 A 
HETATM   31  C   UNL     1     -40.698  54.102 -53.218  1.00  0.00     0.032 A 
ENDBRANCH  21  24
ENDBRANCH  19  20
ENDBRANCH   4  19
TORSDOF 5
ENDMDL
MODEL 3
REMARK VINA RESULT:      -8.5      2.992      6.628
REMARK  5 active torsions:
REMARK  status: ('A' for Active; 'I' for Inactive)
REMARK    1  A    between atoms: C_5  and  N_6 
REMARK       I    between atoms: N_6  and  C_7 
REMARK       I    between atoms: C_7  and  N_8 
REMARK    2  A    between atoms: N_8  and  C_9 
REMARK    3  A    between atoms: C_12  and  C_13 
REMARK    4  A    between atoms: C_13  and  C_14 
REMARK       I    between atoms: C_14  and  N_15 
REMARK    5  A    between atoms: N_15  and  C_16 
ROOT
HETATM    1  C   UNL     1     -41.622  58.846 -52.793  1.00  0.00     0.174 A 
HETATM    2  S   UNL     1     -40.428  59.106 -51.610  1.00  0.00    -0.062 SA
HETATM    3  C   UNL     1     -41.146  57.877 -50.648  1.00  0.00     0.081 A 
HETATM    4  C   UNL     1     -42.250  57.350 -51.295  1.00  0.00     0.052 A 
HETATM    5  N   UNL     1     -42.524  57.928 -52.534  1.00  0.00    -0.228 NA
ENDROOT
BRANCH   1   6
HETATM    6  N   UNL     1     -41.508  59.609 -53.915  1.00  0.00    -0.287 N 
HETATM    7  C   UNL     1     -41.913  59.262 -55.176  1.00  0.00     0.326 C 
HETATM    8  N   UNL     1     -42.618  58.093 -55.292  1.00  0.00    -0.309 N 
HETATM    9  O   UNL     1     -41.612  60.018 -56.097  1.00  0.00    -0.247 OA
HETATM   10  H   UNL     1     -42.907  57.681 -54.411  1.00  0.00     0.170 HD
HETATM   11  H   UNL     1     -41.012  60.486 -53.846  1.00  0.00     0.172 HD
BRANCH   8  12
HETATM   12  C   UNL     1     -43.055  57.445 -56.462  1.00  0.00     0.036 A 
HETATM   13  C   UNL     1     -43.840  58.052 -57.442  1.00  0.00     0.030 A 
HETATM   14  C   UNL     1     -44.213  57.344 -58.591  1.00  0.00     0.009 A 
HETATM   15  C   UNL     1     -43.798  56.022 -58.782  1.00  0.00    -0.062 A 
HETATM   16  C   UNL     1     -44.233  55.264 -60.001  1.00  0.00     0.048 C 
HETATM   17  C   UNL     1     -43.017  55.411 -57.797  1.00  0.00     0.009 A 
HETATM   18  C   UNL     1     -42.646  56.119 -56.649  1.00  0.00     0.030 A 
ENDBRANCH   8  12
ENDBRANCH   1   6
BRANCH   4  19
HETATM   19  C   UNL     1     -43.149  56.261 -50.799  1.00  0.00     0.163 C 
BRANCH  19  20
HETATM   20  C   UNL     1     -42.743  54.857 -51.237  1.00  0.00     0.227 C 
HETATM   21  N   UNL     1     -41.448  54.748 -51.713  1.00  0.00    -0.327 N 
HETATM   22  H   UNL     1     -40.863  55.573 -51.591  1.00  0.00     0.169 HD
HETATM   23  O   UNL     1     -43.573  53.949 -51.216  1.00  0.00    -0.273 OA
BRANCH  21  24
HETATM   24  C   UNL     1     -40.822  53.630 -52.294  1.00  0.00     0.036 A 
HETATM   25  C   UNL     1     -40.334  52.540 -51.568  1.00  0.00     0.056 A 
HETATM   26  C   UNL     1     -39.753  51.457 -52.237  1.00  0.00     0.074 A 
HETATM   27 CL   UNL     1     -39.171  50.115 -51.328  1.00  0.00    -0.081 Cl
HETATM   28  C   UNL     1     -39.655  51.463 -53.626  1.00  0.00     0.138 A 
HETATM   29  F   UNL     1     -39.104  50.431 -54.281  1.00  0.00    -0.204 F 
HETATM   30  C   UNL     1     -40.131  52.542 -54.359  1.00  0.00     0.046 A 
HETATM   31  C   UNL     1     -40.713  53.623 -53.693  1.00  0.00     0.032 A 
ENDBRANCH  21  24
ENDBRANCH  19  20
ENDBRANCH   4  19
TORSDOF 5
ENDMDL
MODEL 4
REMARK VINA RESULT:      -8.4      3.665      5.598
REMARK  5 active torsions:
REMARK  status: ('A' for Active; 'I' for Inactive)
REMARK    1  A    between atoms: C_5  and  N_6 
REMARK       I    between atoms: N_6  and  C_7 
REMARK       I    between atoms: C_7  and  N_8 
REMARK    2  A    between atoms: N_8  and  C_9 
REMARK    3  A    between atoms: C_12  and  C_13 
REMARK    4  A    between atoms: C_13  and  C_14 
REMARK       I    between atoms: C_14  and  N_15 
REMARK    5  A    between atoms: N_15  and  C_16 
ROOT
HETATM    1  C   UNL     1     -44.046  58.898 -55.346  1.00  0.00     0.174 A 
HETATM    2  S   UNL     1     -43.775  60.562 -55.571  1.00  0.00    -0.062 SA
HETATM    3  C   UNL     1     -44.178  60.827 -53.922  1.00  0.00     0.081 A 
HETATM    4  C   UNL     1     -44.493  59.627 -53.310  1.00  0.00     0.052 A 
HETATM    5  N   UNL     1     -44.425  58.515 -54.150  1.00  0.00    -0.228 NA
ENDROOT
BRANCH   1   6
HETATM    6  N   UNL     1     -43.819  58.117 -56.438  1.00  0.00    -0.287 N 
HETATM    7  C   UNL     1     -43.169  56.912 -56.451  1.00  0.00     0.326 C 
HETATM    8  N   UNL     1     -42.835  56.383 -55.232  1.00  0.00    -0.309 N 
HETATM    9  O   UNL     1     -42.935  56.405 -57.547  1.00  0.00    -0.247 OA
HETATM   10  H   UNL     1     -43.243  56.860 -54.435  1.00  0.00     0.170 HD
HETATM   11  H   UNL     1     -44.078  58.478 -57.345  1.00  0.00     0.172 HD
BRANCH   8  12
HETATM   12  C   UNL     1     -42.076  55.231 -54.954  1.00  0.00     0.036 A 
HETATM   13  C   UNL     1     -40.732  55.254 -54.583  1.00  0.00     0.030 A 
HETATM   14  C   UNL     1     -40.055  54.062 -54.298  1.00  0.00     0.009 A 
HETATM   15  C   UNL     1     -40.714  52.830 -54.371  1.00  0.00    -0.062 A 
HETATM   16  C   UNL     1     -39.968  51.558 -54.097  1.00  0.00     0.048 C 
HETATM   17  C   UNL     1     -42.059  52.807 -54.750  1.00  0.00     0.009 A 
HETATM   18  C   UNL     1     -42.735  53.998 -55.034  1.00  0.00     0.030 A 
ENDBRANCH   8  12
ENDBRANCH   1   6
BRANCH   4  19
HETATM   19  C   UNL     1     -44.895  59.422 -51.883  1.00  0.00     0.163 C 
BRANCH  19  20
HETATM   20  C   UNL     1     -44.527  58.055 -51.313  1.00  0.00     0.227 C 
HETATM   21  N   UNL     1     -43.263  57.605 -51.652  1.00  0.00    -0.327 N 
HETATM   22  H   UNL     1     -42.665  58.283 -52.123  1.00  0.00     0.169 HD
HETATM   23  O   UNL     1     -45.361  57.419 -50.670  1.00  0.00    -0.273 OA
BRANCH  21  24
HETATM   24  C   UNL     1     -42.681  56.351 -51.385  1.00  0.00     0.036 A 
HETATM   25  C   UNL     1     -41.415  56.180 -50.818  1.00  0.00     0.056 A 
HETATM   26  C   UNL     1     -40.932  54.893 -50.560  1.00  0.00     0.074 A 
HETATM   27 CL   UNL     1     -39.376  54.701 -49.847  1.00  0.00    -0.081 Cl
HETATM   28  C   UNL     1     -41.707  53.779 -50.872  1.00  0.00     0.138 A 
HETATM   29  F   UNL     1     -41.259  52.539 -50.628  1.00  0.00    -0.204 F 
HETATM   30  C   UNL     1     -42.964  53.935 -51.441  1.00  0.00     0.046 A 
HETATM   31  C   UNL     1     -43.449  55.219 -51.697  1.00  0.00     0.032 A 
ENDBRANCH  21  24
ENDBRANCH  19  20
ENDBRANCH   4  19
TORSDOF 5
ENDMDL
MODEL 5
REMARK VINA RESULT:      -8.3      3.976      6.044
REMARK  5 active torsions:
REMARK  status: ('A' for Active; 'I' for Inactive)
REMARK    1  A    between atoms: C_5  and  N_6 
REMARK       I    between atoms: N_6  and  C_7 
REMARK       I    between atoms: C_7  and  N_8 
REMARK    2  A    between atoms: N_8  and  C_9 
REMARK    3  A    between atoms: C_12  and  C_13 
REMARK    4  A    between atoms: C_13  and  C_14 
REMARK       I    between atoms: C_14  and  N_15 
REMARK    5  A    between atoms: N_15  and  C_16 
ROOT
HETATM    1  C   UNL     1     -42.740  59.342 -54.629  1.00  0.00     0.174 A 
HETATM    2  S   UNL     1     -43.179  60.982 -54.723  1.00  0.00    -0.062 SA
HETATM    3  C   UNL     1     -42.896  61.131 -53.035  1.00  0.00     0.081 A 
HETATM    4  C   UNL     1     -42.485  59.918 -52.513  1.00  0.00     0.052 A 
HETATM    5  N   UNL     1     -42.409  58.883 -53.445  1.00  0.00    -0.228 NA
ENDROOT
BRANCH   1   6
HETATM    6  N   UNL     1     -42.753  58.666 -55.811  1.00  0.00    -0.287 N 
HETATM    7  C   UNL     1     -42.443  57.345 -55.992  1.00  0.00     0.326 C 
HETATM    8  N   UNL     1     -42.229  56.605 -54.858  1.00  0.00    -0.309 N 
HETATM    9  O   UNL     1     -42.379  56.930 -57.147  1.00  0.00    -0.247 OA
HETATM   10  H   UNL     1     -42.478  57.072 -53.992  1.00  0.00     0.170 HD
HETATM   11  H   UNL     1     -42.931  59.187 -56.657  1.00  0.00     0.172 HD
BRANCH   8  12
HETATM   12  C   UNL     1     -41.793  55.271 -54.750  1.00  0.00     0.036 A 
HETATM   13  C   UNL     1     -42.650  54.174 -54.687  1.00  0.00     0.030 A 
HETATM   14  C   UNL     1     -42.134  52.875 -54.605  1.00  0.00     0.009 A 
HETATM   15  C   UNL     1     -40.753  52.653 -54.596  1.00  0.00    -0.062 A 
HETATM   16  C   UNL     1     -40.214  51.260 -54.474  1.00  0.00     0.048 C 
HETATM   17  C   UNL     1     -39.894  53.754 -54.652  1.00  0.00     0.009 A 
HETATM   18  C   UNL     1     -40.410  55.051 -54.733  1.00  0.00     0.030 A 
ENDBRANCH   8  12
ENDBRANCH   1   6
BRANCH   4  19
HETATM   19  C   UNL     1     -42.134  59.623 -51.087  1.00  0.00     0.163 C 
BRANCH  19  20
HETATM   20  C   UNL     1     -41.312  58.353 -50.889  1.00  0.00     0.227 C 
HETATM   21  N   UNL     1     -42.055  57.207 -50.673  1.00  0.00    -0.327 N 
HETATM   22  H   UNL     1     -43.061  57.301 -50.809  1.00  0.00     0.169 HD
HETATM   23  O   UNL     1     -40.084  58.423 -50.858  1.00  0.00    -0.273 OA
BRANCH  21  24
HETATM   24  C   UNL     1     -41.597  55.917 -50.344  1.00  0.00     0.036 A 
HETATM   25  C   UNL     1     -41.123  55.553 -49.081  1.00  0.00     0.056 A 
HETATM   26  C   UNL     1     -40.718  54.236 -48.837  1.00  0.00     0.074 A 
HETATM   27 CL   UNL     1     -40.151  53.801 -47.271  1.00  0.00    -0.081 Cl
HETATM   28  C   UNL     1     -40.780  53.286 -49.853  1.00  0.00     0.138 A 
HETATM   29  F   UNL     1     -40.398  52.019 -49.635  1.00  0.00    -0.204 F 
HETATM   30  C   UNL     1     -41.244  53.636 -51.115  1.00  0.00     0.046 A 
HETATM   31  C   UNL     1     -41.651  54.949 -51.359  1.00  0.00     0.032 A 
ENDBRANCH  21  24
ENDBRANCH  19  20
ENDBRANCH   4  19
TORSDOF 5
ENDMDL
MODEL 6
REMARK VINA RESULT:      -8.2      1.453      1.738
REMARK  5 active torsions:
REMARK  status: ('A' for Active; 'I' for Inactive)
REMARK    1  A    between atoms: C_5  and  N_6 
REMARK       I    between atoms: N_6  and  C_7 
REMARK       I    between atoms: C_7  and  N_8 
REMARK    2  A    between atoms: N_8  and  C_9 
REMARK    3  A    between atoms: C_12  and  C_13 
REMARK    4  A    between atoms: C_13  and  C_14 
REMARK       I    between atoms: C_14  and  N_15 
REMARK    5  A    between atoms: N_15  and  C_16 
ROOT
HETATM    1  C   UNL     1     -43.137  57.182 -52.544  1.00  0.00     0.174 A 
HETATM    2  S   UNL     1     -42.729  58.442 -51.478  1.00  0.00    -0.062 SA
HETATM    3  C   UNL     1     -42.254  59.397 -52.824  1.00  0.00     0.081 A 
HETATM    4  C   UNL     1     -42.439  58.689 -53.999  1.00  0.00     0.052 A 
HETATM    5  N   UNL     1     -42.941  57.400 -53.823  1.00  0.00    -0.228 NA
ENDROOT
BRANCH   1   6
HETATM    6  N   UNL     1     -43.655  56.066 -51.959  1.00  0.00    -0.287 N 
HETATM    7  C   UNL     1     -43.134  54.801 -52.025  1.00  0.00     0.326 C 
HETATM    8  N   UNL     1     -41.909  54.674 -52.624  1.00  0.00    -0.309 N 
HETATM    9  O   UNL     1     -43.804  53.887 -51.548  1.00  0.00    -0.247 OA
HETATM   10  H   UNL     1     -41.436  55.551 -52.818  1.00  0.00     0.170 HD
HETATM   11  H   UNL     1     -44.546  56.142 -51.492  1.00  0.00     0.172 HD
BRANCH   8  12
HETATM   12  C   UNL     1     -41.198  53.497 -52.925  1.00  0.00     0.036 A 
HETATM   13  C   UNL     1     -40.297  52.887 -52.054  1.00  0.00     0.030 A 
HETATM   14  C   UNL     1     -39.649  51.701 -52.421  1.00  0.00     0.009 A 
HETATM   15  C   UNL     1     -39.898  51.104 -53.661  1.00  0.00    -0.062 A 
HETATM   16  C   UNL     1     -39.170  49.854 -54.056  1.00  0.00     0.048 C 
HETATM   17  C   UNL     1     -40.795  51.720 -54.538  1.00  0.00     0.009 A 
HETATM   18  C   UNL     1     -41.443  52.904 -54.170  1.00  0.00     0.030 A 
ENDBRANCH   8  12
ENDBRANCH   1   6
BRANCH   4  19
HETATM   19  C   UNL     1     -42.152  59.161 -55.390  1.00  0.00     0.163 C 
BRANCH  19  20
HETATM   20  C   UNL     1     -43.207  58.771 -56.420  1.00  0.00     0.227 C 
HETATM   21  N   UNL     1     -42.994  57.552 -57.039  1.00  0.00    -0.327 N 
HETATM   22  H   UNL     1     -42.244  56.985 -56.647  1.00  0.00     0.169 HD
HETATM   23  O   UNL     1     -44.114  59.558 -56.690  1.00  0.00    -0.273 OA
BRANCH  21  24
HETATM   24  C   UNL     1     -43.712  56.974 -58.103  1.00  0.00     0.036 A 
HETATM   25  C   UNL     1     -44.937  57.455 -58.574  1.00  0.00     0.056 A 
HETATM   26  C   UNL     1     -45.563  56.833 -59.659  1.00  0.00     0.074 A 
HETATM   27 CL   UNL     1     -47.064  57.447 -60.237  1.00  0.00    -0.081 Cl
HETATM   28  C   UNL     1     -44.971  55.730 -60.270  1.00  0.00     0.138 A 
HETATM   29  F   UNL     1     -45.557  55.124 -61.312  1.00  0.00    -0.204 F 
HETATM   30  C   UNL     1     -43.757  55.238 -59.808  1.00  0.00     0.046 A 
HETATM   31  C   UNL     1     -43.130  55.860 -58.726  1.00  0.00     0.032 A 
ENDBRANCH  21  24
ENDBRANCH  19  20
ENDBRANCH   4  19
TORSDOF 5
ENDMDL
MODEL 7
REMARK VINA RESULT:      -7.8      3.719      5.645
REMARK  5 active torsions:
REMARK  status: ('A' for Active; 'I' for Inactive)
REMARK    1  A    between atoms: C_5  and  N_6 
REMARK       I    between atoms: N_6  and  C_7 
REMARK       I    between atoms: C_7  and  N_8 
REMARK    2  A    between atoms: N_8  and  C_9 
REMARK    3  A    between atoms: C_12  and  C_13 
REMARK    4  A    between atoms: C_13  and  C_14 
REMARK       I    between atoms: C_14  and  N_15 
REMARK    5  A    between atoms: N_15  and  C_16 
ROOT
HETATM    1  C   UNL     1     -44.317  58.564 -56.886  1.00  0.00     0.174 A 
HETATM    2  S   UNL     1     -45.790  59.319 -57.277  1.00  0.00    -0.062 SA
HETATM    3  C   UNL     1     -45.593  60.355 -55.922  1.00  0.00     0.081 A 
HETATM    4  C   UNL     1     -44.415  60.055 -55.260  1.00  0.00     0.052 A 
HETATM    5  N   UNL     1     -43.689  59.005 -55.822  1.00  0.00    -0.228 NA
ENDROOT
BRANCH   1   6
HETATM    6  N   UNL     1     -43.922  57.578 -57.739  1.00  0.00    -0.287 N 
HETATM    7  C   UNL     1     -43.256  56.432 -57.398  1.00  0.00     0.326 C 
HETATM    8  N   UNL     1     -43.092  56.193 -56.059  1.00  0.00    -0.309 N 
HETATM    9  O   UNL     1     -42.858  55.714 -58.314  1.00  0.00    -0.247 OA
HETATM   10  H   UNL     1     -43.619  56.810 -55.449  1.00  0.00     0.170 HD
HETATM   11  H   UNL     1     -44.054  57.724 -58.729  1.00  0.00     0.172 HD
BRANCH   8  12
HETATM   12  C   UNL     1     -42.361  55.166 -55.434  1.00  0.00     0.036 A 
HETATM   13  C   UNL     1     -42.880  53.904 -55.147  1.00  0.00     0.030 A 
HETATM   14  C   UNL     1     -42.078  52.928 -54.545  1.00  0.00     0.009 A 
HETATM   15  C   UNL     1     -40.741  53.194 -54.230  1.00  0.00    -0.062 A 
HETATM   16  C   UNL     1     -39.903  52.151 -53.554  1.00  0.00     0.048 C 
HETATM   17  C   UNL     1     -40.223  54.461 -54.512  1.00  0.00     0.009 A 
HETATM   18  C   UNL     1     -41.025  55.437 -55.113  1.00  0.00     0.030 A 
ENDBRANCH   8  12
ENDBRANCH   1   6
BRANCH   4  19
HETATM   19  C   UNL     1     -43.873  60.725 -54.036  1.00  0.00     0.163 C 
BRANCH  19  20
HETATM   20  C   UNL     1     -43.665  59.793 -52.846  1.00  0.00     0.227 C 
HETATM   21  N   UNL     1     -42.795  58.742 -53.075  1.00  0.00    -0.327 N 
HETATM   22  H   UNL     1     -42.281  58.779 -53.954  1.00  0.00     0.169 HD
HETATM   23  O   UNL     1     -44.309  59.972 -51.813  1.00  0.00    -0.273 OA
BRANCH  21  24
HETATM   24  C   UNL     1     -42.489  57.660 -52.228  1.00  0.00     0.036 A 
HETATM   25  C   UNL     1     -43.173  56.441 -52.237  1.00  0.00     0.056 A 
HETATM   26  C   UNL     1     -42.776  55.410 -51.379  1.00  0.00     0.074 A 
HETATM   27 CL   UNL     1     -43.621  53.909 -51.413  1.00  0.00    -0.081 Cl
HETATM   28  C   UNL     1     -41.703  55.595 -50.511  1.00  0.00     0.138 A 
HETATM   29  F   UNL     1     -41.309  54.615 -49.685  1.00  0.00    -0.204 F 
HETATM   30  C   UNL     1     -41.018  56.803 -50.489  1.00  0.00     0.046 A 
HETATM   31  C   UNL     1     -41.411  57.833 -51.346  1.00  0.00     0.032 A 
ENDBRANCH  21  24
ENDBRANCH  19  20
ENDBRANCH   4  19
TORSDOF 5
ENDMDL
MODEL 8
REMARK VINA RESULT:      -7.8      3.126      6.449
REMARK  5 active torsions:
REMARK  status: ('A' for Active; 'I' for Inactive)
REMARK    1  A    between atoms: C_5  and  N_6 
REMARK       I    between atoms: N_6  and  C_7 
REMARK       I    between atoms: C_7  and  N_8 
REMARK    2  A    between atoms: N_8  and  C_9 
REMARK    3  A    between atoms: C_12  and  C_13 
REMARK    4  A    between atoms: C_13  and  C_14 
REMARK       I    between atoms: C_14  and  N_15 
REMARK    5  A    between atoms: N_15  and  C_16 
ROOT
HETATM    1  C   UNL     1     -42.394  60.388 -54.380  1.00  0.00     0.174 A 
HETATM    2  S   UNL     1     -43.232  61.706 -53.708  1.00  0.00    -0.062 SA
HETATM    3  C   UNL     1     -43.463  60.797 -52.269  1.00  0.00     0.081 A 
HETATM    4  C   UNL     1     -42.885  59.546 -52.398  1.00  0.00     0.052 A 
HETATM    5  N   UNL     1     -42.277  59.316 -53.632  1.00  0.00    -0.228 NA
ENDROOT
BRANCH   1   6
HETATM    6  N   UNL     1     -41.903  60.587 -55.634  1.00  0.00    -0.287 N 
HETATM    7  C   UNL     1     -42.136  59.800 -56.730  1.00  0.00     0.326 C 
HETATM    8  N   UNL     1     -43.057  58.796 -56.578  1.00  0.00    -0.309 N 
HETATM    9  O   UNL     1     -41.504  60.052 -57.754  1.00  0.00    -0.247 OA
HETATM   10  H   UNL     1     -43.591  58.836 -55.716  1.00  0.00     0.170 HD
HETATM   11  H   UNL     1     -41.240  61.335 -55.773  1.00  0.00     0.172 HD
BRANCH   8  12
HETATM   12  C   UNL     1     -43.407  57.783 -57.489  1.00  0.00     0.036 A 
HETATM   13  C   UNL     1     -42.870  56.496 -57.468  1.00  0.00     0.030 A 
HETATM   14  C   UNL     1     -43.292  55.537 -58.396  1.00  0.00     0.009 A 
HETATM   15  C   UNL     1     -44.264  55.846 -59.353  1.00  0.00    -0.062 A 
HETATM   16  C   UNL     1     -44.681  54.819 -60.363  1.00  0.00     0.048 C 
HETATM   17  C   UNL     1     -44.797  57.138 -59.379  1.00  0.00     0.009 A 
HETATM   18  C   UNL     1     -44.375  58.096 -58.451  1.00  0.00     0.030 A 
ENDBRANCH   8  12
ENDBRANCH   1   6
BRANCH   4  19
HETATM   19  C   UNL     1     -42.860  58.455 -51.374  1.00  0.00     0.163 C 
BRANCH  19  20
HETATM   20  C   UNL     1     -41.816  57.373 -51.629  1.00  0.00     0.227 C 
HETATM   21  N   UNL     1     -42.190  56.408 -52.547  1.00  0.00    -0.327 N 
HETATM   22  H   UNL     1     -43.053  56.595 -53.056  1.00  0.00     0.169 HD
HETATM   23  O   UNL     1     -40.770  57.371 -50.980  1.00  0.00    -0.273 OA
BRANCH  21  24
HETATM   24  C   UNL     1     -41.506  55.230 -52.906  1.00  0.00     0.036 A 
HETATM   25  C   UNL     1     -41.096  54.254 -51.994  1.00  0.00     0.056 A 
HETATM   26  C   UNL     1     -40.449  53.100 -52.448  1.00  0.00     0.074 A 
HETATM   27 CL   UNL     1     -39.964  51.899 -51.313  1.00  0.00    -0.081 Cl
HETATM   28  C   UNL     1     -40.207  52.922 -53.808  1.00  0.00     0.138 A 
HETATM   29  F   UNL     1     -39.591  51.820 -54.259  1.00  0.00    -0.204 F 
HETATM   30  C   UNL     1     -40.605  53.887 -54.724  1.00  0.00     0.046 A 
HETATM   31  C   UNL     1     -41.252  55.039 -54.273  1.00  0.00     0.032 A 
ENDBRANCH  21  24
ENDBRANCH  19  20
ENDBRANCH   4  19
TORSDOF 5
ENDMDL
MODEL 9
REMARK VINA RESULT:      -7.6      1.864      2.191
REMARK  5 active torsions:
REMARK  status: ('A' for Active; 'I' for Inactive)
REMARK    1  A    between atoms: C_5  and  N_6 
REMARK       I    between atoms: N_6  and  C_7 
REMARK       I    between atoms: C_7  and  N_8 
REMARK    2  A    between atoms: N_8  and  C_9 
REMARK    3  A    between atoms: C_12  and  C_13 
REMARK    4  A    between atoms: C_13  and  C_14 
REMARK       I    between atoms: C_14  and  N_15 
REMARK    5  A    between atoms: N_15  and  C_16 
ROOT
HETATM    1  C   UNL     1     -42.668  57.235 -51.118  1.00  0.00     0.174 A 
HETATM    2  S   UNL     1     -44.310  57.242 -51.559  1.00  0.00    -0.062 SA
HETATM    3  C   UNL     1     -43.989  58.531 -52.648  1.00  0.00     0.081 A 
HETATM    4  C   UNL     1     -42.648  58.871 -52.601  1.00  0.00     0.052 A 
HETATM    5  N   UNL     1     -41.893  58.120 -51.700  1.00  0.00    -0.228 NA
ENDROOT
BRANCH   1   6
HETATM    6  N   UNL     1     -42.312  56.286 -50.208  1.00  0.00    -0.287 N 
HETATM    7  C   UNL     1     -41.738  55.074 -50.485  1.00  0.00     0.326 C 
HETATM    8  N   UNL     1     -41.365  54.856 -51.785  1.00  0.00    -0.309 N 
HETATM    9  O   UNL     1     -41.605  54.284 -49.553  1.00  0.00    -0.247 OA
HETATM   10  H   UNL     1     -41.407  55.675 -52.384  1.00  0.00     0.170 HD
HETATM   11  H   UNL     1     -42.557  56.437 -49.241  1.00  0.00     0.172 HD
BRANCH   8  12
HETATM   12  C   UNL     1     -40.861  53.678 -52.367  1.00  0.00     0.036 A 
HETATM   13  C   UNL     1     -39.958  52.823 -51.738  1.00  0.00     0.030 A 
HETATM   14  C   UNL     1     -39.524  51.655 -52.378  1.00  0.00     0.009 A 
HETATM   15  C   UNL     1     -39.994  51.320 -53.652  1.00  0.00    -0.062 A 
HETATM   16  C   UNL     1     -39.495  50.085 -54.339  1.00  0.00     0.048 C 
HETATM   17  C   UNL     1     -40.894  52.182 -54.286  1.00  0.00     0.009 A 
HETATM   18  C   UNL     1     -41.327  53.348 -53.646  1.00  0.00     0.030 A 
ENDBRANCH   8  12
ENDBRANCH   1   6
BRANCH   4  19
HETATM   19  C   UNL     1     -41.961  59.939 -53.394  1.00  0.00     0.163 C 
BRANCH  19  20
HETATM   20  C   UNL     1     -42.423  60.045 -54.844  1.00  0.00     0.227 C 
HETATM   21  N   UNL     1     -41.866  59.112 -55.701  1.00  0.00    -0.327 N 
HETATM   22  H   UNL     1     -41.323  58.374 -55.257  1.00  0.00     0.169 HD
HETATM   23  O   UNL     1     -43.176  60.958 -55.177  1.00  0.00    -0.273 OA
BRANCH  21  24
HETATM   24  C   UNL     1     -41.997  59.023 -57.100  1.00  0.00     0.036 A 
HETATM   25  C   UNL     1     -42.389  57.866 -57.778  1.00  0.00     0.056 A 
HETATM   26  C   UNL     1     -42.522  57.881 -59.170  1.00  0.00     0.074 A 
HETATM   27 CL   UNL     1     -43.021  56.450 -59.989  1.00  0.00    -0.081 Cl
HETATM   28  C   UNL     1     -42.260  59.047 -59.886  1.00  0.00     0.138 A 
HETATM   29  F   UNL     1     -42.386  59.078 -61.220  1.00  0.00    -0.204 F 
HETATM   30  C   UNL     1     -41.865  60.203 -59.225  1.00  0.00     0.046 A 
HETATM   31  C   UNL     1     -41.733  60.190 -57.835  1.00  0.00     0.032 A 
ENDBRANCH  21  24
ENDBRANCH  19  20
ENDBRANCH   4  19
TORSDOF 5
ENDMDL
MODEL 10
REMARK VINA RESULT:      -7.5     16.526     18.931
REMARK  5 active torsions:
REMARK  status: ('A' for Active; 'I' for Inactive)
REMARK    1  A    between atoms: C_5  and  N_6 
REMARK       I    between atoms: N_6  and  C_7 
REMARK       I    between atoms: C_7  and  N_8 
REMARK    2  A    between atoms: N_8  and  C_9 
REMARK    3  A    between atoms: C_12  and  C_13 
REMARK    4  A    between atoms: C_13  and  C_14 
REMARK       I    between atoms: C_14  and  N_15 
REMARK    5  A    between atoms: N_15  and  C_16 
ROOT
HETATM    1  C   UNL     1     -35.235  37.715 -60.257  1.00  0.00     0.174 A 
HETATM    2  S   UNL     1     -36.225  36.658 -61.148  1.00  0.00    -0.062 SA
HETATM    3  C   UNL     1     -37.379  37.918 -61.319  1.00  0.00     0.081 A 
HETATM    4  C   UNL     1     -36.931  39.063 -60.684  1.00  0.00     0.052 A 
HETATM    5  N   UNL     1     -35.691  38.930 -60.060  1.00  0.00    -0.228 NA
ENDROOT
BRANCH   1   6
HETATM    6  N   UNL     1     -34.043  37.196 -59.851  1.00  0.00    -0.287 N 
HETATM    7  C   UNL     1     -33.383  37.497 -58.689  1.00  0.00     0.326 C 
HETATM    8  N   UNL     1     -34.049  38.292 -57.794  1.00  0.00    -0.309 N 
HETATM    9  O   UNL     1     -32.253  37.036 -58.544  1.00  0.00    -0.247 OA
HETATM   10  H   UNL     1     -35.028  38.449 -58.011  1.00  0.00     0.170 HD
HETATM   11  H   UNL     1     -33.546  36.590 -60.486  1.00  0.00     0.172 HD
BRANCH   8  12
HETATM   12  C   UNL     1     -33.576  38.841 -56.588  1.00  0.00     0.036 A 
HETATM   13  C   UNL     1     -32.464  39.677 -56.496  1.00  0.00     0.030 A 
HETATM   14  C   UNL     1     -32.074  40.203 -55.258  1.00  0.00     0.009 A 
HETATM   15  C   UNL     1     -32.795  39.909 -54.096  1.00  0.00    -0.062 A 
HETATM   16  C   UNL     1     -32.346  40.452 -52.772  1.00  0.00     0.048 C 
HETATM   17  C   UNL     1     -33.906  39.066 -54.188  1.00  0.00     0.009 A 
HETATM   18  C   UNL     1     -34.295  38.541 -55.424  1.00  0.00     0.030 A 
ENDBRANCH   8  12
ENDBRANCH   1   6
BRANCH   4  19
HETATM   19  C   UNL     1     -37.636  40.381 -60.600  1.00  0.00     0.163 C 
BRANCH  19  20
HETATM   20  C   UNL     1     -37.197  41.259 -59.433  1.00  0.00     0.227 C 
HETATM   21  N   UNL     1     -36.928  40.577 -58.260  1.00  0.00    -0.327 N 
HETATM   22  H   UNL     1     -36.914  39.560 -58.334  1.00  0.00     0.169 HD
HETATM   23  O   UNL     1     -37.175  42.482 -59.566  1.00  0.00    -0.273 OA
BRANCH  21  24
HETATM   24  C   UNL     1     -36.620  41.105 -56.991  1.00  0.00     0.036 A 
HETATM   25  C   UNL     1     -37.359  40.845 -55.834  1.00  0.00     0.056 A 
HETATM   26  C   UNL     1     -36.958  41.390 -54.610  1.00  0.00     0.074 A 
HETATM   27 CL   UNL     1     -37.871  41.047 -53.191  1.00  0.00    -0.081 Cl
HETATM   28  C   UNL     1     -35.825  42.196 -54.541  1.00  0.00     0.138 A 
HETATM   29  F   UNL     1     -35.425  42.723 -53.375  1.00  0.00    -0.204 F 
HETATM   30  C   UNL     1     -35.084  42.467 -55.684  1.00  0.00     0.046 A 
HETATM   31  C   UNL     1     -35.482  41.922 -56.907  1.00  0.00     0.032 A 
ENDBRANCH  21  24
ENDBRANCH  19  20
ENDBRANCH   4  19
TORSDOF 5
ENDMDL
