MODEL 1
REMARK VINA RESULT:      -8.7      0.000      0.000
REMARK  4 active torsions:
REMARK  status: ('A' for Active; 'I' for Inactive)
REMARK    1  A    between atoms: C_2  and  C_3 
REMARK    2  A    between atoms: C_3  and  N_4 
REMARK    3  A    between atoms: C_3  and  C_18 
REMARK       I    between atoms: N_4  and  C_5 
REMARK    4  A    between atoms: C_5  and  C_6 
ROOT
HETATM    1  N   UNL     1     -43.259  56.683 -53.589  1.00  0.00    -0.344 N 
HETATM    2  C   UNL     1     -43.358  55.319 -53.509  1.00  0.00     0.273 C 
HETATM    3  O   UNL     1     -44.135  54.642 -54.160  1.00  0.00    -0.266 OA
HETATM    4  H   UNL     1     -42.613  57.151 -52.955  1.00  0.00     0.163 HD
ENDROOT
BRANCH   1   5
HETATM    5  C   UNL     1     -44.092  57.517 -54.428  1.00  0.00     0.158 C 
BRANCH   5   6
HETATM    6  C   UNL     1     -44.159  58.999 -53.972  1.00  0.00     0.008 C 
HETATM    7  C   UNL     1     -44.238  59.171 -52.449  1.00  0.00     0.012 C 
HETATM    8  C   UNL     1     -45.316  59.755 -54.631  1.00  0.00     0.012 C 
ENDBRANCH   5   6
BRANCH   5   9
HETATM    9  C   UNL     1     -43.539  57.410 -55.825  1.00  0.00     0.128 A 
HETATM   10  N   UNL     1     -42.749  58.279 -56.432  1.00  0.00    -0.231 NA
HETATM   11  C   UNL     1     -42.543  57.774 -57.693  1.00  0.00     0.085 A 
HETATM   12  C   UNL     1     -43.210  56.566 -57.858  1.00  0.00     0.062 A 
HETATM   13  C   UNL     1     -41.798  58.299 -58.757  1.00  0.00     0.034 A 
HETATM   14  N   UNL     1     -43.824  56.350 -56.651  1.00  0.00    -0.341 N 
HETATM   15  C   UNL     1     -43.180  55.832 -59.046  1.00  0.00     0.032 A 
HETATM   16  H   UNL     1     -44.401  55.555 -56.417  1.00  0.00     0.167 HD
HETATM   17  C   UNL     1     -42.434  56.373 -60.100  1.00  0.00     0.002 A 
HETATM   18  C   UNL     1     -41.753  57.585 -59.961  1.00  0.00     0.002 A 
ENDBRANCH   5   9
ENDBRANCH   1   5
BRANCH   2  19
HETATM   19  C   UNL     1     -42.397  54.703 -52.476  1.00  0.00     0.155 A 
HETATM   20  N   UNL     1     -42.479  55.208 -51.274  1.00  0.00    -0.166 NA
HETATM   21  N   UNL     1     -41.663  54.713 -50.305  1.00  0.00    -0.242 N 
HETATM   22  C   UNL     1     -40.751  53.700 -50.457  1.00  0.00     0.272 A 
HETATM   23  H   UNL     1     -41.749  55.127 -49.381  1.00  0.00     0.192 HD
HETATM   24  O   UNL     1     -40.057  53.298 -49.530  1.00  0.00    -0.266 OA
HETATM   25  C   UNL     1     -40.644  53.124 -51.808  1.00  0.00     0.046 A 
HETATM   26  C   UNL     1     -41.450  53.621 -52.835  1.00  0.00     0.016 A 
HETATM   27  C   UNL     1     -39.729  52.090 -52.047  1.00  0.00     0.018 A 
HETATM   28  C   UNL     1     -41.314  53.080 -54.119  1.00  0.00     0.015 A 
HETATM   29  C   UNL     1     -40.403  52.045 -54.359  1.00  0.00     0.001 A 
HETATM   30  C   UNL     1     -39.613  51.548 -53.325  1.00  0.00     0.001 A 
ENDBRANCH   2  19
TORSDOF 4
ENDMDL
MODEL 2
REMARK VINA RESULT:      -8.3      1.859      2.617
REMARK  4 active torsions:
REMARK  status: ('A' for Active; 'I' for Inactive)
REMARK    1  A    between atoms: C_2  and  C_3 
REMARK    2  A    between atoms: C_3  and  N_4 
REMARK    3  A    between atoms: C_3  and  C_18 
REMARK       I    between atoms: N_4  and  C_5 
REMARK    4  A    between atoms: C_5  and  C_6 
ROOT
HETATM    1  N   UNL     1     -41.720  56.580 -53.841  1.00  0.00    -0.344 N 
HETATM    2  C   UNL     1     -42.483  55.542 -53.375  1.00  0.00     0.273 C 
HETATM    3  O   UNL     1     -43.702  55.526 -53.374  1.00  0.00    -0.266 OA
HETATM    4  H   UNL     1     -40.708  56.510 -53.738  1.00  0.00     0.163 HD
ENDROOT
BRANCH   1   5
HETATM    5  C   UNL     1     -42.253  57.820 -54.362  1.00  0.00     0.158 C 
BRANCH   5   6
HETATM    6  C   UNL     1     -41.371  59.061 -54.055  1.00  0.00     0.008 C 
HETATM    7  C   UNL     1     -40.247  58.783 -53.048  1.00  0.00     0.012 C 
HETATM    8  C   UNL     1     -42.201  60.255 -53.577  1.00  0.00     0.012 C 
ENDBRANCH   5   6
BRANCH   5   9
HETATM    9  C   UNL     1     -42.414  57.629 -55.847  1.00  0.00     0.128 A 
HETATM   10  N   UNL     1     -42.110  58.501 -56.794  1.00  0.00    -0.231 NA
HETATM   11  C   UNL     1     -42.463  57.900 -57.977  1.00  0.00     0.085 A 
HETATM   12  C   UNL     1     -42.983  56.630 -57.753  1.00  0.00     0.062 A 
HETATM   13  C   UNL     1     -42.373  58.383 -59.289  1.00  0.00     0.034 A 
HETATM   14  N   UNL     1     -42.927  56.477 -56.391  1.00  0.00    -0.341 N 
HETATM   15  C   UNL     1     -43.429  55.794 -58.778  1.00  0.00     0.032 A 
HETATM   16  H   UNL     1     -43.228  55.662 -55.877  1.00  0.00     0.167 HD
HETATM   17  C   UNL     1     -43.335  56.294 -60.082  1.00  0.00     0.002 A 
HETATM   18  C   UNL     1     -42.816  57.566 -60.337  1.00  0.00     0.002 A 
ENDBRANCH   5   9
ENDBRANCH   1   5
BRANCH   2  19
HETATM   19  C   UNL     1     -41.645  54.382 -52.809  1.00  0.00     0.155 A 
HETATM   20  N   UNL     1     -41.258  53.498 -53.690  1.00  0.00    -0.166 NA
HETATM   21  N   UNL     1     -40.510  52.444 -53.266  1.00  0.00    -0.242 N 
HETATM   22  C   UNL     1     -40.094  52.215 -51.979  1.00  0.00     0.272 A 
HETATM   23  H   UNL     1     -40.226  51.772 -53.973  1.00  0.00     0.192 HD
HETATM   24  O   UNL     1     -39.408  51.245 -51.675  1.00  0.00    -0.266 OA
HETATM   25  C   UNL     1     -40.526  53.201 -50.975  1.00  0.00     0.046 A 
HETATM   26  C   UNL     1     -41.313  54.285 -51.367  1.00  0.00     0.016 A 
HETATM   27  C   UNL     1     -40.148  53.033 -49.636  1.00  0.00     0.018 A 
HETATM   28  C   UNL     1     -41.739  55.197 -50.393  1.00  0.00     0.015 A 
HETATM   29  C   UNL     1     -41.360  55.032 -49.056  1.00  0.00     0.001 A 
HETATM   30  C   UNL     1     -40.563  53.954 -48.677  1.00  0.00     0.001 A 
ENDBRANCH   2  19
TORSDOF 4
ENDMDL
MODEL 3
REMARK VINA RESULT:      -8.3      2.792      7.705
REMARK  4 active torsions:
REMARK  status: ('A' for Active; 'I' for Inactive)
REMARK    1  A    between atoms: C_2  and  C_3 
REMARK    2  A    between atoms: C_3  and  N_4 
REMARK    3  A    between atoms: C_3  and  C_18 
REMARK       I    between atoms: N_4  and  C_5 
REMARK    4  A    between atoms: C_5  and  C_6 
ROOT
HETATM    1  N   UNL     1     -42.819  56.407 -55.997  1.00  0.00    -0.344 N 
HETATM    2  C   UNL     1     -42.731  57.214 -57.102  1.00  0.00     0.273 C 
HETATM    3  O   UNL     1     -42.109  58.262 -57.144  1.00  0.00    -0.266 OA
HETATM    4  H   UNL     1     -43.415  55.582 -56.058  1.00  0.00     0.163 HD
ENDROOT
BRANCH   1   5
HETATM    5  C   UNL     1     -42.222  56.706 -54.715  1.00  0.00     0.158 C 
BRANCH   5   6
HETATM    6  C   UNL     1     -43.228  57.246 -53.663  1.00  0.00     0.008 C 
HETATM    7  C   UNL     1     -44.697  57.019 -54.044  1.00  0.00     0.012 C 
HETATM    8  C   UNL     1     -43.005  58.730 -53.358  1.00  0.00     0.012 C 
ENDBRANCH   5   6
BRANCH   5   9
HETATM    9  C   UNL     1     -41.574  55.434 -54.234  1.00  0.00     0.128 A 
HETATM   10  N   UNL     1     -41.246  54.386 -54.971  1.00  0.00    -0.231 NA
HETATM   11  C   UNL     1     -40.724  53.467 -54.094  1.00  0.00     0.085 A 
HETATM   12  C   UNL     1     -40.721  53.964 -52.797  1.00  0.00     0.062 A 
HETATM   13  C   UNL     1     -40.235  52.176 -54.337  1.00  0.00     0.034 A 
HETATM   14  N   UNL     1     -41.254  55.222 -52.915  1.00  0.00    -0.341 N 
HETATM   15  C   UNL     1     -40.251  53.239 -51.700  1.00  0.00     0.032 A 
HETATM   16  H   UNL     1     -41.400  55.874 -52.158  1.00  0.00     0.167 HD
HETATM   17  C   UNL     1     -39.769  51.950 -51.959  1.00  0.00     0.002 A 
HETATM   18  C   UNL     1     -39.759  51.425 -53.254  1.00  0.00     0.002 A 
ENDBRANCH   5   9
ENDBRANCH   1   5
BRANCH   2  19
HETATM   19  C   UNL     1     -43.530  56.682 -58.304  1.00  0.00     0.155 A 
HETATM   20  N   UNL     1     -42.963  55.701 -58.955  1.00  0.00    -0.166 NA
HETATM   21  N   UNL     1     -43.610  55.175 -60.030  1.00  0.00    -0.242 N 
HETATM   22  C   UNL     1     -44.837  55.565 -60.504  1.00  0.00     0.272 A 
HETATM   23  H   UNL     1     -43.143  54.415 -60.517  1.00  0.00     0.192 HD
HETATM   24  O   UNL     1     -45.364  55.033 -61.474  1.00  0.00    -0.266 OA
HETATM   25  C   UNL     1     -45.486  56.672 -59.782  1.00  0.00     0.046 A 
HETATM   26  C   UNL     1     -44.843  57.253 -58.687  1.00  0.00     0.016 A 
HETATM   27  C   UNL     1     -46.739  57.134 -60.209  1.00  0.00     0.018 A 
HETATM   28  C   UNL     1     -45.463  58.324 -58.031  1.00  0.00     0.015 A 
HETATM   29  C   UNL     1     -46.715  58.784 -58.455  1.00  0.00     0.001 A 
HETATM   30  C   UNL     1     -47.354  58.189 -59.541  1.00  0.00     0.001 A 
ENDBRANCH   2  19
TORSDOF 4
ENDMDL
MODEL 4
REMARK VINA RESULT:      -8.0      2.369      7.066
REMARK  4 active torsions:
REMARK  status: ('A' for Active; 'I' for Inactive)
REMARK    1  A    between atoms: C_2  and  C_3 
REMARK    2  A    between atoms: C_3  and  N_4 
REMARK    3  A    between atoms: C_3  and  C_18 
REMARK       I    between atoms: N_4  and  C_5 
REMARK    4  A    between atoms: C_5  and  C_6 
ROOT
HETATM    1  N   UNL     1     -42.933  57.151 -54.235  1.00  0.00    -0.344 N 
HETATM    2  C   UNL     1     -42.918  58.131 -55.193  1.00  0.00     0.273 C 
HETATM    3  O   UNL     1     -42.110  59.042 -55.236  1.00  0.00    -0.266 OA
HETATM    4  H   UNL     1     -43.692  56.471 -54.262  1.00  0.00     0.163 HD
ENDROOT
BRANCH   1   5
HETATM    5  C   UNL     1     -42.017  57.082 -53.118  1.00  0.00     0.158 C 
BRANCH   5   6
HETATM    6  C   UNL     1     -42.679  57.373 -51.744  1.00  0.00     0.008 C 
HETATM    7  C   UNL     1     -44.212  57.373 -51.787  1.00  0.00     0.012 C 
HETATM    8  C   UNL     1     -42.186  58.688 -51.132  1.00  0.00     0.012 C 
ENDBRANCH   5   6
BRANCH   5   9
HETATM    9  C   UNL     1     -41.411  55.704 -53.142  1.00  0.00     0.128 A 
HETATM   10  N   UNL     1     -41.154  54.971 -54.212  1.00  0.00    -0.231 NA
HETATM   11  C   UNL     1     -40.645  53.788 -53.736  1.00  0.00     0.085 A 
HETATM   12  C   UNL     1     -40.577  53.799 -52.348  1.00  0.00     0.062 A 
HETATM   13  C   UNL     1     -40.221  52.650 -54.435  1.00  0.00     0.034 A 
HETATM   14  N   UNL     1     -41.058  55.035 -51.995  1.00  0.00    -0.341 N 
HETATM   15  C   UNL     1     -40.103  52.722 -51.595  1.00  0.00     0.032 A 
HETATM   16  H   UNL     1     -41.150  55.384 -51.053  1.00  0.00     0.167 HD
HETATM   17  C   UNL     1     -39.687  51.592 -52.310  1.00  0.00     0.002 A 
HETATM   18  C   UNL     1     -39.744  51.553 -53.705  1.00  0.00     0.002 A 
ENDBRANCH   5   9
ENDBRANCH   1   5
BRANCH   2  19
HETATM   19  C   UNL     1     -44.059  57.993 -56.216  1.00  0.00     0.155 A 
HETATM   20  N   UNL     1     -45.261  58.164 -55.732  1.00  0.00    -0.166 NA
HETATM   21  N   UNL     1     -46.322  58.061 -56.576  1.00  0.00    -0.242 N 
HETATM   22  C   UNL     1     -46.260  57.807 -57.923  1.00  0.00     0.272 A 
HETATM   23  H   UNL     1     -47.243  58.197 -56.171  1.00  0.00     0.192 HD
HETATM   24  O   UNL     1     -47.263  57.742 -58.625  1.00  0.00    -0.266 OA
HETATM   25  C   UNL     1     -44.912  57.609 -58.482  1.00  0.00     0.046 A 
HETATM   26  C   UNL     1     -43.799  57.685 -57.642  1.00  0.00     0.016 A 
HETATM   27  C   UNL     1     -44.765  57.338 -59.850  1.00  0.00     0.018 A 
HETATM   28  C   UNL     1     -42.528  57.465 -58.187  1.00  0.00     0.015 A 
HETATM   29  C   UNL     1     -42.379  57.197 -59.552  1.00  0.00     0.001 A 
HETATM   30  C   UNL     1     -43.495  57.136 -60.384  1.00  0.00     0.001 A 
ENDBRANCH   2  19
TORSDOF 4
ENDMDL
MODEL 5
REMARK VINA RESULT:      -7.9     15.727     17.265
REMARK  4 active torsions:
REMARK  status: ('A' for Active; 'I' for Inactive)
REMARK    1  A    between atoms: C_2  and  C_3 
REMARK    2  A    between atoms: C_3  and  N_4 
REMARK    3  A    between atoms: C_3  and  C_18 
REMARK       I    between atoms: N_4  and  C_5 
REMARK    4  A    between atoms: C_5  and  C_6 
ROOT
HETATM    1  N   UNL     1     -34.766  40.745 -53.806  1.00  0.00    -0.344 N 
HETATM    2  C   UNL     1     -35.388  41.479 -52.831  1.00  0.00     0.273 C 
HETATM    3  O   UNL     1     -35.583  42.681 -52.889  1.00  0.00    -0.266 OA
HETATM    4  H   UNL     1     -34.605  39.755 -53.625  1.00  0.00     0.163 HD
ENDROOT
BRANCH   1   5
HETATM    5  C   UNL     1     -34.216  41.299 -55.023  1.00  0.00     0.158 C 
BRANCH   5   6
HETATM    6  C   UNL     1     -32.856  40.675 -55.439  1.00  0.00     0.008 C 
HETATM    7  C   UNL     1     -32.964  39.683 -56.604  1.00  0.00     0.012 C 
HETATM    8  C   UNL     1     -32.145  40.003 -54.261  1.00  0.00     0.012 C 
ENDBRANCH   5   6
BRANCH   5   9
HETATM    9  C   UNL     1     -35.251  41.092 -56.097  1.00  0.00     0.128 A 
HETATM   10  N   UNL     1     -36.152  40.126 -56.152  1.00  0.00    -0.231 NA
HETATM   11  C   UNL     1     -36.842  40.329 -57.322  1.00  0.00     0.085 A 
HETATM   12  C   UNL     1     -36.364  41.449 -57.992  1.00  0.00     0.062 A 
HETATM   13  C   UNL     1     -37.893  39.590 -57.882  1.00  0.00     0.034 A 
HETATM   14  N   UNL     1     -35.362  41.924 -57.184  1.00  0.00    -0.341 N 
HETATM   15  C   UNL     1     -36.879  41.889 -59.213  1.00  0.00     0.032 A 
HETATM   16  H   UNL     1     -34.793  42.738 -57.368  1.00  0.00     0.167 HD
HETATM   17  C   UNL     1     -37.925  41.137 -59.760  1.00  0.00     0.002 A 
HETATM   18  C   UNL     1     -38.426  40.006 -59.109  1.00  0.00     0.002 A 
ENDBRANCH   5   9
ENDBRANCH   1   5
BRANCH   2  19
HETATM   19  C   UNL     1     -35.804  40.637 -51.612  1.00  0.00     0.155 A 
HETATM   20  N   UNL     1     -37.091  40.464 -51.471  1.00  0.00    -0.166 NA
HETATM   21  N   UNL     1     -37.537  39.728 -50.418  1.00  0.00    -0.242 N 
HETATM   22  C   UNL     1     -36.753  39.116 -49.472  1.00  0.00     0.272 A 
HETATM   23  H   UNL     1     -38.542  39.613 -50.334  1.00  0.00     0.192 HD
HETATM   24  O   UNL     1     -37.227  38.455 -48.556  1.00  0.00    -0.266 OA
HETATM   25  C   UNL     1     -35.300  39.304 -49.616  1.00  0.00     0.046 A 
HETATM   26  C   UNL     1     -34.806  40.073 -50.672  1.00  0.00     0.016 A 
HETATM   27  C   UNL     1     -34.432  38.717 -48.686  1.00  0.00     0.018 A 
HETATM   28  C   UNL     1     -33.423  40.266 -50.776  1.00  0.00     0.015 A 
HETATM   29  C   UNL     1     -32.554  39.677 -49.849  1.00  0.00     0.001 A 
HETATM   30  C   UNL     1     -33.057  38.901 -48.806  1.00  0.00     0.001 A 
ENDBRANCH   2  19
TORSDOF 4
ENDMDL
MODEL 6
REMARK VINA RESULT:      -7.8      2.871      5.850
REMARK  4 active torsions:
REMARK  status: ('A' for Active; 'I' for Inactive)
REMARK    1  A    between atoms: C_2  and  C_3 
REMARK    2  A    between atoms: C_3  and  N_4 
REMARK    3  A    between atoms: C_3  and  C_18 
REMARK       I    between atoms: N_4  and  C_5 
REMARK    4  A    between atoms: C_5  and  C_6 
ROOT
HETATM    1  N   UNL     1     -43.007  56.874 -54.829  1.00  0.00    -0.344 N 
HETATM    2  C   UNL     1     -42.572  57.861 -53.984  1.00  0.00     0.273 C 
HETATM    3  O   UNL     1     -41.478  58.396 -54.051  1.00  0.00    -0.266 OA
HETATM    4  H   UNL     1     -43.919  56.457 -54.643  1.00  0.00     0.163 HD
ENDROOT
BRANCH   1   5
HETATM    5  C   UNL     1     -42.216  56.300 -55.894  1.00  0.00     0.158 C 
BRANCH   5   6
HETATM    6  C   UNL     1     -41.621  54.906 -55.554  1.00  0.00     0.008 C 
HETATM    7  C   UNL     1     -42.589  53.995 -54.786  1.00  0.00     0.012 C 
HETATM    8  C   UNL     1     -40.303  55.013 -54.783  1.00  0.00     0.012 C 
ENDBRANCH   5   6
BRANCH   5   9
HETATM    9  C   UNL     1     -43.111  56.221 -57.102  1.00  0.00     0.128 A 
HETATM   10  N   UNL     1     -43.000  55.379 -58.116  1.00  0.00    -0.231 NA
HETATM   11  C   UNL     1     -44.011  55.710 -58.984  1.00  0.00     0.085 A 
HETATM   12  C   UNL     1     -44.765  56.767 -58.488  1.00  0.00     0.062 A 
HETATM   13  C   UNL     1     -44.345  55.151 -60.225  1.00  0.00     0.034 A 
HETATM   14  N   UNL     1     -44.180  57.064 -57.283  1.00  0.00    -0.341 N 
HETATM   15  C   UNL     1     -45.856  57.314 -59.167  1.00  0.00     0.032 A 
HETATM   16  H   UNL     1     -44.477  57.790 -56.647  1.00  0.00     0.167 HD
HETATM   17  C   UNL     1     -46.173  56.746 -60.407  1.00  0.00     0.002 A 
HETATM   18  C   UNL     1     -45.433  55.682 -60.930  1.00  0.00     0.002 A 
ENDBRANCH   5   9
ENDBRANCH   1   5
BRANCH   2  19
HETATM   19  C   UNL     1     -43.599  58.223 -52.896  1.00  0.00     0.155 A 
HETATM   20  N   UNL     1     -43.543  57.489 -51.817  1.00  0.00    -0.166 NA
HETATM   21  N   UNL     1     -44.418  57.750 -50.809  1.00  0.00    -0.242 N 
HETATM   22  C   UNL     1     -45.366  58.741 -50.799  1.00  0.00     0.272 A 
HETATM   23  H   UNL     1     -44.352  57.162 -49.983  1.00  0.00     0.192 HD
HETATM   24  O   UNL     1     -46.114  58.925 -49.845  1.00  0.00    -0.266 OA
HETATM   25  C   UNL     1     -45.443  59.575 -52.011  1.00  0.00     0.046 A 
HETATM   26  C   UNL     1     -44.576  59.322 -53.077  1.00  0.00     0.016 A 
HETATM   27  C   UNL     1     -46.391  60.604 -52.083  1.00  0.00     0.018 A 
HETATM   28  C   UNL     1     -44.683  60.106 -54.232  1.00  0.00     0.015 A 
HETATM   29  C   UNL     1     -45.627  61.137 -54.304  1.00  0.00     0.001 A 
HETATM   30  C   UNL     1     -46.479  61.388 -53.230  1.00  0.00     0.001 A 
ENDBRANCH   2  19
TORSDOF 4
ENDMDL
MODEL 7
REMARK VINA RESULT:      -7.6      3.460      8.341
REMARK  4 active torsions:
REMARK  status: ('A' for Active; 'I' for Inactive)
REMARK    1  A    between atoms: C_2  and  C_3 
REMARK    2  A    between atoms: C_3  and  N_4 
REMARK    3  A    between atoms: C_3  and  C_18 
REMARK       I    between atoms: N_4  and  C_5 
REMARK    4  A    between atoms: C_5  and  C_6 
ROOT
HETATM    1  N   UNL     1     -42.941  57.924 -57.857  1.00  0.00    -0.344 N 
HETATM    2  C   UNL     1     -43.621  59.091 -58.088  1.00  0.00     0.273 C 
HETATM    3  O   UNL     1     -44.833  59.177 -58.187  1.00  0.00    -0.266 OA
HETATM    4  H   UNL     1     -41.923  57.961 -57.852  1.00  0.00     0.163 HD
ENDROOT
BRANCH   1   5
HETATM    5  C   UNL     1     -43.563  56.624 -57.739  1.00  0.00     0.158 C 
BRANCH   5   6
HETATM    6  C   UNL     1     -43.371  55.720 -58.987  1.00  0.00     0.008 C 
HETATM    7  C   UNL     1     -42.338  56.260 -59.985  1.00  0.00     0.012 C 
HETATM    8  C   UNL     1     -44.692  55.452 -59.715  1.00  0.00     0.012 C 
ENDBRANCH   5   6
BRANCH   5   9
HETATM    9  C   UNL     1     -42.977  55.976 -56.512  1.00  0.00     0.128 A 
HETATM   10  N   UNL     1     -43.470  56.015 -55.285  1.00  0.00    -0.231 NA
HETATM   11  C   UNL     1     -42.578  55.319 -54.507  1.00  0.00     0.085 A 
HETATM   12  C   UNL     1     -41.524  54.833 -55.272  1.00  0.00     0.062 A 
HETATM   13  C   UNL     1     -42.601  55.063 -53.129  1.00  0.00     0.034 A 
HETATM   14  N   UNL     1     -41.810  55.254 -56.546  1.00  0.00    -0.341 N 
HETATM   15  C   UNL     1     -40.468  54.092 -54.738  1.00  0.00     0.032 A 
HETATM   16  H   UNL     1     -41.247  55.074 -57.365  1.00  0.00     0.167 HD
HETATM   17  C   UNL     1     -40.505  53.850 -53.360  1.00  0.00     0.002 A 
HETATM   18  C   UNL     1     -41.552  54.325 -52.566  1.00  0.00     0.002 A 
ENDBRANCH   5   9
ENDBRANCH   1   5
BRANCH   2  19
HETATM   19  C   UNL     1     -42.694  60.310 -58.246  1.00  0.00     0.155 A 
HETATM   20  N   UNL     1     -42.350  60.891 -57.128  1.00  0.00    -0.166 NA
HETATM   21  N   UNL     1     -41.529  61.974 -57.185  1.00  0.00    -0.242 N 
HETATM   22  C   UNL     1     -40.997  62.524 -58.323  1.00  0.00     0.272 A 
HETATM   23  H   UNL     1     -41.280  62.406 -56.300  1.00  0.00     0.192 HD
HETATM   24  O   UNL     1     -40.251  63.497 -58.295  1.00  0.00    -0.266 OA
HETATM   25  C   UNL     1     -41.379  61.881 -59.592  1.00  0.00     0.046 A 
HETATM   26  C   UNL     1     -42.238  60.781 -59.575  1.00  0.00     0.016 A 
HETATM   27  C   UNL     1     -40.883  62.389 -60.800  1.00  0.00     0.018 A 
HETATM   28  C   UNL     1     -42.614  60.201 -60.793  1.00  0.00     0.015 A 
HETATM   29  C   UNL     1     -42.117  60.704 -62.000  1.00  0.00     0.001 A 
HETATM   30  C   UNL     1     -41.250  61.795 -62.005  1.00  0.00     0.001 A 
ENDBRANCH   2  19
TORSDOF 4
ENDMDL
MODEL 8
REMARK VINA RESULT:      -7.5      2.836      5.710
REMARK  4 active torsions:
REMARK  status: ('A' for Active; 'I' for Inactive)
REMARK    1  A    between atoms: C_2  and  C_3 
REMARK    2  A    between atoms: C_3  and  N_4 
REMARK    3  A    between atoms: C_3  and  C_18 
REMARK       I    between atoms: N_4  and  C_5 
REMARK    4  A    between atoms: C_5  and  C_6 
ROOT
HETATM    1  N   UNL     1     -43.029  57.923 -52.782  1.00  0.00    -0.344 N 
HETATM    2  C   UNL     1     -41.699  57.598 -52.843  1.00  0.00     0.273 C 
HETATM    3  O   UNL     1     -40.840  58.296 -53.353  1.00  0.00    -0.266 OA
HETATM    4  H   UNL     1     -43.668  57.236 -52.383  1.00  0.00     0.163 HD
ENDROOT
BRANCH   1   5
HETATM    5  C   UNL     1     -43.606  59.120 -53.350  1.00  0.00     0.158 C 
BRANCH   5   6
HETATM    6  C   UNL     1     -44.741  58.845 -54.375  1.00  0.00     0.008 C 
HETATM    7  C   UNL     1     -44.974  57.354 -54.648  1.00  0.00     0.012 C 
HETATM    8  C   UNL     1     -44.512  59.577 -55.700  1.00  0.00     0.012 C 
ENDBRANCH   5   6
BRANCH   5   9
HETATM    9  C   UNL     1     -44.113  59.944 -52.196  1.00  0.00     0.128 A 
HETATM   10  N   UNL     1     -43.549  60.071 -51.007  1.00  0.00    -0.231 NA
HETATM   11  C   UNL     1     -44.387  60.884 -50.285  1.00  0.00     0.085 A 
HETATM   12  C   UNL     1     -45.481  61.273 -51.049  1.00  0.00     0.062 A 
HETATM   13  C   UNL     1     -44.280  61.332 -48.961  1.00  0.00     0.034 A 
HETATM   14  N   UNL     1     -45.276  60.673 -52.265  1.00  0.00    -0.341 N 
HETATM   15  C   UNL     1     -46.499  62.099 -50.565  1.00  0.00     0.032 A 
HETATM   16  H   UNL     1     -45.884  60.743 -53.067  1.00  0.00     0.167 HD
HETATM   17  C   UNL     1     -46.378  62.533 -49.240  1.00  0.00     0.002 A 
HETATM   18  C   UNL     1     -45.288  62.159 -48.449  1.00  0.00     0.002 A 
ENDBRANCH   5   9
ENDBRANCH   1   5
BRANCH   2  19
HETATM   19  C   UNL     1     -41.382  56.226 -52.221  1.00  0.00     0.155 A 
HETATM   20  N   UNL     1     -41.508  56.165 -50.922  1.00  0.00    -0.166 NA
HETATM   21  N   UNL     1     -41.248  54.984 -50.300  1.00  0.00    -0.242 N 
HETATM   22  C   UNL     1     -40.874  53.814 -50.911  1.00  0.00     0.272 A 
HETATM   23  H   UNL     1     -41.353  54.967 -49.290  1.00  0.00     0.192 HD
HETATM   24  O   UNL     1     -40.669  52.782 -50.283  1.00  0.00    -0.266 OA
HETATM   25  C   UNL     1     -40.725  53.869 -52.375  1.00  0.00     0.046 A 
HETATM   26  C   UNL     1     -40.961  55.070 -53.048  1.00  0.00     0.016 A 
HETATM   27  C   UNL     1     -40.338  52.717 -53.073  1.00  0.00     0.018 A 
HETATM   28  C   UNL     1     -40.785  55.111 -54.436  1.00  0.00     0.015 A 
HETATM   29  C   UNL     1     -40.402  53.960 -55.135  1.00  0.00     0.001 A 
HETATM   30  C   UNL     1     -40.181  52.764 -54.456  1.00  0.00     0.001 A 
ENDBRANCH   2  19
TORSDOF 4
ENDMDL
MODEL 9
REMARK VINA RESULT:      -7.4      2.810      6.415
REMARK  4 active torsions:
REMARK  status: ('A' for Active; 'I' for Inactive)
REMARK    1  A    between atoms: C_2  and  C_3 
REMARK    2  A    between atoms: C_3  and  N_4 
REMARK    3  A    between atoms: C_3  and  C_18 
REMARK       I    between atoms: N_4  and  C_5 
REMARK    4  A    between atoms: C_5  and  C_6 
ROOT
HETATM    1  N   UNL     1     -42.905  57.195 -54.516  1.00  0.00    -0.344 N 
HETATM    2  C   UNL     1     -43.997  57.738 -53.889  1.00  0.00     0.273 C 
HETATM    3  O   UNL     1     -45.125  57.279 -53.946  1.00  0.00    -0.266 OA
HETATM    4  H   UNL     1     -42.020  57.697 -54.447  1.00  0.00     0.163 HD
ENDROOT
BRANCH   1   5
HETATM    5  C   UNL     1     -42.945  56.026 -55.365  1.00  0.00     0.158 C 
BRANCH   5   6
HETATM    6  C   UNL     1     -42.452  56.285 -56.815  1.00  0.00     0.008 C 
HETATM    7  C   UNL     1     -42.337  57.773 -57.169  1.00  0.00     0.012 C 
HETATM    8  C   UNL     1     -43.323  55.578 -57.857  1.00  0.00     0.012 C 
ENDBRANCH   5   6
BRANCH   5   9
HETATM    9  C   UNL     1     -42.103  54.975 -54.691  1.00  0.00     0.128 A 
HETATM   10  N   UNL     1     -41.535  53.928 -55.266  1.00  0.00    -0.231 NA
HETATM   11  C   UNL     1     -40.909  53.245 -54.253  1.00  0.00     0.085 A 
HETATM   12  C   UNL     1     -41.086  53.890 -53.035  1.00  0.00     0.062 A 
HETATM   13  C   UNL     1     -40.169  52.055 -54.298  1.00  0.00     0.034 A 
HETATM   14  N   UNL     1     -41.838  54.995 -53.344  1.00  0.00    -0.341 N 
HETATM   15  C   UNL     1     -40.561  53.413 -51.832  1.00  0.00     0.032 A 
HETATM   16  H   UNL     1     -42.154  55.695 -52.688  1.00  0.00     0.167 HD
HETATM   17  C   UNL     1     -39.829  52.222 -51.895  1.00  0.00     0.002 A 
HETATM   18  C   UNL     1     -39.634  51.552 -53.105  1.00  0.00     0.002 A 
ENDBRANCH   5   9
ENDBRANCH   1   5
BRANCH   2  19
HETATM   19  C   UNL     1     -43.670  59.026 -53.113  1.00  0.00     0.155 A 
HETATM   20  N   UNL     1     -44.332  60.085 -53.496  1.00  0.00    -0.166 NA
HETATM   21  N   UNL     1     -44.101  61.263 -52.856  1.00  0.00    -0.242 N 
HETATM   22  C   UNL     1     -43.234  61.455 -51.810  1.00  0.00     0.272 A 
HETATM   23  H   UNL     1     -44.628  62.069 -53.177  1.00  0.00     0.192 HD
HETATM   24  O   UNL     1     -43.088  62.547 -51.272  1.00  0.00    -0.266 OA
HETATM   25  C   UNL     1     -42.478  60.271 -51.369  1.00  0.00     0.046 A 
HETATM   26  C   UNL     1     -42.672  59.049 -52.017  1.00  0.00     0.016 A 
HETATM   27  C   UNL     1     -41.567  60.387 -50.311  1.00  0.00     0.018 A 
HETATM   28  C   UNL     1     -41.924  57.941 -51.604  1.00  0.00     0.015 A 
HETATM   29  C   UNL     1     -41.015  58.054 -50.545  1.00  0.00     0.001 A 
HETATM   30  C   UNL     1     -40.839  59.275 -49.897  1.00  0.00     0.001 A 
ENDBRANCH   2  19
TORSDOF 4
ENDMDL
MODEL 10
REMARK VINA RESULT:      -7.4     15.243     18.125
REMARK  4 active torsions:
REMARK  status: ('A' for Active; 'I' for Inactive)
REMARK    1  A    between atoms: C_2  and  C_3 
REMARK    2  A    between atoms: C_3  and  N_4 
REMARK    3  A    between atoms: C_3  and  C_18 
REMARK       I    between atoms: N_4  and  C_5 
REMARK    4  A    between atoms: C_5  and  C_6 
ROOT
HETATM    1  N   UNL     1     -36.514  39.621 -59.016  1.00  0.00    -0.344 N 
HETATM    2  C   UNL     1     -36.684  40.963 -58.797  1.00  0.00     0.273 C 
HETATM    3  O   UNL     1     -36.964  41.774 -59.663  1.00  0.00    -0.266 OA
HETATM    4  H   UNL     1     -36.223  39.044 -58.227  1.00  0.00     0.163 HD
ENDROOT
BRANCH   1   5
HETATM    5  C   UNL     1     -36.603  38.984 -60.311  1.00  0.00     0.158 C 
BRANCH   5   6
HETATM    6  C   UNL     1     -35.574  37.840 -60.520  1.00  0.00     0.008 C 
HETATM    7  C   UNL     1     -34.584  37.683 -59.359  1.00  0.00     0.012 C 
HETATM    8  C   UNL     1     -34.800  37.991 -61.833  1.00  0.00     0.012 C 
ENDBRANCH   5   6
BRANCH   5   9
HETATM    9  C   UNL     1     -38.012  38.470 -60.443  1.00  0.00     0.128 A 
HETATM   10  N   UNL     1     -38.708  37.826 -59.521  1.00  0.00    -0.231 NA
HETATM   11  C   UNL     1     -39.914  37.530 -60.109  1.00  0.00     0.085 A 
HETATM   12  C   UNL     1     -39.963  38.013 -61.411  1.00  0.00     0.062 A 
HETATM   13  C   UNL     1     -41.019  36.844 -59.588  1.00  0.00     0.034 A 
HETATM   14  N   UNL     1     -38.746  38.618 -61.594  1.00  0.00    -0.341 N 
HETATM   15  C   UNL     1     -41.070  37.849 -62.247  1.00  0.00     0.032 A 
HETATM   16  H   UNL     1     -38.438  39.080 -62.438  1.00  0.00     0.167 HD
HETATM   17  C   UNL     1     -42.164  37.158 -61.712  1.00  0.00     0.002 A 
HETATM   18  C   UNL     1     -42.143  36.663 -60.405  1.00  0.00     0.002 A 
ENDBRANCH   5   9
ENDBRANCH   1   5
BRANCH   2  19
HETATM   19  C   UNL     1     -36.455  41.370 -57.331  1.00  0.00     0.155 A 
HETATM   20  N   UNL     1     -37.451  42.004 -56.771  1.00  0.00    -0.166 NA
HETATM   21  N   UNL     1     -37.325  42.395 -55.474  1.00  0.00    -0.242 N 
HETATM   22  C   UNL     1     -36.239  42.172 -54.665  1.00  0.00     0.272 A 
HETATM   23  H   UNL     1     -38.114  42.887 -55.066  1.00  0.00     0.192 HD
HETATM   24  O   UNL     1     -36.203  42.544 -53.498  1.00  0.00    -0.266 OA
HETATM   25  C   UNL     1     -35.108  41.461 -55.284  1.00  0.00     0.046 A 
HETATM   26  C   UNL     1     -35.191  41.064 -56.620  1.00  0.00     0.016 A 
HETATM   27  C   UNL     1     -33.958  41.201 -54.526  1.00  0.00     0.018 A 
HETATM   28  C   UNL     1     -34.094  40.415 -57.200  1.00  0.00     0.015 A 
HETATM   29  C   UNL     1     -32.946  40.152 -56.444  1.00  0.00     0.001 A 
HETATM   30  C   UNL     1     -32.878  40.541 -55.107  1.00  0.00     0.001 A 
ENDBRANCH   2  19
TORSDOF 4
ENDMDL
