MODEL 1
REMARK VINA RESULT:      -8.4      0.000      0.000
REMARK  5 active torsions:
REMARK  status: ('A' for Active; 'I' for Inactive)
REMARK    1  A    between atoms: C_7  and  C_8 
REMARK       I    between atoms: C_8  and  N_9 
REMARK    2  A    between atoms: N_9  and  C_10 
REMARK    3  A    between atoms: C_10  and  C_11 
REMARK    4  A    between atoms: C_11  and  O_12 
REMARK    5  A    between atoms: C_11  and  C_13 
ROOT
HETATM    1  C   UNL     1     -40.999  54.813 -53.220  1.00  0.00     0.254 C 
HETATM    2  N   UNL     1     -42.221  55.337 -52.867  1.00  0.00    -0.354 N 
HETATM    3  O   UNL     1     -40.364  55.248 -54.177  1.00  0.00    -0.268 OA
HETATM    4  H   UNL     1     -42.785  54.854 -52.185  1.00  0.00     0.162 HD
ENDROOT
BRANCH   2   5
HETATM    5  C   UNL     1     -42.800  56.478 -53.560  1.00  0.00     0.159 C 
BRANCH   5   6
HETATM    6  C   UNL     1     -43.756  56.061 -54.698  1.00  0.00     0.175 C 
BRANCH   6   7
HETATM    7  O   UNL     1     -45.080  56.526 -54.405  1.00  0.00    -0.389 OA
HETATM    8  H   UNL     1     -45.178  56.443 -53.441  1.00  0.00     0.210 HD
ENDBRANCH   6   7
BRANCH   6   9
HETATM    9  C   UNL     1     -43.348  56.609 -56.039  1.00  0.00     0.049 A 
HETATM   10  C   UNL     1     -43.133  55.746 -57.117  1.00  0.00     0.128 A 
HETATM   11  F   UNL     1     -43.285  54.424 -56.959  1.00  0.00    -0.205 F 
HETATM   12  C   UNL     1     -42.753  56.221 -58.374  1.00  0.00     0.043 A 
HETATM   13  C   UNL     1     -42.579  57.587 -58.576  1.00  0.00     0.006 A 
HETATM   14  C   UNL     1     -42.790  58.467 -57.519  1.00  0.00     0.043 A 
HETATM   15  C   UNL     1     -43.173  57.976 -56.269  1.00  0.00     0.128 A 
HETATM   16  F   UNL     1     -43.357  58.857 -55.276  1.00  0.00    -0.205 F 
ENDBRANCH   6   9
ENDBRANCH   5   6
ENDBRANCH   2   5
BRANCH   1  17
HETATM   17  C   UNL     1     -40.542  53.678 -52.412  1.00  0.00     0.066 A 
HETATM   18  C   UNL     1     -40.237  53.654 -51.050  1.00  0.00     0.022 A 
HETATM   19  C   UNL     1     -40.218  54.708 -50.000  1.00  0.00     0.069 C 
HETATM   20  N   UNL     1     -39.852  52.371 -50.734  1.00  0.00    -0.358 N 
HETATM   21  H   UNL     1     -39.569  52.059 -49.814  1.00  0.00     0.166 HD
HETATM   22  C   UNL     1     -39.848  51.570 -51.847  1.00  0.00     0.043 A 
HETATM   23  C   UNL     1     -40.269  52.356 -52.916  1.00  0.00     0.008 A 
HETATM   24  C   UNL     1     -39.496  50.221 -51.983  1.00  0.00     0.030 A 
HETATM   25  C   UNL     1     -40.345  51.755 -54.192  1.00  0.00     0.015 A 
HETATM   26  C   UNL     1     -39.996  50.409 -54.349  1.00  0.00     0.001 A 
HETATM   27  C   UNL     1     -39.578  49.654 -53.257  1.00  0.00     0.002 A 
ENDBRANCH   1  17
TORSDOF 5
ENDMDL
MODEL 2
REMARK VINA RESULT:      -8.3      0.201      1.688
REMARK  5 active torsions:
REMARK  status: ('A' for Active; 'I' for Inactive)
REMARK    1  A    between atoms: C_7  and  C_8 
REMARK       I    between atoms: C_8  and  N_9 
REMARK    2  A    between atoms: N_9  and  C_10 
REMARK    3  A    between atoms: C_10  and  C_11 
REMARK    4  A    between atoms: C_11  and  O_12 
REMARK    5  A    between atoms: C_11  and  C_13 
ROOT
HETATM    1  C   UNL     1     -41.034  54.798 -53.162  1.00  0.00     0.254 C 
HETATM    2  N   UNL     1     -42.272  55.279 -52.803  1.00  0.00    -0.354 N 
HETATM    3  O   UNL     1     -40.402  55.283 -54.097  1.00  0.00    -0.268 OA
HETATM    4  H   UNL     1     -42.830  54.759 -52.142  1.00  0.00     0.162 HD
ENDROOT
BRANCH   2   5
HETATM    5  C   UNL     1     -42.873  56.430 -53.460  1.00  0.00     0.159 C 
BRANCH   5   6
HETATM    6  C   UNL     1     -43.755  56.035 -54.663  1.00  0.00     0.175 C 
BRANCH   6   7
HETATM    7  O   UNL     1     -45.116  56.402 -54.400  1.00  0.00    -0.389 OA
HETATM    8  H   UNL     1     -45.563  55.578 -54.143  1.00  0.00     0.210 HD
ENDBRANCH   6   7
BRANCH   6   9
HETATM    9  C   UNL     1     -43.327  56.691 -55.948  1.00  0.00     0.049 A 
HETATM   10  C   UNL     1     -43.164  58.077 -56.012  1.00  0.00     0.128 A 
HETATM   11  F   UNL     1     -43.393  58.830 -54.928  1.00  0.00    -0.205 F 
HETATM   12  C   UNL     1     -42.770  58.717 -57.189  1.00  0.00     0.043 A 
HETATM   13  C   UNL     1     -42.528  57.969 -58.338  1.00  0.00     0.006 A 
HETATM   14  C   UNL     1     -42.682  56.586 -58.299  1.00  0.00     0.043 A 
HETATM   15  C   UNL     1     -43.074  55.962 -57.113  1.00  0.00     0.128 A 
HETATM   16  F   UNL     1     -43.218  54.629 -57.122  1.00  0.00    -0.205 F 
ENDBRANCH   6   9
ENDBRANCH   5   6
ENDBRANCH   2   5
BRANCH   1  17
HETATM   17  C   UNL     1     -40.556  53.647 -52.390  1.00  0.00     0.066 A 
HETATM   18  C   UNL     1     -40.222  53.593 -51.036  1.00  0.00     0.022 A 
HETATM   19  C   UNL     1     -40.186  54.623 -49.962  1.00  0.00     0.069 C 
HETATM   20  N   UNL     1     -39.827  52.305 -50.757  1.00  0.00    -0.358 N 
HETATM   21  H   UNL     1     -39.523  51.973 -49.852  1.00  0.00     0.166 HD
HETATM   22  C   UNL     1     -39.843  51.530 -51.888  1.00  0.00     0.043 A 
HETATM   23  C   UNL     1     -40.289  52.339 -52.931  1.00  0.00     0.008 A 
HETATM   24  C   UNL     1     -39.489  50.186 -52.063  1.00  0.00     0.030 A 
HETATM   25  C   UNL     1     -40.389  51.767 -54.218  1.00  0.00     0.015 A 
HETATM   26  C   UNL     1     -40.039  50.426 -54.413  1.00  0.00     0.001 A 
HETATM   27  C   UNL     1     -39.595  49.648 -53.348  1.00  0.00     0.002 A 
ENDBRANCH   1  17
TORSDOF 5
ENDMDL
MODEL 3
REMARK VINA RESULT:      -8.3      2.176      3.438
REMARK  5 active torsions:
REMARK  status: ('A' for Active; 'I' for Inactive)
REMARK    1  A    between atoms: C_7  and  C_8 
REMARK       I    between atoms: C_8  and  N_9 
REMARK    2  A    between atoms: N_9  and  C_10 
REMARK    3  A    between atoms: C_10  and  C_11 
REMARK    4  A    between atoms: C_11  and  O_12 
REMARK    5  A    between atoms: C_11  and  C_13 
ROOT
HETATM    1  C   UNL     1     -41.008  54.527 -53.511  1.00  0.00     0.254 C 
HETATM    2  N   UNL     1     -42.360  54.780 -53.500  1.00  0.00    -0.354 N 
HETATM    3  O   UNL     1     -40.244  55.146 -54.247  1.00  0.00    -0.268 OA
HETATM    4  H   UNL     1     -42.975  54.149 -53.008  1.00  0.00     0.162 HD
ENDROOT
BRANCH   2   5
HETATM    5  C   UNL     1     -42.954  55.837 -54.304  1.00  0.00     0.159 C 
BRANCH   5   6
HETATM    6  C   UNL     1     -43.407  57.046 -53.459  1.00  0.00     0.175 C 
BRANCH   6   7
HETATM    7  O   UNL     1     -44.402  56.625 -52.516  1.00  0.00    -0.389 OA
HETATM    8  H   UNL     1     -43.913  56.175 -51.806  1.00  0.00     0.210 HD
ENDBRANCH   6   7
BRANCH   6   9
HETATM    9  C   UNL     1     -42.279  57.691 -52.701  1.00  0.00     0.049 A 
HETATM   10  C   UNL     1     -41.347  58.490 -53.367  1.00  0.00     0.128 A 
HETATM   11  F   UNL     1     -41.452  58.683 -54.690  1.00  0.00    -0.205 F 
HETATM   12  C   UNL     1     -40.287  59.101 -52.694  1.00  0.00     0.043 A 
HETATM   13  C   UNL     1     -40.140  58.920 -51.321  1.00  0.00     0.006 A 
HETATM   14  C   UNL     1     -41.058  58.130 -50.634  1.00  0.00     0.043 A 
HETATM   15  C   UNL     1     -42.113  57.529 -51.322  1.00  0.00     0.128 A 
HETATM   16  F   UNL     1     -42.968  56.769 -50.623  1.00  0.00    -0.205 F 
ENDBRANCH   6   9
ENDBRANCH   5   6
ENDBRANCH   2   5
BRANCH   1  17
HETATM   17  C   UNL     1     -40.561  53.444 -52.629  1.00  0.00     0.066 A 
HETATM   18  C   UNL     1     -40.317  53.492 -51.256  1.00  0.00     0.022 A 
HETATM   19  C   UNL     1     -40.372  54.595 -50.258  1.00  0.00     0.069 C 
HETATM   20  N   UNL     1     -39.917  52.237 -50.861  1.00  0.00    -0.358 N 
HETATM   21  H   UNL     1     -39.669  51.976 -49.916  1.00  0.00     0.166 HD
HETATM   22  C   UNL     1     -39.843  51.384 -51.933  1.00  0.00     0.043 A 
HETATM   23  C   UNL     1     -40.234  52.108 -53.057  1.00  0.00     0.008 A 
HETATM   24  C   UNL     1     -39.454  50.040 -51.988  1.00  0.00     0.030 A 
HETATM   25  C   UNL     1     -40.237  51.445 -54.304  1.00  0.00     0.015 A 
HETATM   26  C   UNL     1     -39.850  50.103 -54.380  1.00  0.00     0.001 A 
HETATM   27  C   UNL     1     -39.463  49.412 -53.235  1.00  0.00     0.002 A 
ENDBRANCH   1  17
TORSDOF 5
ENDMDL
MODEL 4
REMARK VINA RESULT:      -8.2      2.894      4.311
REMARK  5 active torsions:
REMARK  status: ('A' for Active; 'I' for Inactive)
REMARK    1  A    between atoms: C_7  and  C_8 
REMARK       I    between atoms: C_8  and  N_9 
REMARK    2  A    between atoms: N_9  and  C_10 
REMARK    3  A    between atoms: C_10  and  C_11 
REMARK    4  A    between atoms: C_11  and  O_12 
REMARK    5  A    between atoms: C_11  and  C_13 
ROOT
HETATM    1  C   UNL     1     -41.929  55.408 -52.679  1.00  0.00     0.254 C 
HETATM    2  N   UNL     1     -41.181  56.188 -53.530  1.00  0.00    -0.354 N 
HETATM    3  O   UNL     1     -43.112  55.652 -52.456  1.00  0.00    -0.268 OA
HETATM    4  H   UNL     1     -40.181  56.060 -53.565  1.00  0.00     0.162 HD
ENDROOT
BRANCH   2   5
HETATM    5  C   UNL     1     -41.761  57.301 -54.267  1.00  0.00     0.159 C 
BRANCH   5   6
HETATM    6  C   UNL     1     -40.999  58.624 -54.045  1.00  0.00     0.175 C 
BRANCH   6   7
HETATM    7  O   UNL     1     -41.673  59.686 -54.732  1.00  0.00    -0.389 OA
HETATM    8  H   UNL     1     -40.994  60.115 -55.280  1.00  0.00     0.210 HD
ENDBRANCH   6   7
BRANCH   6   9
HETATM    9  C   UNL     1     -40.881  58.999 -52.592  1.00  0.00     0.049 A 
HETATM   10  C   UNL     1     -39.624  59.162 -52.006  1.00  0.00     0.128 A 
HETATM   11  F   UNL     1     -38.514  58.980 -52.735  1.00  0.00    -0.205 F 
HETATM   12  C   UNL     1     -39.479  59.508 -50.661  1.00  0.00     0.043 A 
HETATM   13  C   UNL     1     -40.608  59.699 -49.868  1.00  0.00     0.006 A 
HETATM   14  C   UNL     1     -41.872  59.545 -50.431  1.00  0.00     0.043 A 
HETATM   15  C   UNL     1     -41.998  59.202 -51.778  1.00  0.00     0.128 A 
HETATM   16  F   UNL     1     -43.234  59.055 -52.277  1.00  0.00    -0.205 F 
ENDBRANCH   6   9
ENDBRANCH   5   6
ENDBRANCH   2   5
BRANCH   1  17
HETATM   17  C   UNL     1     -41.205  54.312 -52.027  1.00  0.00     0.066 A 
HETATM   18  C   UNL     1     -40.786  54.222 -50.699  1.00  0.00     0.022 A 
HETATM   19  C   UNL     1     -40.872  55.159 -49.547  1.00  0.00     0.069 C 
HETATM   20  N   UNL     1     -40.148  53.013 -50.547  1.00  0.00    -0.358 N 
HETATM   21  H   UNL     1     -39.736  52.677 -49.687  1.00  0.00     0.166 HD
HETATM   22  C   UNL     1     -40.092  52.332 -51.736  1.00  0.00     0.043 A 
HETATM   23  C   UNL     1     -40.739  53.119 -52.687  1.00  0.00     0.008 A 
HETATM   24  C   UNL     1     -39.512  51.094 -52.038  1.00  0.00     0.030 A 
HETATM   25  C   UNL     1     -40.811  52.634 -54.011  1.00  0.00     0.015 A 
HETATM   26  C   UNL     1     -40.237  51.400 -54.332  1.00  0.00     0.001 A 
HETATM   27  C   UNL     1     -39.596  50.641 -53.357  1.00  0.00     0.002 A 
ENDBRANCH   1  17
TORSDOF 5
ENDMDL
MODEL 5
REMARK VINA RESULT:      -8.2      2.209      3.439
REMARK  5 active torsions:
REMARK  status: ('A' for Active; 'I' for Inactive)
REMARK    1  A    between atoms: C_7  and  C_8 
REMARK       I    between atoms: C_8  and  N_9 
REMARK    2  A    between atoms: N_9  and  C_10 
REMARK    3  A    between atoms: C_10  and  C_11 
REMARK    4  A    between atoms: C_11  and  O_12 
REMARK    5  A    between atoms: C_11  and  C_13 
ROOT
HETATM    1  C   UNL     1     -41.026  54.516 -53.477  1.00  0.00     0.254 C 
HETATM    2  N   UNL     1     -42.377  54.770 -53.443  1.00  0.00    -0.354 N 
HETATM    3  O   UNL     1     -40.275  55.130 -54.229  1.00  0.00    -0.268 OA
HETATM    4  H   UNL     1     -42.984  54.142 -52.938  1.00  0.00     0.162 HD
ENDROOT
BRANCH   2   5
HETATM    5  C   UNL     1     -42.984  55.825 -54.241  1.00  0.00     0.159 C 
BRANCH   5   6
HETATM    6  C   UNL     1     -43.420  57.038 -53.394  1.00  0.00     0.175 C 
BRANCH   6   7
HETATM    7  O   UNL     1     -44.398  56.624 -52.431  1.00  0.00    -0.389 OA
HETATM    8  H   UNL     1     -43.987  56.772 -51.562  1.00  0.00     0.210 HD
ENDBRANCH   6   7
BRANCH   6   9
HETATM    9  C   UNL     1     -42.276  57.684 -52.659  1.00  0.00     0.049 A 
HETATM   10  C   UNL     1     -42.134  57.508 -51.280  1.00  0.00     0.128 A 
HETATM   11  F   UNL     1     -43.022  56.765 -50.603  1.00  0.00    -0.205 F 
HETATM   12  C   UNL     1     -41.086  58.094 -50.568  1.00  0.00     0.043 A 
HETATM   13  C   UNL     1     -40.148  58.878 -51.234  1.00  0.00     0.006 A 
HETATM   14  C   UNL     1     -40.266  59.066 -52.608  1.00  0.00     0.043 A 
HETATM   15  C   UNL     1     -41.319  58.471 -53.305  1.00  0.00     0.128 A 
HETATM   16  F   UNL     1     -41.400  58.685 -54.626  1.00  0.00    -0.205 F 
ENDBRANCH   6   9
ENDBRANCH   5   6
ENDBRANCH   2   5
BRANCH   1  17
HETATM   17  C   UNL     1     -40.565  53.436 -52.598  1.00  0.00     0.066 A 
HETATM   18  C   UNL     1     -40.302  53.489 -51.229  1.00  0.00     0.022 A 
HETATM   19  C   UNL     1     -40.344  54.595 -50.234  1.00  0.00     0.069 C 
HETATM   20  N   UNL     1     -39.894  52.235 -50.836  1.00  0.00    -0.358 N 
HETATM   21  H   UNL     1     -39.632  51.977 -49.894  1.00  0.00     0.166 HD
HETATM   22  C   UNL     1     -39.834  51.380 -51.906  1.00  0.00     0.043 A 
HETATM   23  C   UNL     1     -40.242  52.099 -53.027  1.00  0.00     0.008 A 
HETATM   24  C   UNL     1     -39.442  50.036 -51.963  1.00  0.00     0.030 A 
HETATM   25  C   UNL     1     -40.261  51.433 -54.272  1.00  0.00     0.015 A 
HETATM   26  C   UNL     1     -39.872  50.091 -54.349  1.00  0.00     0.001 A 
HETATM   27  C   UNL     1     -39.468  49.404 -53.208  1.00  0.00     0.002 A 
ENDBRANCH   1  17
TORSDOF 5
ENDMDL
MODEL 6
REMARK VINA RESULT:      -8.2      1.279      1.458
REMARK  5 active torsions:
REMARK  status: ('A' for Active; 'I' for Inactive)
REMARK    1  A    between atoms: C_7  and  C_8 
REMARK       I    between atoms: C_8  and  N_9 
REMARK    2  A    between atoms: N_9  and  C_10 
REMARK    3  A    between atoms: C_10  and  C_11 
REMARK    4  A    between atoms: C_11  and  O_12 
REMARK    5  A    between atoms: C_11  and  C_13 
ROOT
HETATM    1  C   UNL     1     -42.057  55.438 -53.047  1.00  0.00     0.254 C 
HETATM    2  N   UNL     1     -41.417  56.043 -54.104  1.00  0.00    -0.354 N 
HETATM    3  O   UNL     1     -43.196  55.756 -52.718  1.00  0.00    -0.268 OA
HETATM    4  H   UNL     1     -40.432  55.875 -54.245  1.00  0.00     0.162 HD
ENDROOT
BRANCH   2   5
HETATM    5  C   UNL     1     -42.073  57.042 -54.934  1.00  0.00     0.159 C 
BRANCH   5   6
HETATM    6  C   UNL     1     -43.108  56.428 -55.900  1.00  0.00     0.175 C 
BRANCH   6   7
HETATM    7  O   UNL     1     -44.413  56.930 -55.585  1.00  0.00    -0.389 OA
HETATM    8  H   UNL     1     -44.524  57.729 -56.129  1.00  0.00     0.210 HD
ENDBRANCH   6   7
BRANCH   6   9
HETATM    9  C   UNL     1     -42.819  56.733 -57.345  1.00  0.00     0.049 A 
HETATM   10  C   UNL     1     -43.079  55.780 -58.333  1.00  0.00     0.128 A 
HETATM   11  F   UNL     1     -43.584  54.585 -57.996  1.00  0.00    -0.205 F 
HETATM   12  C   UNL     1     -42.820  56.031 -59.682  1.00  0.00     0.043 A 
HETATM   13  C   UNL     1     -42.290  57.258 -60.071  1.00  0.00     0.006 A 
HETATM   14  C   UNL     1     -42.026  58.225 -59.105  1.00  0.00     0.043 A 
HETATM   15  C   UNL     1     -42.292  57.959 -57.761  1.00  0.00     0.128 A 
HETATM   16  F   UNL     1     -42.014  58.915 -56.863  1.00  0.00    -0.205 F 
ENDBRANCH   6   9
ENDBRANCH   5   6
ENDBRANCH   2   5
BRANCH   1  17
HETATM   17  C   UNL     1     -41.269  54.436 -52.323  1.00  0.00     0.066 A 
HETATM   18  C   UNL     1     -40.787  54.496 -51.015  1.00  0.00     0.022 A 
HETATM   19  C   UNL     1     -40.850  55.546 -49.962  1.00  0.00     0.069 C 
HETATM   20  N   UNL     1     -40.103  53.328 -50.770  1.00  0.00    -0.358 N 
HETATM   21  H   UNL     1     -39.641  53.095 -49.901  1.00  0.00     0.166 HD
HETATM   22  C   UNL     1     -40.079  52.529 -51.884  1.00  0.00     0.043 A 
HETATM   23  C   UNL     1     -40.795  53.194 -52.878  1.00  0.00     0.008 A 
HETATM   24  C   UNL     1     -39.474  51.282 -52.085  1.00  0.00     0.030 A 
HETATM   25  C   UNL     1     -40.911  52.572 -54.140  1.00  0.00     0.015 A 
HETATM   26  C   UNL     1     -40.313  51.327 -54.360  1.00  0.00     0.001 A 
HETATM   27  C   UNL     1     -39.604  50.692 -53.345  1.00  0.00     0.002 A 
ENDBRANCH   1  17
TORSDOF 5
ENDMDL
MODEL 7
REMARK VINA RESULT:      -7.9      2.992      6.918
REMARK  5 active torsions:
REMARK  status: ('A' for Active; 'I' for Inactive)
REMARK    1  A    between atoms: C_7  and  C_8 
REMARK       I    between atoms: C_8  and  N_9 
REMARK    2  A    between atoms: N_9  and  C_10 
REMARK    3  A    between atoms: C_10  and  C_11 
REMARK    4  A    between atoms: C_11  and  O_12 
REMARK    5  A    between atoms: C_11  and  C_13 
ROOT
HETATM    1  C   UNL     1     -43.045  55.261 -53.247  1.00  0.00     0.254 C 
HETATM    2  N   UNL     1     -42.382  54.930 -54.406  1.00  0.00    -0.354 N 
HETATM    3  O   UNL     1     -43.501  54.401 -52.499  1.00  0.00    -0.268 OA
HETATM    4  H   UNL     1     -42.166  55.655 -55.074  1.00  0.00     0.162 HD
ENDROOT
BRANCH   2   5
HETATM    5  C   UNL     1     -42.123  53.547 -54.778  1.00  0.00     0.159 C 
BRANCH   5   6
HETATM    6  C   UNL     1     -40.620  53.197 -54.760  1.00  0.00     0.175 C 
BRANCH   6   7
HETATM    7  O   UNL     1     -39.848  54.403 -54.682  1.00  0.00    -0.389 OA
HETATM    8  H   UNL     1     -39.029  54.159 -54.218  1.00  0.00     0.210 HD
ENDBRANCH   6   7
BRANCH   6   9
HETATM    9  C   UNL     1     -40.236  52.314 -53.603  1.00  0.00     0.049 A 
HETATM   10  C   UNL     1     -39.945  50.964 -53.813  1.00  0.00     0.128 A 
HETATM   11  F   UNL     1     -40.012  50.447 -55.048  1.00  0.00    -0.205 F 
HETATM   12  C   UNL     1     -39.587  50.117 -52.762  1.00  0.00     0.043 A 
HETATM   13  C   UNL     1     -39.512  50.615 -51.464  1.00  0.00     0.006 A 
HETATM   14  C   UNL     1     -39.794  51.958 -51.230  1.00  0.00     0.043 A 
HETATM   15  C   UNL     1     -40.148  52.792 -52.293  1.00  0.00     0.128 A 
HETATM   16  F   UNL     1     -40.420  54.076 -52.021  1.00  0.00    -0.205 F 
ENDBRANCH   6   9
ENDBRANCH   5   6
ENDBRANCH   2   5
BRANCH   1  17
HETATM   17  C   UNL     1     -43.209  56.698 -53.003  1.00  0.00     0.066 A 
HETATM   18  C   UNL     1     -44.084  57.587 -53.627  1.00  0.00     0.022 A 
HETATM   19  C   UNL     1     -45.074  57.426 -54.727  1.00  0.00     0.069 C 
HETATM   20  N   UNL     1     -43.882  58.829 -53.070  1.00  0.00    -0.358 N 
HETATM   21  H   UNL     1     -44.377  59.671 -53.332  1.00  0.00     0.166 HD
HETATM   22  C   UNL     1     -42.873  58.793 -52.142  1.00  0.00     0.043 A 
HETATM   23  C   UNL     1     -42.425  57.476 -52.078  1.00  0.00     0.008 A 
HETATM   24  C   UNL     1     -42.325  59.825 -51.369  1.00  0.00     0.030 A 
HETATM   25  C   UNL     1     -41.371  57.177 -51.187  1.00  0.00     0.015 A 
HETATM   26  C   UNL     1     -40.809  58.194 -50.407  1.00  0.00     0.001 A 
HETATM   27  C   UNL     1     -41.282  59.500 -50.499  1.00  0.00     0.002 A 
ENDBRANCH   1  17
TORSDOF 5
ENDMDL
MODEL 8
REMARK VINA RESULT:      -7.8      2.504      3.700
REMARK  5 active torsions:
REMARK  status: ('A' for Active; 'I' for Inactive)
REMARK    1  A    between atoms: C_7  and  C_8 
REMARK       I    between atoms: C_8  and  N_9 
REMARK    2  A    between atoms: N_9  and  C_10 
REMARK    3  A    between atoms: C_10  and  C_11 
REMARK    4  A    between atoms: C_11  and  O_12 
REMARK    5  A    between atoms: C_11  and  C_13 
ROOT
HETATM    1  C   UNL     1     -41.180  54.447 -51.500  1.00  0.00     0.254 C 
HETATM    2  N   UNL     1     -42.531  54.699 -51.554  1.00  0.00    -0.354 N 
HETATM    3  O   UNL     1     -40.447  55.036 -50.710  1.00  0.00    -0.268 OA
HETATM    4  H   UNL     1     -43.073  54.321 -52.317  1.00  0.00     0.162 HD
ENDROOT
BRANCH   2   5
HETATM    5  C   UNL     1     -43.181  55.622 -50.636  1.00  0.00     0.159 C 
BRANCH   5   6
HETATM    6  C   UNL     1     -43.953  56.742 -51.364  1.00  0.00     0.175 C 
BRANCH   6   7
HETATM    7  O   UNL     1     -44.543  57.623 -50.399  1.00  0.00    -0.389 OA
HETATM    8  H   UNL     1     -43.876  57.726 -49.699  1.00  0.00     0.210 HD
ENDBRANCH   6   7
BRANCH   6   9
HETATM    9  C   UNL     1     -43.081  57.558 -52.279  1.00  0.00     0.049 A 
HETATM   10  C   UNL     1     -41.960  58.224 -51.778  1.00  0.00     0.128 A 
HETATM   11  F   UNL     1     -41.658  58.142 -50.474  1.00  0.00    -0.205 F 
HETATM   12  C   UNL     1     -41.132  58.991 -52.599  1.00  0.00     0.043 A 
HETATM   13  C   UNL     1     -41.415  59.106 -53.958  1.00  0.00     0.006 A 
HETATM   14  C   UNL     1     -42.525  58.449 -54.482  1.00  0.00     0.043 A 
HETATM   15  C   UNL     1     -43.342  57.684 -53.647  1.00  0.00     0.128 A 
HETATM   16  F   UNL     1     -44.405  57.076 -54.191  1.00  0.00    -0.205 F 
ENDBRANCH   6   9
ENDBRANCH   5   6
ENDBRANCH   2   5
BRANCH   1  17
HETATM   17  C   UNL     1     -40.680  53.476 -52.478  1.00  0.00     0.066 A 
HETATM   18  C   UNL     1     -40.558  53.625 -53.860  1.00  0.00     0.022 A 
HETATM   19  C   UNL     1     -40.909  54.731 -54.792  1.00  0.00     0.069 C 
HETATM   20  N   UNL     1     -40.042  52.452 -54.360  1.00  0.00    -0.358 N 
HETATM   21  H   UNL     1     -39.849  52.271 -55.337  1.00  0.00     0.166 HD
HETATM   22  C   UNL     1     -39.869  51.526 -53.364  1.00  0.00     0.043 A 
HETATM   23  C   UNL     1     -40.263  52.131 -52.173  1.00  0.00     0.008 A 
HETATM   24  C   UNL     1     -39.404  50.206 -53.433  1.00  0.00     0.030 A 
HETATM   25  C   UNL     1     -40.184  51.371 -50.985  1.00  0.00     0.015 A 
HETATM   26  C   UNL     1     -39.724  50.051 -51.033  1.00  0.00     0.001 A 
HETATM   27  C   UNL     1     -39.340  49.478 -52.242  1.00  0.00     0.002 A 
ENDBRANCH   1  17
TORSDOF 5
ENDMDL
MODEL 9
REMARK VINA RESULT:      -7.7      2.036      4.275
REMARK  5 active torsions:
REMARK  status: ('A' for Active; 'I' for Inactive)
REMARK    1  A    between atoms: C_7  and  C_8 
REMARK       I    between atoms: C_8  and  N_9 
REMARK    2  A    between atoms: N_9  and  C_10 
REMARK    3  A    between atoms: C_10  and  C_11 
REMARK    4  A    between atoms: C_11  and  O_12 
REMARK    5  A    between atoms: C_11  and  C_13 
ROOT
HETATM    1  C   UNL     1     -41.949  54.397 -54.286  1.00  0.00     0.254 C 
HETATM    2  N   UNL     1     -41.465  55.600 -54.743  1.00  0.00    -0.354 N 
HETATM    3  O   UNL     1     -42.975  53.900 -54.743  1.00  0.00    -0.268 OA
HETATM    4  H   UNL     1     -40.719  56.055 -54.238  1.00  0.00     0.162 HD
ENDROOT
BRANCH   2   5
HETATM    5  C   UNL     1     -42.098  56.320 -55.838  1.00  0.00     0.159 C 
BRANCH   5   6
HETATM    6  C   UNL     1     -42.386  57.797 -55.493  1.00  0.00     0.175 C 
BRANCH   6   7
HETATM    7  O   UNL     1     -43.362  58.320 -56.403  1.00  0.00    -0.389 OA
HETATM    8  H   UNL     1     -43.257  57.805 -57.221  1.00  0.00     0.210 HD
ENDBRANCH   6   7
BRANCH   6   9
HETATM    9  C   UNL     1     -42.898  57.984 -54.090  1.00  0.00     0.049 A 
HETATM   10  C   UNL     1     -42.175  58.751 -53.172  1.00  0.00     0.128 A 
HETATM   11  F   UNL     1     -41.018  59.321 -53.537  1.00  0.00    -0.205 F 
HETATM   12  C   UNL     1     -42.621  58.944 -51.863  1.00  0.00     0.043 A 
HETATM   13  C   UNL     1     -43.816  58.364 -51.444  1.00  0.00     0.006 A 
HETATM   14  C   UNL     1     -44.554  57.597 -52.341  1.00  0.00     0.043 A 
HETATM   15  C   UNL     1     -44.096  57.417 -53.647  1.00  0.00     0.128 A 
HETATM   16  F   UNL     1     -44.834  56.664 -54.475  1.00  0.00    -0.205 F 
ENDBRANCH   6   9
ENDBRANCH   5   6
ENDBRANCH   2   5
BRANCH   1  17
HETATM   17  C   UNL     1     -41.188  53.785 -53.192  1.00  0.00     0.066 A 
HETATM   18  C   UNL     1     -40.429  52.615 -53.215  1.00  0.00     0.022 A 
HETATM   19  C   UNL     1     -40.168  51.601 -54.273  1.00  0.00     0.069 C 
HETATM   20  N   UNL     1     -39.899  52.439 -51.958  1.00  0.00    -0.358 N 
HETATM   21  H   UNL     1     -39.306  51.668 -51.679  1.00  0.00     0.166 HD
HETATM   22  C   UNL     1     -40.323  53.423 -51.103  1.00  0.00     0.043 A 
HETATM   23  C   UNL     1     -41.137  54.280 -51.840  1.00  0.00     0.008 A 
HETATM   24  C   UNL     1     -40.055  53.608 -49.740  1.00  0.00     0.030 A 
HETATM   25  C   UNL     1     -41.710  55.386 -51.174  1.00  0.00     0.015 A 
HETATM   26  C   UNL     1     -41.455  55.588 -49.813  1.00  0.00     0.001 A 
HETATM   27  C   UNL     1     -40.638  54.709 -49.108  1.00  0.00     0.002 A 
ENDBRANCH   1  17
TORSDOF 5
ENDMDL
MODEL 10
REMARK VINA RESULT:      -7.7      3.243      4.529
REMARK  5 active torsions:
REMARK  status: ('A' for Active; 'I' for Inactive)
REMARK    1  A    between atoms: C_7  and  C_8 
REMARK       I    between atoms: C_8  and  N_9 
REMARK    2  A    between atoms: N_9  and  C_10 
REMARK    3  A    between atoms: C_10  and  C_11 
REMARK    4  A    between atoms: C_11  and  O_12 
REMARK    5  A    between atoms: C_11  and  C_13 
ROOT
HETATM    1  C   UNL     1     -42.047  55.501 -51.830  1.00  0.00     0.254 C 
HETATM    2  N   UNL     1     -41.348  56.445 -52.547  1.00  0.00    -0.354 N 
HETATM    3  O   UNL     1     -43.224  55.667 -51.524  1.00  0.00    -0.268 OA
HETATM    4  H   UNL     1     -40.348  56.353 -52.640  1.00  0.00     0.162 HD
ENDROOT
BRANCH   2   5
HETATM    5  C   UNL     1     -41.979  57.659 -53.042  1.00  0.00     0.159 C 
BRANCH   5   6
HETATM    6  C   UNL     1     -41.261  58.940 -52.568  1.00  0.00     0.175 C 
BRANCH   6   7
HETATM    7  O   UNL     1     -40.493  59.486 -53.648  1.00  0.00    -0.389 OA
HETATM    8  H   UNL     1     -39.603  59.635 -53.286  1.00  0.00     0.210 HD
ENDBRANCH   6   7
BRANCH   6   9
HETATM    9  C   UNL     1     -42.210  60.000 -52.078  1.00  0.00     0.049 A 
HETATM   10  C   UNL     1     -42.158  60.434 -50.751  1.00  0.00     0.128 A 
HETATM   11  F   UNL     1     -41.264  59.903 -49.905  1.00  0.00    -0.205 F 
HETATM   12  C   UNL     1     -43.025  61.414 -50.264  1.00  0.00     0.043 A 
HETATM   13  C   UNL     1     -43.971  61.986 -51.110  1.00  0.00     0.006 A 
HETATM   14  C   UNL     1     -44.040  61.573 -52.437  1.00  0.00     0.043 A 
HETATM   15  C   UNL     1     -43.165  60.593 -52.909  1.00  0.00     0.128 A 
HETATM   16  F   UNL     1     -43.271  60.218 -54.191  1.00  0.00    -0.205 F 
ENDBRANCH   6   9
ENDBRANCH   5   6
ENDBRANCH   2   5
BRANCH   1  17
HETATM   17  C   UNL     1     -41.276  54.323 -51.420  1.00  0.00     0.066 A 
HETATM   18  C   UNL     1     -40.829  53.983 -50.143  1.00  0.00     0.022 A 
HETATM   19  C   UNL     1     -40.922  54.668 -48.825  1.00  0.00     0.069 C 
HETATM   20  N   UNL     1     -40.149  52.792 -50.244  1.00  0.00    -0.358 N 
HETATM   21  H   UNL     1     -39.710  52.305 -49.474  1.00  0.00     0.166 HD
HETATM   22  C   UNL     1     -40.094  52.365 -51.546  1.00  0.00     0.043 A 
HETATM   23  C   UNL     1     -40.784  53.303 -52.311  1.00  0.00     0.008 A 
HETATM   24  C   UNL     1     -39.480  51.233 -52.097  1.00  0.00     0.030 A 
HETATM   25  C   UNL     1     -40.866  53.091 -53.705  1.00  0.00     0.015 A 
HETATM   26  C   UNL     1     -40.259  51.966 -54.274  1.00  0.00     0.001 A 
HETATM   27  C   UNL     1     -39.575  51.051 -53.479  1.00  0.00     0.002 A 
ENDBRANCH   1  17
TORSDOF 5
ENDMDL
