MODEL 1
REMARK VINA RESULT:      -7.6      0.000      0.000
REMARK  10 active torsions:
REMARK  status: ('A' for Active; 'I' for Inactive)
REMARK    1  A    between atoms: O_2  and  C_3 
REMARK    2  A    between atoms: C_6  and  C_7 
REMARK    3  A    between atoms: C_7  and  C_8 
REMARK    4  A    between atoms: C_8  and  N_9 
REMARK    5  A    between atoms: N_12  and  C_13 
REMARK    6  A    between atoms: C_16  and  O_17 
REMARK    7  A    between atoms: C_23  and  C_24 
REMARK    8  A    between atoms: C_24  and  C_25 
REMARK       I    between atoms: C_25  and  N_26 
REMARK    9  A    between atoms: N_26  and  C_27 
REMARK   10  A    between atoms: C_30  and  O_31 
ROOT
HETATM    1  N   UNL     1     -42.819  58.762 -54.795  1.00  0.00    -0.319 N 
HETATM    2  C   UNL     1     -42.695  59.910 -55.570  1.00  0.00     0.332 A 
HETATM    3  O   UNL     1     -42.927  61.030 -55.136  1.00  0.00    -0.246 OA
HETATM    4  N   UNL     1     -42.337  59.538 -56.852  1.00  0.00    -0.232 N 
HETATM    5  C   UNL     1     -42.270  58.166 -56.921  1.00  0.00     0.256 A 
HETATM    6  O   UNL     1     -42.055  57.450 -57.896  1.00  0.00    -0.270 OA
HETATM    7  C   UNL     1     -42.507  57.560 -55.536  1.00  0.00     0.190 A 
ENDROOT
BRANCH   7   8
HETATM    8  C   UNL     1     -43.620  56.523 -55.611  1.00  0.00     0.138 C 
BRANCH   8   9
HETATM    9  C   UNL     1     -43.239  55.291 -54.808  1.00  0.00     0.224 C 
HETATM   10  N   UNL     1     -41.892  54.996 -54.862  1.00  0.00    -0.327 N 
HETATM   11  H   UNL     1     -41.289  55.661 -55.347  1.00  0.00     0.169 HD
HETATM   12  O   UNL     1     -44.098  54.685 -54.175  1.00  0.00    -0.273 OA
BRANCH  10  13
HETATM   13  C   UNL     1     -41.209  53.933 -54.238  1.00  0.00     0.034 A 
HETATM   14  C   UNL     1     -40.782  52.781 -54.893  1.00  0.00     0.032 A 
HETATM   15  C   UNL     1     -40.108  51.778 -54.183  1.00  0.00     0.039 A 
HETATM   16  C   UNL     1     -39.856  51.910 -52.817  1.00  0.00     0.068 A 
HETATM   17  C   UNL     1     -40.279  53.063 -52.160  1.00  0.00     0.039 A 
HETATM   18  C   UNL     1     -40.950  54.067 -52.868  1.00  0.00     0.032 A 
BRANCH  16  19
HETATM   19  O   UNL     1     -39.194  50.858 -52.248  1.00  0.00    -0.356 OA
HETATM   20  C   UNL     1     -39.673  50.403 -50.988  1.00  0.00     0.210 C 
ENDBRANCH  16  19
ENDBRANCH  10  13
ENDBRANCH   8   9
ENDBRANCH   7   8
BRANCH   1  21
HETATM   21  C   UNL     1     -43.267  58.770 -53.404  1.00  0.00     0.133 C 
BRANCH  21  22
HETATM   22  C   UNL     1     -42.127  58.877 -52.389  1.00  0.00     0.058 C 
BRANCH  22  23
HETATM   23  C   UNL     1     -42.090  57.673 -51.481  1.00  0.00    -0.057 A 
HETATM   24  C   UNL     1     -40.945  57.385 -50.731  1.00  0.00     0.010 A 
HETATM   25  C   UNL     1     -40.902  56.248 -49.921  1.00  0.00     0.037 A 
HETATM   26  C   UNL     1     -41.996  55.384 -49.844  1.00  0.00     0.068 A 
HETATM   27  C   UNL     1     -43.138  55.664 -50.594  1.00  0.00     0.037 A 
HETATM   28  C   UNL     1     -43.183  56.802 -51.409  1.00  0.00     0.010 A 
BRANCH  26  29
HETATM   29  O   UNL     1     -41.821  54.310 -49.015  1.00  0.00    -0.356 OA
HETATM   30  C   UNL     1     -40.556  54.193 -48.376  1.00  0.00     0.210 C 
ENDBRANCH  26  29
ENDBRANCH  22  23
ENDBRANCH  21  22
ENDBRANCH   1  21
BRANCH   4  31
HETATM   31  C   UNL     1     -42.141  60.434 -57.949  1.00  0.00     0.047 A 
HETATM   32  C   UNL     1     -40.968  61.192 -58.077  1.00  0.00     0.033 A 
HETATM   33  C   UNL     1     -40.777  62.068 -59.155  1.00  0.00     0.039 A 
HETATM   34  C   UNL     1     -41.754  62.224 -60.134  1.00  0.00     0.068 A 
HETATM   35  C   UNL     1     -42.924  61.482 -60.028  1.00  0.00     0.039 A 
HETATM   36  C   UNL     1     -43.109  60.598 -58.953  1.00  0.00     0.033 A 
BRANCH  34  37
HETATM   37  O   UNL     1     -41.449  63.113 -61.124  1.00  0.00    -0.356 OA
HETATM   38  C   UNL     1     -40.188  62.954 -61.764  1.00  0.00     0.210 C 
ENDBRANCH  34  37
ENDBRANCH   4  31
TORSDOF 10
ENDMDL
MODEL 2
REMARK VINA RESULT:      -7.5      2.345      2.987
REMARK  10 active torsions:
REMARK  status: ('A' for Active; 'I' for Inactive)
REMARK    1  A    between atoms: O_2  and  C_3 
REMARK    2  A    between atoms: C_6  and  C_7 
REMARK    3  A    between atoms: C_7  and  C_8 
REMARK    4  A    between atoms: C_8  and  N_9 
REMARK    5  A    between atoms: N_12  and  C_13 
REMARK    6  A    between atoms: C_16  and  O_17 
REMARK    7  A    between atoms: C_23  and  C_24 
REMARK    8  A    between atoms: C_24  and  C_25 
REMARK       I    between atoms: C_25  and  N_26 
REMARK    9  A    between atoms: N_26  and  C_27 
REMARK   10  A    between atoms: C_30  and  O_31 
ROOT
HETATM    1  N   UNL     1     -43.892  57.341 -55.604  1.00  0.00    -0.319 N 
HETATM    2  C   UNL     1     -44.740  58.132 -56.372  1.00  0.00     0.332 A 
HETATM    3  O   UNL     1     -45.696  58.731 -55.898  1.00  0.00    -0.246 OA
HETATM    4  N   UNL     1     -44.337  58.056 -57.692  1.00  0.00    -0.232 N 
HETATM    5  C   UNL     1     -43.268  57.195 -57.787  1.00  0.00     0.256 A 
HETATM    6  O   UNL     1     -42.674  56.809 -58.792  1.00  0.00    -0.270 OA
HETATM    7  C   UNL     1     -42.849  56.724 -56.394  1.00  0.00     0.190 A 
ENDROOT
BRANCH   7   8
HETATM    8  C   UNL     1     -42.805  55.202 -56.356  1.00  0.00     0.138 C 
BRANCH   8   9
HETATM    9  C   UNL     1     -41.739  54.736 -55.379  1.00  0.00     0.224 C 
HETATM   10  N   UNL     1     -41.917  53.436 -54.952  1.00  0.00    -0.327 N 
HETATM   11  H   UNL     1     -42.672  52.902 -55.387  1.00  0.00     0.169 HD
HETATM   12  O   UNL     1     -40.824  55.491 -55.067  1.00  0.00    -0.273 OA
BRANCH  10  13
HETATM   13  C   UNL     1     -41.120  52.698 -54.054  1.00  0.00     0.034 A 
HETATM   14  C   UNL     1     -40.513  51.484 -54.357  1.00  0.00     0.032 A 
HETATM   15  C   UNL     1     -39.737  50.825 -53.393  1.00  0.00     0.039 A 
HETATM   16  C   UNL     1     -39.561  51.368 -52.119  1.00  0.00     0.068 A 
HETATM   17  C   UNL     1     -40.165  52.586 -51.814  1.00  0.00     0.039 A 
HETATM   18  C   UNL     1     -40.938  53.245 -52.777  1.00  0.00     0.032 A 
BRANCH  16  19
HETATM   19  O   UNL     1     -38.785  50.622 -51.276  1.00  0.00    -0.356 OA
HETATM   20  C   UNL     1     -39.395  49.484 -50.680  1.00  0.00     0.210 C 
ENDBRANCH  16  19
ENDBRANCH  10  13
ENDBRANCH   8   9
ENDBRANCH   7   8
BRANCH   1  21
HETATM   21  C   UNL     1     -44.072  57.117 -54.172  1.00  0.00     0.133 C 
BRANCH  21  22
HETATM   22  C   UNL     1     -42.962  57.723 -53.309  1.00  0.00     0.058 C 
BRANCH  22  23
HETATM   23  C   UNL     1     -42.604  56.810 -52.162  1.00  0.00    -0.057 A 
HETATM   24  C   UNL     1     -43.515  55.850 -51.709  1.00  0.00     0.010 A 
HETATM   25  C   UNL     1     -43.193  55.033 -50.622  1.00  0.00     0.037 A 
HETATM   26  C   UNL     1     -41.963  55.159 -49.973  1.00  0.00     0.068 A 
HETATM   27  C   UNL     1     -41.054  56.118 -50.418  1.00  0.00     0.037 A 
HETATM   28  C   UNL     1     -41.375  56.940 -51.505  1.00  0.00     0.010 A 
BRANCH  26  29
HETATM   29  O   UNL     1     -41.778  54.299 -48.926  1.00  0.00    -0.356 OA
HETATM   30  C   UNL     1     -40.494  54.296 -48.317  1.00  0.00     0.210 C 
ENDBRANCH  26  29
ENDBRANCH  22  23
ENDBRANCH  21  22
ENDBRANCH   1  21
BRANCH   4  31
HETATM   31  C   UNL     1     -44.976  58.711 -58.790  1.00  0.00     0.047 A 
HETATM   32  C   UNL     1     -46.120  58.178 -59.400  1.00  0.00     0.033 A 
HETATM   33  C   UNL     1     -46.745  58.824 -60.476  1.00  0.00     0.039 A 
HETATM   34  C   UNL     1     -46.243  60.017 -60.984  1.00  0.00     0.068 A 
HETATM   35  C   UNL     1     -45.111  60.567 -60.395  1.00  0.00     0.039 A 
HETATM   36  C   UNL     1     -44.492  59.922 -59.312  1.00  0.00     0.033 A 
BRANCH  34  37
HETATM   37  O   UNL     1     -46.939  60.539 -62.037  1.00  0.00    -0.356 OA
HETATM   38  C   UNL     1     -47.828  61.612 -61.752  1.00  0.00     0.210 C 
ENDBRANCH  34  37
ENDBRANCH   4  31
TORSDOF 10
ENDMDL
MODEL 3
REMARK VINA RESULT:      -7.4      3.460      7.334
REMARK  10 active torsions:
REMARK  status: ('A' for Active; 'I' for Inactive)
REMARK    1  A    between atoms: O_2  and  C_3 
REMARK    2  A    between atoms: C_6  and  C_7 
REMARK    3  A    between atoms: C_7  and  C_8 
REMARK    4  A    between atoms: C_8  and  N_9 
REMARK    5  A    between atoms: N_12  and  C_13 
REMARK    6  A    between atoms: C_16  and  O_17 
REMARK    7  A    between atoms: C_23  and  C_24 
REMARK    8  A    between atoms: C_24  and  C_25 
REMARK       I    between atoms: C_25  and  N_26 
REMARK    9  A    between atoms: N_26  and  C_27 
REMARK   10  A    between atoms: C_30  and  O_31 
ROOT
HETATM    1  N   UNL     1     -41.917  58.091 -51.814  1.00  0.00    -0.319 N 
HETATM    2  C   UNL     1     -41.903  59.152 -50.915  1.00  0.00     0.332 A 
HETATM    3  O   UNL     1     -41.048  59.274 -50.048  1.00  0.00    -0.246 OA
HETATM    4  N   UNL     1     -43.008  59.946 -51.155  1.00  0.00    -0.232 N 
HETATM    5  C   UNL     1     -43.753  59.387 -52.168  1.00  0.00     0.256 A 
HETATM    6  O   UNL     1     -44.835  59.749 -52.622  1.00  0.00    -0.270 OA
HETATM    7  C   UNL     1     -43.034  58.158 -52.729  1.00  0.00     0.190 A 
ENDROOT
BRANCH   7   8
HETATM    8  C   UNL     1     -43.975  56.960 -52.714  1.00  0.00     0.138 C 
BRANCH   8   9
HETATM    9  C   UNL     1     -44.006  56.305 -54.084  1.00  0.00     0.224 C 
HETATM   10  N   UNL     1     -43.822  57.195 -55.122  1.00  0.00    -0.327 N 
HETATM   11  H   UNL     1     -43.603  58.161 -54.874  1.00  0.00     0.169 HD
HETATM   12  O   UNL     1     -44.157  55.090 -54.177  1.00  0.00    -0.273 OA
BRANCH  10  13
HETATM   13  C   UNL     1     -43.795  56.925 -56.505  1.00  0.00     0.034 A 
HETATM   14  C   UNL     1     -42.948  56.001 -57.109  1.00  0.00     0.032 A 
HETATM   15  C   UNL     1     -42.997  55.804 -58.496  1.00  0.00     0.039 A 
HETATM   16  C   UNL     1     -43.888  56.525 -59.293  1.00  0.00     0.068 A 
HETATM   17  C   UNL     1     -44.739  57.448 -58.690  1.00  0.00     0.039 A 
HETATM   18  C   UNL     1     -44.693  57.644 -57.305  1.00  0.00     0.032 A 
BRANCH  16  19
HETATM   19  O   UNL     1     -43.829  56.237 -60.628  1.00  0.00    -0.356 OA
HETATM   20  C   UNL     1     -44.805  55.335 -61.135  1.00  0.00     0.210 C 
ENDBRANCH  16  19
ENDBRANCH  10  13
ENDBRANCH   8   9
ENDBRANCH   7   8
BRANCH   1  21
HETATM   21  C   UNL     1     -40.941  57.003 -51.796  1.00  0.00     0.133 C 
BRANCH  21  22
HETATM   22  C   UNL     1     -41.436  55.743 -51.082  1.00  0.00     0.058 C 
BRANCH  22  23
HETATM   23  C   UNL     1     -40.862  54.499 -51.711  1.00  0.00    -0.057 A 
HETATM   24  C   UNL     1     -40.888  54.329 -53.100  1.00  0.00     0.010 A 
HETATM   25  C   UNL     1     -40.389  53.158 -53.675  1.00  0.00     0.037 A 
HETATM   26  C   UNL     1     -39.858  52.142 -52.879  1.00  0.00     0.068 A 
HETATM   27  C   UNL     1     -39.835  52.303 -51.495  1.00  0.00     0.037 A 
HETATM   28  C   UNL     1     -40.336  53.475 -50.915  1.00  0.00     0.010 A 
BRANCH  26  29
HETATM   29  O   UNL     1     -39.406  51.051 -53.570  1.00  0.00    -0.356 OA
HETATM   30  C   UNL     1     -40.374  50.306 -54.298  1.00  0.00     0.210 C 
ENDBRANCH  26  29
ENDBRANCH  22  23
ENDBRANCH  21  22
ENDBRANCH   1  21
BRANCH   4  31
HETATM   31  C   UNL     1     -43.359  61.120 -50.419  1.00  0.00     0.047 A 
HETATM   32  C   UNL     1     -44.276  61.077 -49.360  1.00  0.00     0.033 A 
HETATM   33  C   UNL     1     -44.617  62.231 -48.639  1.00  0.00     0.039 A 
HETATM   34  C   UNL     1     -44.059  63.465 -48.957  1.00  0.00     0.068 A 
HETATM   35  C   UNL     1     -43.145  63.532 -50.001  1.00  0.00     0.039 A 
HETATM   36  C   UNL     1     -42.799  62.374 -50.717  1.00  0.00     0.033 A 
BRANCH  34  37
HETATM   37  O   UNL     1     -44.479  64.509 -48.184  1.00  0.00    -0.356 OA
HETATM   38  C   UNL     1     -45.030  64.187 -46.912  1.00  0.00     0.210 C 
ENDBRANCH  34  37
ENDBRANCH   4  31
TORSDOF 10
ENDMDL
MODEL 4
REMARK VINA RESULT:      -7.4      3.530      6.768
REMARK  10 active torsions:
REMARK  status: ('A' for Active; 'I' for Inactive)
REMARK    1  A    between atoms: O_2  and  C_3 
REMARK    2  A    between atoms: C_6  and  C_7 
REMARK    3  A    between atoms: C_7  and  C_8 
REMARK    4  A    between atoms: C_8  and  N_9 
REMARK    5  A    between atoms: N_12  and  C_13 
REMARK    6  A    between atoms: C_16  and  O_17 
REMARK    7  A    between atoms: C_23  and  C_24 
REMARK    8  A    between atoms: C_24  and  C_25 
REMARK       I    between atoms: C_25  and  N_26 
REMARK    9  A    between atoms: N_26  and  C_27 
REMARK   10  A    between atoms: C_30  and  O_31 
ROOT
HETATM    1  N   UNL     1     -42.325  58.599 -51.339  1.00  0.00    -0.319 N 
HETATM    2  C   UNL     1     -42.858  59.825 -50.953  1.00  0.00     0.332 A 
HETATM    3  O   UNL     1     -42.164  60.806 -50.726  1.00  0.00    -0.246 OA
HETATM    4  N   UNL     1     -44.228  59.690 -50.834  1.00  0.00    -0.232 N 
HETATM    5  C   UNL     1     -44.577  58.386 -51.098  1.00  0.00     0.256 A 
HETATM    6  O   UNL     1     -45.681  57.851 -51.028  1.00  0.00    -0.270 OA
HETATM    7  C   UNL     1     -43.343  57.591 -51.530  1.00  0.00     0.190 A 
ENDROOT
BRANCH   7   8
HETATM    8  C   UNL     1     -43.207  56.342 -50.668  1.00  0.00     0.138 C 
BRANCH   8   9
HETATM    9  C   UNL     1     -42.877  55.142 -51.540  1.00  0.00     0.224 C 
HETATM   10  N   UNL     1     -41.619  54.624 -51.306  1.00  0.00    -0.327 N 
HETATM   11  H   UNL     1     -41.085  55.028 -50.536  1.00  0.00     0.169 HD
HETATM   12  O   UNL     1     -43.710  54.715 -52.333  1.00  0.00    -0.273 OA
BRANCH  10  13
HETATM   13  C   UNL     1     -41.002  53.523 -51.934  1.00  0.00     0.034 A 
HETATM   14  C   UNL     1     -41.095  53.239 -53.293  1.00  0.00     0.032 A 
HETATM   15  C   UNL     1     -40.443  52.117 -53.823  1.00  0.00     0.039 A 
HETATM   16  C   UNL     1     -39.694  51.269 -53.005  1.00  0.00     0.068 A 
HETATM   17  C   UNL     1     -39.596  51.553 -51.645  1.00  0.00     0.039 A 
HETATM   18  C   UNL     1     -40.245  52.674 -51.115  1.00  0.00     0.032 A 
BRANCH  16  19
HETATM   19  O   UNL     1     -39.114  50.212 -53.650  1.00  0.00    -0.356 OA
HETATM   20  C   UNL     1     -39.732  49.776 -54.854  1.00  0.00     0.210 C 
ENDBRANCH  16  19
ENDBRANCH  10  13
ENDBRANCH   8   9
ENDBRANCH   7   8
BRANCH   1  21
HETATM   21  C   UNL     1     -40.892  58.349 -51.479  1.00  0.00     0.133 C 
BRANCH  21  22
HETATM   22  C   UNL     1     -40.315  58.805 -52.821  1.00  0.00     0.058 C 
BRANCH  22  23
HETATM   23  C   UNL     1     -41.069  58.194 -53.975  1.00  0.00    -0.057 A 
HETATM   24  C   UNL     1     -41.841  58.996 -54.823  1.00  0.00     0.010 A 
HETATM   25  C   UNL     1     -42.569  58.420 -55.867  1.00  0.00     0.037 A 
HETATM   26  C   UNL     1     -42.538  57.041 -56.083  1.00  0.00     0.068 A 
HETATM   27  C   UNL     1     -41.775  56.236 -55.238  1.00  0.00     0.037 A 
HETATM   28  C   UNL     1     -41.046  56.810 -54.189  1.00  0.00     0.010 A 
BRANCH  26  29
HETATM   29  O   UNL     1     -43.295  56.610 -57.137  1.00  0.00    -0.356 OA
HETATM   30  C   UNL     1     -44.242  57.530 -57.666  1.00  0.00     0.210 C 
ENDBRANCH  26  29
ENDBRANCH  22  23
ENDBRANCH  21  22
ENDBRANCH   1  21
BRANCH   4  31
HETATM   31  C   UNL     1     -45.129  60.724 -50.430  1.00  0.00     0.047 A 
HETATM   32  C   UNL     1     -45.909  61.424 -51.361  1.00  0.00     0.033 A 
HETATM   33  C   UNL     1     -46.793  62.437 -50.961  1.00  0.00     0.039 A 
HETATM   34  C   UNL     1     -46.920  62.789 -49.622  1.00  0.00     0.068 A 
HETATM   35  C   UNL     1     -46.158  62.108 -48.680  1.00  0.00     0.039 A 
HETATM   36  C   UNL     1     -45.280  61.088 -49.082  1.00  0.00     0.033 A 
BRANCH  34  37
HETATM   37  O   UNL     1     -47.808  63.795 -49.367  1.00  0.00    -0.356 OA
HETATM   38  C   UNL     1     -48.195  63.982 -48.011  1.00  0.00     0.210 C 
ENDBRANCH  34  37
ENDBRANCH   4  31
TORSDOF 10
ENDMDL
MODEL 5
REMARK VINA RESULT:      -7.4      2.689      5.888
REMARK  10 active torsions:
REMARK  status: ('A' for Active; 'I' for Inactive)
REMARK    1  A    between atoms: O_2  and  C_3 
REMARK    2  A    between atoms: C_6  and  C_7 
REMARK    3  A    between atoms: C_7  and  C_8 
REMARK    4  A    between atoms: C_8  and  N_9 
REMARK    5  A    between atoms: N_12  and  C_13 
REMARK    6  A    between atoms: C_16  and  O_17 
REMARK    7  A    between atoms: C_23  and  C_24 
REMARK    8  A    between atoms: C_24  and  C_25 
REMARK       I    between atoms: C_25  and  N_26 
REMARK    9  A    between atoms: N_26  and  C_27 
REMARK   10  A    between atoms: C_30  and  O_31 
ROOT
HETATM    1  N   UNL     1     -42.853  56.046 -55.924  1.00  0.00    -0.319 N 
HETATM    2  C   UNL     1     -42.952  56.367 -57.274  1.00  0.00     0.332 A 
HETATM    3  O   UNL     1     -42.821  55.536 -58.162  1.00  0.00    -0.246 OA
HETATM    4  N   UNL     1     -43.156  57.728 -57.389  1.00  0.00    -0.232 N 
HETATM    5  C   UNL     1     -43.149  58.292 -56.134  1.00  0.00     0.256 A 
HETATM    6  O   UNL     1     -43.226  59.477 -55.818  1.00  0.00    -0.270 OA
HETATM    7  C   UNL     1     -43.027  57.199 -55.070  1.00  0.00     0.190 A 
ENDROOT
BRANCH   7   8
HETATM    8  C   UNL     1     -41.863  57.515 -54.139  1.00  0.00     0.138 C 
BRANCH   8   9
HETATM    9  C   UNL     1     -42.382  57.862 -52.754  1.00  0.00     0.224 C 
HETATM   10  N   UNL     1     -43.249  58.936 -52.746  1.00  0.00    -0.327 N 
HETATM   11  H   UNL     1     -43.516  59.324 -53.652  1.00  0.00     0.169 HD
HETATM   12  O   UNL     1     -42.040  57.188 -51.787  1.00  0.00    -0.273 OA
BRANCH  10  13
HETATM   13  C   UNL     1     -43.906  59.515 -51.643  1.00  0.00     0.034 A 
HETATM   14  C   UNL     1     -43.409  60.585 -50.905  1.00  0.00     0.032 A 
HETATM   15  C   UNL     1     -44.140  61.091 -49.821  1.00  0.00     0.039 A 
HETATM   16  C   UNL     1     -45.370  60.537 -49.462  1.00  0.00     0.068 A 
HETATM   17  C   UNL     1     -45.871  59.468 -50.202  1.00  0.00     0.039 A 
HETATM   18  C   UNL     1     -45.143  58.963 -51.285  1.00  0.00     0.032 A 
BRANCH  16  19
HETATM   19  O   UNL     1     -45.975  61.124 -48.386  1.00  0.00    -0.356 OA
HETATM   20  C   UNL     1     -45.447  60.811 -47.103  1.00  0.00     0.210 C 
ENDBRANCH  16  19
ENDBRANCH  10  13
ENDBRANCH   8   9
ENDBRANCH   7   8
BRANCH   1  21
HETATM   21  C   UNL     1     -42.551  54.704 -55.432  1.00  0.00     0.133 C 
BRANCH  21  22
HETATM   22  C   UNL     1     -41.055  54.387 -55.381  1.00  0.00     0.058 C 
BRANCH  22  23
HETATM   23  C   UNL     1     -40.721  53.519 -54.195  1.00  0.00    -0.057 A 
HETATM   24  C   UNL     1     -40.952  53.977 -52.892  1.00  0.00     0.010 A 
HETATM   25  C   UNL     1     -40.605  53.184 -51.796  1.00  0.00     0.037 A 
HETATM   26  C   UNL     1     -40.027  51.926 -51.978  1.00  0.00     0.068 A 
HETATM   27  C   UNL     1     -39.790  51.467 -53.273  1.00  0.00     0.037 A 
HETATM   28  C   UNL     1     -40.134  52.261 -54.375  1.00  0.00     0.010 A 
BRANCH  26  29
HETATM   29  O   UNL     1     -39.738  51.257 -50.821  1.00  0.00    -0.356 OA
HETATM   30  C   UNL     1     -39.500  49.859 -50.930  1.00  0.00     0.210 C 
ENDBRANCH  26  29
ENDBRANCH  22  23
ENDBRANCH  21  22
ENDBRANCH   1  21
BRANCH   4  31
HETATM   31  C   UNL     1     -43.282  58.445 -58.619  1.00  0.00     0.047 A 
HETATM   32  C   UNL     1     -44.522  58.602 -59.254  1.00  0.00     0.033 A 
HETATM   33  C   UNL     1     -44.642  59.308 -60.461  1.00  0.00     0.039 A 
HETATM   34  C   UNL     1     -43.529  59.870 -61.076  1.00  0.00     0.068 A 
HETATM   35  C   UNL     1     -42.289  59.729 -60.464  1.00  0.00     0.039 A 
HETATM   36  C   UNL     1     -42.172  59.029 -59.252  1.00  0.00     0.033 A 
BRANCH  34  37
HETATM   37  O   UNL     1     -43.780  60.523 -62.248  1.00  0.00    -0.356 OA
HETATM   38  C   UNL     1     -42.670  61.135 -62.894  1.00  0.00     0.210 C 
ENDBRANCH  34  37
ENDBRANCH   4  31
TORSDOF 10
ENDMDL
MODEL 6
REMARK VINA RESULT:      -7.4      3.117      6.426
REMARK  10 active torsions:
REMARK  status: ('A' for Active; 'I' for Inactive)
REMARK    1  A    between atoms: O_2  and  C_3 
REMARK    2  A    between atoms: C_6  and  C_7 
REMARK    3  A    between atoms: C_7  and  C_8 
REMARK    4  A    between atoms: C_8  and  N_9 
REMARK    5  A    between atoms: N_12  and  C_13 
REMARK    6  A    between atoms: C_16  and  O_17 
REMARK    7  A    between atoms: C_23  and  C_24 
REMARK    8  A    between atoms: C_24  and  C_25 
REMARK       I    between atoms: C_25  and  N_26 
REMARK    9  A    between atoms: N_26  and  C_27 
REMARK   10  A    between atoms: C_30  and  O_31 
ROOT
HETATM    1  N   UNL     1     -42.314  56.576 -52.340  1.00  0.00    -0.319 N 
HETATM    2  C   UNL     1     -43.351  57.499 -52.245  1.00  0.00     0.332 A 
HETATM    3  O   UNL     1     -44.359  57.295 -51.581  1.00  0.00    -0.246 OA
HETATM    4  N   UNL     1     -43.049  58.585 -53.044  1.00  0.00    -0.232 N 
HETATM    5  C   UNL     1     -41.852  58.354 -53.683  1.00  0.00     0.256 A 
HETATM    6  O   UNL     1     -41.280  59.042 -54.525  1.00  0.00    -0.270 OA
HETATM    7  C   UNL     1     -41.244  57.038 -53.195  1.00  0.00     0.190 A 
ENDROOT
BRANCH   7   8
HETATM    8  C   UNL     1     -40.920  56.147 -54.388  1.00  0.00     0.138 C 
BRANCH   8   9
HETATM    9  C   UNL     1     -42.149  55.986 -55.267  1.00  0.00     0.224 C 
HETATM   10  N   UNL     1     -42.088  56.717 -56.436  1.00  0.00    -0.327 N 
HETATM   11  H   UNL     1     -41.215  57.209 -56.632  1.00  0.00     0.169 HD
HETATM   12  O   UNL     1     -43.057  55.239 -54.916  1.00  0.00    -0.273 OA
BRANCH  10  13
HETATM   13  C   UNL     1     -43.048  56.795 -57.464  1.00  0.00     0.034 A 
HETATM   14  C   UNL     1     -43.105  55.931 -58.553  1.00  0.00     0.032 A 
HETATM   15  C   UNL     1     -44.101  56.091 -59.526  1.00  0.00     0.039 A 
HETATM   16  C   UNL     1     -45.046  57.114 -59.425  1.00  0.00     0.068 A 
HETATM   17  C   UNL     1     -44.993  57.978 -58.334  1.00  0.00     0.039 A 
HETATM   18  C   UNL     1     -44.000  57.817 -57.361  1.00  0.00     0.032 A 
BRANCH  16  19
HETATM   19  O   UNL     1     -45.958  57.158 -60.443  1.00  0.00    -0.356 OA
HETATM   20  C   UNL     1     -47.056  56.257 -60.363  1.00  0.00     0.210 C 
ENDBRANCH  16  19
ENDBRANCH  10  13
ENDBRANCH   8   9
ENDBRANCH   7   8
BRANCH   1  21
HETATM   21  C   UNL     1     -42.334  55.267 -51.692  1.00  0.00     0.133 C 
BRANCH  21  22
HETATM   22  C   UNL     1     -40.991  54.860 -51.082  1.00  0.00     0.058 C 
BRANCH  22  23
HETATM   23  C   UNL     1     -40.530  53.528 -51.619  1.00  0.00    -0.057 A 
HETATM   24  C   UNL     1     -40.542  53.276 -52.995  1.00  0.00     0.010 A 
HETATM   25  C   UNL     1     -40.150  52.027 -53.485  1.00  0.00     0.037 A 
HETATM   26  C   UNL     1     -39.740  51.015 -52.615  1.00  0.00     0.068 A 
HETATM   27  C   UNL     1     -39.732  51.260 -51.242  1.00  0.00     0.037 A 
HETATM   28  C   UNL     1     -40.126  52.509 -50.748  1.00  0.00     0.010 A 
BRANCH  26  29
HETATM   29  O   UNL     1     -39.384  49.845 -53.226  1.00  0.00    -0.356 OA
HETATM   30  C   UNL     1     -39.705  49.717 -54.605  1.00  0.00     0.210 C 
ENDBRANCH  26  29
ENDBRANCH  22  23
ENDBRANCH  21  22
ENDBRANCH   1  21
BRANCH   4  31
HETATM   31  C   UNL     1     -43.882  59.731 -53.232  1.00  0.00     0.047 A 
HETATM   32  C   UNL     1     -44.833  59.787 -54.260  1.00  0.00     0.033 A 
HETATM   33  C   UNL     1     -45.650  60.913 -54.441  1.00  0.00     0.039 A 
HETATM   34  C   UNL     1     -45.539  62.020 -53.607  1.00  0.00     0.068 A 
HETATM   35  C   UNL     1     -44.604  61.987 -52.579  1.00  0.00     0.039 A 
HETATM   36  C   UNL     1     -43.793  60.855 -52.395  1.00  0.00     0.033 A 
BRANCH  34  37
HETATM   37  O   UNL     1     -46.386  63.052 -53.894  1.00  0.00    -0.356 OA
HETATM   38  C   UNL     1     -47.119  62.963 -55.110  1.00  0.00     0.210 C 
ENDBRANCH  34  37
ENDBRANCH   4  31
TORSDOF 10
ENDMDL
MODEL 7
REMARK VINA RESULT:      -7.3      2.282      8.168
REMARK  10 active torsions:
REMARK  status: ('A' for Active; 'I' for Inactive)
REMARK    1  A    between atoms: O_2  and  C_3 
REMARK    2  A    between atoms: C_6  and  C_7 
REMARK    3  A    between atoms: C_7  and  C_8 
REMARK    4  A    between atoms: C_8  and  N_9 
REMARK    5  A    between atoms: N_12  and  C_13 
REMARK    6  A    between atoms: C_16  and  O_17 
REMARK    7  A    between atoms: C_23  and  C_24 
REMARK    8  A    between atoms: C_24  and  C_25 
REMARK       I    between atoms: C_25  and  N_26 
REMARK    9  A    between atoms: N_26  and  C_27 
REMARK   10  A    between atoms: C_30  and  O_31 
ROOT
HETATM    1  N   UNL     1     -41.619  57.130 -54.084  1.00  0.00    -0.319 N 
HETATM    2  C   UNL     1     -42.155  57.446 -52.840  1.00  0.00     0.332 A 
HETATM    3  O   UNL     1     -41.874  56.829 -51.822  1.00  0.00    -0.246 OA
HETATM    4  N   UNL     1     -43.047  58.490 -52.998  1.00  0.00    -0.232 N 
HETATM    5  C   UNL     1     -43.121  58.820 -54.331  1.00  0.00     0.256 A 
HETATM    6  O   UNL     1     -43.848  59.642 -54.885  1.00  0.00    -0.270 OA
HETATM    7  C   UNL     1     -42.116  57.991 -55.133  1.00  0.00     0.190 A 
ENDROOT
BRANCH   7   8
HETATM    8  C   UNL     1     -42.828  57.289 -56.283  1.00  0.00     0.138 C 
BRANCH   8   9
HETATM    9  C   UNL     1     -42.428  57.920 -57.606  1.00  0.00     0.224 C 
HETATM   10  N   UNL     1     -42.220  59.281 -57.524  1.00  0.00    -0.327 N 
HETATM   11  H   UNL     1     -42.268  59.704 -56.596  1.00  0.00     0.169 HD
HETATM   12  O   UNL     1     -42.296  57.216 -58.602  1.00  0.00    -0.273 OA
BRANCH  10  13
HETATM   13  C   UNL     1     -41.843  60.167 -58.553  1.00  0.00     0.034 A 
HETATM   14  C   UNL     1     -42.206  60.020 -59.889  1.00  0.00     0.032 A 
HETATM   15  C   UNL     1     -41.780  60.957 -60.840  1.00  0.00     0.039 A 
HETATM   16  C   UNL     1     -40.989  62.046 -60.472  1.00  0.00     0.068 A 
HETATM   17  C   UNL     1     -40.628  62.198 -59.135  1.00  0.00     0.039 A 
HETATM   18  C   UNL     1     -41.054  61.264 -58.183  1.00  0.00     0.032 A 
BRANCH  16  19
HETATM   19  O   UNL     1     -40.642  62.880 -61.498  1.00  0.00    -0.356 OA
HETATM   20  C   UNL     1     -41.361  62.734 -62.716  1.00  0.00     0.210 C 
ENDBRANCH  16  19
ENDBRANCH  10  13
ENDBRANCH   8   9
ENDBRANCH   7   8
BRANCH   1  21
HETATM   21  C   UNL     1     -40.700  56.016 -54.308  1.00  0.00     0.133 C 
BRANCH  21  22
HETATM   22  C   UNL     1     -41.402  54.679 -54.557  1.00  0.00     0.058 C 
BRANCH  22  23
HETATM   23  C   UNL     1     -40.757  53.569 -53.765  1.00  0.00    -0.057 A 
HETATM   24  C   UNL     1     -40.382  52.375 -54.393  1.00  0.00     0.010 A 
HETATM   25  C   UNL     1     -39.820  51.336 -53.647  1.00  0.00     0.037 A 
HETATM   26  C   UNL     1     -39.622  51.469 -52.272  1.00  0.00     0.068 A 
HETATM   27  C   UNL     1     -39.999  52.654 -51.641  1.00  0.00     0.037 A 
HETATM   28  C   UNL     1     -40.565  53.697 -52.385  1.00  0.00     0.010 A 
BRANCH  26  29
HETATM   29  O   UNL     1     -39.065  50.377 -51.666  1.00  0.00    -0.356 OA
HETATM   30  C   UNL     1     -39.805  49.782 -50.607  1.00  0.00     0.210 C 
ENDBRANCH  26  29
ENDBRANCH  22  23
ENDBRANCH  21  22
ENDBRANCH   1  21
BRANCH   4  31
HETATM   31  C   UNL     1     -43.821  59.082 -51.952  1.00  0.00     0.047 A 
HETATM   32  C   UNL     1     -43.336  60.158 -51.197  1.00  0.00     0.033 A 
HETATM   33  C   UNL     1     -44.099  60.738 -50.173  1.00  0.00     0.039 A 
HETATM   34  C   UNL     1     -45.366  60.256 -49.864  1.00  0.00     0.068 A 
HETATM   35  C   UNL     1     -45.870  59.191 -50.601  1.00  0.00     0.039 A 
HETATM   36  C   UNL     1     -45.108  58.617 -51.631  1.00  0.00     0.033 A 
BRANCH  34  37
HETATM   37  O   UNL     1     -46.001  60.902 -48.842  1.00  0.00    -0.356 OA
HETATM   38  C   UNL     1     -45.247  61.126 -47.657  1.00  0.00     0.210 C 
ENDBRANCH  34  37
ENDBRANCH   4  31
TORSDOF 10
ENDMDL
MODEL 8
REMARK VINA RESULT:      -7.1      3.181      6.074
REMARK  10 active torsions:
REMARK  status: ('A' for Active; 'I' for Inactive)
REMARK    1  A    between atoms: O_2  and  C_3 
REMARK    2  A    between atoms: C_6  and  C_7 
REMARK    3  A    between atoms: C_7  and  C_8 
REMARK    4  A    between atoms: C_8  and  N_9 
REMARK    5  A    between atoms: N_12  and  C_13 
REMARK    6  A    between atoms: C_16  and  O_17 
REMARK    7  A    between atoms: C_23  and  C_24 
REMARK    8  A    between atoms: C_24  and  C_25 
REMARK       I    between atoms: C_25  and  N_26 
REMARK    9  A    between atoms: N_26  and  C_27 
REMARK   10  A    between atoms: C_30  and  O_31 
ROOT
HETATM    1  N   UNL     1     -42.628  56.021 -55.779  1.00  0.00    -0.319 N 
HETATM    2  C   UNL     1     -43.193  56.168 -57.042  1.00  0.00     0.332 A 
HETATM    3  O   UNL     1     -42.933  55.420 -57.974  1.00  0.00    -0.246 OA
HETATM    4  N   UNL     1     -44.002  57.288 -57.034  1.00  0.00    -0.232 N 
HETATM    5  C   UNL     1     -43.933  57.885 -55.796  1.00  0.00     0.256 A 
HETATM    6  O   UNL     1     -44.448  58.933 -55.413  1.00  0.00    -0.270 OA
HETATM    7  C   UNL     1     -43.077  57.037 -54.853  1.00  0.00     0.190 A 
ENDROOT
BRANCH   7   8
HETATM    8  C   UNL     1     -41.983  57.899 -54.235  1.00  0.00     0.138 C 
BRANCH   8   9
HETATM    9  C   UNL     1     -42.339  58.241 -52.799  1.00  0.00     0.224 C 
HETATM   10  N   UNL     1     -43.264  59.260 -52.690  1.00  0.00    -0.327 N 
HETATM   11  H   UNL     1     -43.671  59.613 -53.557  1.00  0.00     0.169 HD
HETATM   12  O   UNL     1     -41.832  57.609 -51.877  1.00  0.00    -0.273 OA
BRANCH  10  13
HETATM   13  C   UNL     1     -43.807  59.820 -51.517  1.00  0.00     0.034 A 
HETATM   14  C   UNL     1     -44.955  59.353 -50.882  1.00  0.00     0.032 A 
HETATM   15  C   UNL     1     -45.417  59.980 -49.717  1.00  0.00     0.039 A 
HETATM   16  C   UNL     1     -44.744  61.076 -49.174  1.00  0.00     0.068 A 
HETATM   17  C   UNL     1     -43.594  61.543 -49.806  1.00  0.00     0.039 A 
HETATM   18  C   UNL     1     -43.129  60.916 -50.969  1.00  0.00     0.032 A 
BRANCH  16  19
HETATM   19  O   UNL     1     -45.304  61.592 -48.039  1.00  0.00    -0.356 OA
HETATM   20  C   UNL     1     -45.864  60.664 -47.119  1.00  0.00     0.210 C 
ENDBRANCH  16  19
ENDBRANCH  10  13
ENDBRANCH   8   9
ENDBRANCH   7   8
BRANCH   1  21
HETATM   21  C   UNL     1     -41.649  54.989 -55.446  1.00  0.00     0.133 C 
BRANCH  21  22
HETATM   22  C   UNL     1     -42.250  53.779 -54.726  1.00  0.00     0.058 C 
BRANCH  22  23
HETATM   23  C   UNL     1     -42.085  53.896 -53.232  1.00  0.00    -0.057 A 
HETATM   24  C   UNL     1     -43.174  54.241 -52.423  1.00  0.00     0.010 A 
HETATM   25  C   UNL     1     -43.007  54.386 -51.043  1.00  0.00     0.037 A 
HETATM   26  C   UNL     1     -41.759  54.190 -50.450  1.00  0.00     0.068 A 
HETATM   27  C   UNL     1     -40.670  53.852 -51.252  1.00  0.00     0.037 A 
HETATM   28  C   UNL     1     -40.833  53.708 -52.636  1.00  0.00     0.010 A 
BRANCH  26  29
HETATM   29  O   UNL     1     -41.736  54.364 -49.094  1.00  0.00    -0.356 OA
HETATM   30  C   UNL     1     -40.515  54.067 -48.429  1.00  0.00     0.210 C 
ENDBRANCH  26  29
ENDBRANCH  22  23
ENDBRANCH  21  22
ENDBRANCH   1  21
BRANCH   4  31
HETATM   31  C   UNL     1     -44.736  57.786 -58.155  1.00  0.00     0.047 A 
HETATM   32  C   UNL     1     -46.130  57.661 -58.235  1.00  0.00     0.033 A 
HETATM   33  C   UNL     1     -46.847  58.152 -59.335  1.00  0.00     0.039 A 
HETATM   34  C   UNL     1     -46.196  58.776 -60.395  1.00  0.00     0.068 A 
HETATM   35  C   UNL     1     -44.814  58.913 -60.336  1.00  0.00     0.039 A 
HETATM   36  C   UNL     1     -44.099  58.428 -59.230  1.00  0.00     0.033 A 
BRANCH  34  37
HETATM   37  O   UNL     1     -47.007  59.201 -61.407  1.00  0.00    -0.356 OA
HETATM   38  C   UNL     1     -46.903  60.569 -61.783  1.00  0.00     0.210 C 
ENDBRANCH  34  37
ENDBRANCH   4  31
TORSDOF 10
ENDMDL
MODEL 9
REMARK VINA RESULT:      -7.1      2.115     10.085
REMARK  10 active torsions:
REMARK  status: ('A' for Active; 'I' for Inactive)
REMARK    1  A    between atoms: O_2  and  C_3 
REMARK    2  A    between atoms: C_6  and  C_7 
REMARK    3  A    between atoms: C_7  and  C_8 
REMARK    4  A    between atoms: C_8  and  N_9 
REMARK    5  A    between atoms: N_12  and  C_13 
REMARK    6  A    between atoms: C_16  and  O_17 
REMARK    7  A    between atoms: C_23  and  C_24 
REMARK    8  A    between atoms: C_24  and  C_25 
REMARK       I    between atoms: C_25  and  N_26 
REMARK    9  A    between atoms: N_26  and  C_27 
REMARK   10  A    between atoms: C_30  and  O_31 
ROOT
HETATM    1  N   UNL     1     -42.870  56.350 -56.043  1.00  0.00    -0.319 N 
HETATM    2  C   UNL     1     -42.569  55.075 -55.575  1.00  0.00     0.332 A 
HETATM    3  O   UNL     1     -43.146  54.071 -55.972  1.00  0.00    -0.246 OA
HETATM    4  N   UNL     1     -41.595  55.182 -54.601  1.00  0.00    -0.232 N 
HETATM    5  C   UNL     1     -41.296  56.511 -54.408  1.00  0.00     0.256 A 
HETATM    6  O   UNL     1     -40.539  57.021 -53.586  1.00  0.00    -0.270 OA
HETATM    7  C   UNL     1     -42.066  57.372 -55.411  1.00  0.00     0.190 A 
ENDROOT
BRANCH   7   8
HETATM    8  C   UNL     1     -42.838  58.457 -54.672  1.00  0.00     0.138 C 
BRANCH   8   9
HETATM    9  C   UNL     1     -42.528  59.818 -55.272  1.00  0.00     0.224 C 
HETATM   10  N   UNL     1     -42.508  59.818 -56.652  1.00  0.00    -0.327 N 
HETATM   11  H   UNL     1     -42.781  58.952 -57.121  1.00  0.00     0.169 HD
HETATM   12  O   UNL     1     -42.351  60.784 -54.536  1.00  0.00    -0.273 OA
BRANCH  10  13
HETATM   13  C   UNL     1     -42.255  60.899 -57.519  1.00  0.00     0.034 A 
HETATM   14  C   UNL     1     -41.025  61.156 -58.117  1.00  0.00     0.032 A 
HETATM   15  C   UNL     1     -40.874  62.260 -58.966  1.00  0.00     0.039 A 
HETATM   16  C   UNL     1     -41.943  63.120 -59.226  1.00  0.00     0.068 A 
HETATM   17  C   UNL     1     -43.176  62.863 -58.631  1.00  0.00     0.039 A 
HETATM   18  C   UNL     1     -43.329  61.759 -57.784  1.00  0.00     0.032 A 
BRANCH  16  19
HETATM   19  O   UNL     1     -41.657  64.157 -60.068  1.00  0.00    -0.356 OA
HETATM   20  C   UNL     1     -40.838  63.865 -61.194  1.00  0.00     0.210 C 
ENDBRANCH  16  19
ENDBRANCH  10  13
ENDBRANCH   8   9
ENDBRANCH   7   8
BRANCH   1  21
HETATM   21  C   UNL     1     -43.919  56.626 -57.021  1.00  0.00     0.133 C 
BRANCH  21  22
HETATM   22  C   UNL     1     -43.545  56.236 -58.454  1.00  0.00     0.058 C 
BRANCH  22  23
HETATM   23  C   UNL     1     -43.328  57.458 -59.312  1.00  0.00    -0.057 A 
HETATM   24  C   UNL     1     -44.393  58.319 -59.601  1.00  0.00     0.010 A 
HETATM   25  C   UNL     1     -44.195  59.428 -60.428  1.00  0.00     0.037 A 
HETATM   26  C   UNL     1     -42.940  59.696 -60.975  1.00  0.00     0.068 A 
HETATM   27  C   UNL     1     -41.877  58.837 -60.695  1.00  0.00     0.037 A 
HETATM   28  C   UNL     1     -42.072  57.724 -59.868  1.00  0.00     0.010 A 
BRANCH  26  29
HETATM   29  O   UNL     1     -42.886  60.811 -61.766  1.00  0.00    -0.356 OA
HETATM   30  C   UNL     1     -44.114  61.485 -62.009  1.00  0.00     0.210 C 
ENDBRANCH  26  29
ENDBRANCH  22  23
ENDBRANCH  21  22
ENDBRANCH   1  21
BRANCH   4  31
HETATM   31  C   UNL     1     -41.041  54.091 -53.862  1.00  0.00     0.047 A 
HETATM   32  C   UNL     1     -40.377  53.034 -54.500  1.00  0.00     0.033 A 
HETATM   33  C   UNL     1     -39.832  51.966 -53.772  1.00  0.00     0.039 A 
HETATM   34  C   UNL     1     -39.941  51.914 -52.386  1.00  0.00     0.068 A 
HETATM   35  C   UNL     1     -40.594  52.952 -51.732  1.00  0.00     0.039 A 
HETATM   36  C   UNL     1     -41.131  54.025 -52.462  1.00  0.00     0.033 A 
BRANCH  34  37
HETATM   37  O   UNL     1     -39.377  50.819 -51.799  1.00  0.00    -0.356 OA
HETATM   38  C   UNL     1     -39.555  49.571 -52.459  1.00  0.00     0.210 C 
ENDBRANCH  34  37
ENDBRANCH   4  31
TORSDOF 10
ENDMDL
MODEL 10
REMARK VINA RESULT:      -7.1      2.816     10.006
REMARK  10 active torsions:
REMARK  status: ('A' for Active; 'I' for Inactive)
REMARK    1  A    between atoms: O_2  and  C_3 
REMARK    2  A    between atoms: C_6  and  C_7 
REMARK    3  A    between atoms: C_7  and  C_8 
REMARK    4  A    between atoms: C_8  and  N_9 
REMARK    5  A    between atoms: N_12  and  C_13 
REMARK    6  A    between atoms: C_16  and  O_17 
REMARK    7  A    between atoms: C_23  and  C_24 
REMARK    8  A    between atoms: C_24  and  C_25 
REMARK       I    between atoms: C_25  and  N_26 
REMARK    9  A    between atoms: N_26  and  C_27 
REMARK   10  A    between atoms: C_30  and  O_31 
ROOT
HETATM    1  N   UNL     1     -43.042  57.288 -55.455  1.00  0.00    -0.319 N 
HETATM    2  C   UNL     1     -42.962  56.221 -54.565  1.00  0.00     0.332 A 
HETATM    3  O   UNL     1     -43.700  55.248 -54.631  1.00  0.00    -0.246 OA
HETATM    4  N   UNL     1     -41.985  56.502 -53.629  1.00  0.00    -0.232 N 
HETATM    5  C   UNL     1     -41.466  57.751 -53.881  1.00  0.00     0.256 A 
HETATM    6  O   UNL     1     -40.634  58.387 -53.237  1.00  0.00    -0.270 OA
HETATM    7  C   UNL     1     -42.078  58.324 -55.160  1.00  0.00     0.190 A 
ENDROOT
BRANCH   7   8
HETATM    8  C   UNL     1     -42.657  59.706 -54.880  1.00  0.00     0.138 C 
BRANCH   8   9
HETATM    9  C   UNL     1     -42.741  60.506 -56.169  1.00  0.00     0.224 C 
HETATM   10  N   UNL     1     -41.735  60.209 -57.066  1.00  0.00    -0.327 N 
HETATM   11  H   UNL     1     -41.105  59.443 -56.822  1.00  0.00     0.169 HD
HETATM   12  O   UNL     1     -43.659  61.302 -56.334  1.00  0.00    -0.273 OA
BRANCH  10  13
HETATM   13  C   UNL     1     -41.518  60.761 -58.344  1.00  0.00     0.034 A 
HETATM   14  C   UNL     1     -42.077  60.268 -59.519  1.00  0.00     0.032 A 
HETATM   15  C   UNL     1     -41.800  60.889 -60.744  1.00  0.00     0.039 A 
HETATM   16  C   UNL     1     -40.963  62.004 -60.812  1.00  0.00     0.068 A 
HETATM   17  C   UNL     1     -40.405  62.502 -59.637  1.00  0.00     0.039 A 
HETATM   18  C   UNL     1     -40.683  61.884 -58.412  1.00  0.00     0.032 A 
BRANCH  16  19
HETATM   19  O   UNL     1     -40.774  62.509 -62.068  1.00  0.00    -0.356 OA
HETATM   20  C   UNL     1     -40.175  63.796 -62.161  1.00  0.00     0.210 C 
ENDBRANCH  16  19
ENDBRANCH  10  13
ENDBRANCH   8   9
ENDBRANCH   7   8
BRANCH   1  21
HETATM   21  C   UNL     1     -44.029  57.372 -56.529  1.00  0.00     0.133 C 
BRANCH  21  22
HETATM   22  C   UNL     1     -43.447  57.118 -57.922  1.00  0.00     0.058 C 
BRANCH  22  23
HETATM   23  C   UNL     1     -44.536  56.817 -58.920  1.00  0.00    -0.057 A 
HETATM   24  C   UNL     1     -44.333  55.866 -59.927  1.00  0.00     0.010 A 
HETATM   25  C   UNL     1     -45.331  55.619 -60.873  1.00  0.00     0.037 A 
HETATM   26  C   UNL     1     -46.543  56.310 -60.830  1.00  0.00     0.068 A 
HETATM   27  C   UNL     1     -46.748  57.262 -59.833  1.00  0.00     0.037 A 
HETATM   28  C   UNL     1     -45.749  57.514 -58.884  1.00  0.00     0.010 A 
BRANCH  26  29
HETATM   29  O   UNL     1     -47.430  55.971 -61.815  1.00  0.00    -0.356 OA
HETATM   30  C   UNL     1     -48.403  56.946 -62.165  1.00  0.00     0.210 C 
ENDBRANCH  26  29
ENDBRANCH  22  23
ENDBRANCH  21  22
ENDBRANCH   1  21
BRANCH   4  31
HETATM   31  C   UNL     1     -41.624  55.659 -52.532  1.00  0.00     0.047 A 
HETATM   32  C   UNL     1     -42.051  55.931 -51.225  1.00  0.00     0.033 A 
HETATM   33  C   UNL     1     -41.696  55.101 -50.152  1.00  0.00     0.039 A 
HETATM   34  C   UNL     1     -40.897  53.979 -50.347  1.00  0.00     0.068 A 
HETATM   35  C   UNL     1     -40.463  53.689 -51.635  1.00  0.00     0.039 A 
HETATM   36  C   UNL     1     -40.826  54.516 -52.709  1.00  0.00     0.033 A 
BRANCH  34  37
HETATM   37  O   UNL     1     -40.618  53.261 -49.220  1.00  0.00    -0.356 OA
HETATM   38  C   UNL     1     -40.355  54.001 -48.034  1.00  0.00     0.210 C 
ENDBRANCH  34  37
ENDBRANCH   4  31
TORSDOF 10
ENDMDL
