MODEL 1
REMARK VINA RESULT:      -8.7      0.000      0.000
REMARK  5 active torsions:
REMARK  status: ('A' for Active; 'I' for Inactive)
REMARK    1  A    between atoms: O_2  and  C_3 
REMARK    2  A    between atoms: C_16  and  C_17 
REMARK    3  A    between atoms: C_19  and  O_20 
REMARK    4  A    between atoms: C_22  and  O_23 
REMARK    5  A    between atoms: O_23  and  C_24 
ROOT
HETATM    1  C   UNL     1     -45.240  57.271 -59.895  1.00  0.00     0.069 A 
HETATM    2  C   UNL     1     -45.383  57.649 -58.553  1.00  0.00     0.051 A 
HETATM    3  C   UNL     1     -44.286  57.556 -57.675  1.00  0.00     0.002 A 
HETATM    4  C   UNL     1     -43.069  57.091 -58.173  1.00  0.00     0.043 A 
HETATM    5  N   UNL     1     -42.164  57.084 -57.131  1.00  0.00    -0.356 N 
HETATM    6  H   UNL     1     -41.207  56.766 -57.223  1.00  0.00     0.166 HD
HETATM    7  C   UNL     1     -42.782  57.517 -55.986  1.00  0.00     0.052 A 
HETATM    8  C   UNL     1     -44.093  57.828 -56.296  1.00  0.00    -0.019 A 
HETATM    9  C   UNL     1     -45.051  58.340 -55.275  1.00  0.00     0.069 C 
HETATM   10  C   UNL     1     -44.536  58.043 -53.855  1.00  0.00     0.238 C 
HETATM   11  N   UNL     1     -43.067  58.373 -53.726  1.00  0.00    -0.061 N 
HETATM   12  H   UNL     1     -42.938  59.367 -53.942  1.00  0.00     0.278 HD
HETATM   13  H   UNL     1     -42.763  58.228 -52.758  1.00  0.00     0.278 HD
HETATM   14  C   UNL     1     -42.151  57.594 -54.639  1.00  0.00     0.269 C 
HETATM   15  C   UNL     1     -42.900  56.718 -59.510  1.00  0.00     0.033 A 
HETATM   16  C   UNL     1     -44.009  56.815 -60.362  1.00  0.00     0.039 A 
ENDROOT
BRANCH  14  17
HETATM   17  C   UNL     1     -41.785  56.252 -54.029  1.00  0.00    -0.019 A 
HETATM   18  C   UNL     1     -42.484  55.709 -52.933  1.00  0.00     0.049 A 
HETATM   19  C   UNL     1     -42.103  54.489 -52.363  1.00  0.00     0.102 A 
HETATM   20  C   UNL     1     -40.987  53.802 -52.871  1.00  0.00     0.102 A 
HETATM   21  C   UNL     1     -40.293  54.327 -53.962  1.00  0.00     0.040 A 
HETATM   22  C   UNL     1     -40.683  55.543 -54.532  1.00  0.00     0.012 A 
BRANCH  19  23
HETATM   23  O   UNL     1     -42.730  53.914 -51.287  1.00  0.00    -0.353 OA
HETATM   24  C   UNL     1     -43.670  54.696 -50.563  1.00  0.00     0.210 C 
ENDBRANCH  19  23
BRANCH  20  25
HETATM   25  O   UNL     1     -40.688  52.608 -52.271  1.00  0.00    -0.343 OA
BRANCH  25  26
HETATM   26  C   UNL     1     -39.774  51.725 -52.912  1.00  0.00     0.129 C 
HETATM   27  C   UNL     1     -39.596  50.409 -52.155  1.00  0.00     0.032 C 
HETATM   28  C   UNL     1     -39.211  49.428 -53.245  1.00  0.00     0.002 C 
HETATM   29  C   UNL     1     -40.144  49.795 -54.387  1.00  0.00     0.002 C 
HETATM   30  C   UNL     1     -40.363  51.303 -54.268  1.00  0.00     0.032 C 
ENDBRANCH  25  26
ENDBRANCH  20  25
ENDBRANCH  14  17
BRANCH   1  31
HETATM   31  O   UNL     1     -46.384  57.397 -60.636  1.00  0.00    -0.356 OA
HETATM   32  C   UNL     1     -47.174  56.226 -60.808  1.00  0.00     0.210 C 
ENDBRANCH   1  31
TORSDOF 5
ENDMDL
MODEL 2
REMARK VINA RESULT:      -8.6      4.126      5.795
REMARK  5 active torsions:
REMARK  status: ('A' for Active; 'I' for Inactive)
REMARK    1  A    between atoms: O_2  and  C_3 
REMARK    2  A    between atoms: C_16  and  C_17 
REMARK    3  A    between atoms: C_19  and  O_20 
REMARK    4  A    between atoms: C_22  and  O_23 
REMARK    5  A    between atoms: O_23  and  C_24 
ROOT
HETATM    1  C   UNL     1     -45.912  61.183 -50.304  1.00  0.00     0.069 A 
HETATM    2  C   UNL     1     -44.545  60.928 -50.128  1.00  0.00     0.051 A 
HETATM    3  C   UNL     1     -43.812  60.287 -51.144  1.00  0.00     0.002 A 
HETATM    4  C   UNL     1     -44.472  59.926 -52.319  1.00  0.00     0.043 A 
HETATM    5  N   UNL     1     -43.554  59.314 -53.146  1.00  0.00    -0.356 N 
HETATM    6  H   UNL     1     -43.784  58.936 -54.057  1.00  0.00     0.166 HD
HETATM    7  C   UNL     1     -42.334  59.266 -52.520  1.00  0.00     0.052 A 
HETATM    8  C   UNL     1     -42.462  59.872 -51.284  1.00  0.00    -0.019 A 
HETATM    9  C   UNL     1     -41.316  59.999 -50.339  1.00  0.00     0.069 C 
HETATM   10  C   UNL     1     -40.192  59.018 -50.719  1.00  0.00     0.238 C 
HETATM   11  N   UNL     1     -39.933  59.035 -52.207  1.00  0.00    -0.061 N 
HETATM   12  H   UNL     1     -39.669  59.987 -52.480  1.00  0.00     0.278 HD
HETATM   13  H   UNL     1     -39.139  58.424 -52.428  1.00  0.00     0.278 HD
HETATM   14  C   UNL     1     -41.105  58.630 -53.069  1.00  0.00     0.269 C 
HETATM   15  C   UNL     1     -45.833  60.180 -52.522  1.00  0.00     0.033 A 
HETATM   16  C   UNL     1     -46.541  60.814 -51.492  1.00  0.00     0.039 A 
ENDROOT
BRANCH  14  17
HETATM   17  C   UNL     1     -41.178  57.120 -53.215  1.00  0.00    -0.019 A 
HETATM   18  C   UNL     1     -41.863  56.308 -52.290  1.00  0.00     0.049 A 
HETATM   19  C   UNL     1     -41.884  54.915 -52.424  1.00  0.00     0.102 A 
HETATM   20  C   UNL     1     -41.189  54.309 -53.485  1.00  0.00     0.102 A 
HETATM   21  C   UNL     1     -40.515  55.104 -54.412  1.00  0.00     0.040 A 
HETATM   22  C   UNL     1     -40.504  56.496 -54.276  1.00  0.00     0.012 A 
BRANCH  19  23
HETATM   23  O   UNL     1     -42.517  54.068 -51.552  1.00  0.00    -0.353 OA
HETATM   24  C   UNL     1     -43.520  54.608 -50.703  1.00  0.00     0.210 C 
ENDBRANCH  19  23
BRANCH  20  25
HETATM   25  O   UNL     1     -41.272  52.943 -53.558  1.00  0.00    -0.343 OA
BRANCH  25  26
HETATM   26  C   UNL     1     -40.099  52.169 -53.328  1.00  0.00     0.129 C 
HETATM   27  C   UNL     1     -39.982  51.692 -51.881  1.00  0.00     0.032 C 
HETATM   28  C   UNL     1     -39.162  50.421 -51.997  1.00  0.00     0.002 C 
HETATM   29  C   UNL     1     -39.752  49.739 -53.221  1.00  0.00     0.002 C 
HETATM   30  C   UNL     1     -40.194  50.872 -54.147  1.00  0.00     0.032 C 
ENDBRANCH  25  26
ENDBRANCH  20  25
ENDBRANCH  14  17
BRANCH   1  31
HETATM   31  O   UNL     1     -46.508  61.798 -49.237  1.00  0.00    -0.356 OA
HETATM   32  C   UNL     1     -45.672  62.578 -48.390  1.00  0.00     0.210 C 
ENDBRANCH   1  31
TORSDOF 5
ENDMDL
MODEL 3
REMARK VINA RESULT:      -8.4      2.933      8.434
REMARK  5 active torsions:
REMARK  status: ('A' for Active; 'I' for Inactive)
REMARK    1  A    between atoms: O_2  and  C_3 
REMARK    2  A    between atoms: C_16  and  C_17 
REMARK    3  A    between atoms: C_19  and  O_20 
REMARK    4  A    between atoms: C_22  and  O_23 
REMARK    5  A    between atoms: O_23  and  C_24 
ROOT
HETATM    1  C   UNL     1     -39.797  51.669 -52.286  1.00  0.00     0.069 A 
HETATM    2  C   UNL     1     -40.606  52.750 -51.906  1.00  0.00     0.051 A 
HETATM    3  C   UNL     1     -41.421  53.388 -52.859  1.00  0.00     0.002 A 
HETATM    4  C   UNL     1     -41.409  52.917 -54.172  1.00  0.00     0.043 A 
HETATM    5  N   UNL     1     -42.272  53.702 -54.908  1.00  0.00    -0.356 N 
HETATM    6  H   UNL     1     -42.430  53.582 -55.901  1.00  0.00     0.166 HD
HETATM    7  C   UNL     1     -42.818  54.665 -54.098  1.00  0.00     0.052 A 
HETATM    8  C   UNL     1     -42.318  54.487 -52.822  1.00  0.00    -0.019 A 
HETATM    9  C   UNL     1     -42.713  55.365 -51.684  1.00  0.00     0.069 C 
HETATM   10  C   UNL     1     -43.337  56.673 -52.202  1.00  0.00     0.238 C 
HETATM   11  N   UNL     1     -44.327  56.404 -53.312  1.00  0.00    -0.061 N 
HETATM   12  H   UNL     1     -45.063  55.789 -52.947  1.00  0.00     0.278 HD
HETATM   13  H   UNL     1     -44.776  57.281 -53.596  1.00  0.00     0.278 HD
HETATM   14  C   UNL     1     -43.753  55.737 -54.539  1.00  0.00     0.269 C 
HETATM   15  C   UNL     1     -40.619  51.835 -54.573  1.00  0.00     0.033 A 
HETATM   16  C   UNL     1     -39.812  51.220 -53.605  1.00  0.00     0.039 A 
ENDROOT
BRANCH  14  17
HETATM   17  C   UNL     1     -43.149  56.761 -55.484  1.00  0.00    -0.019 A 
HETATM   18  C   UNL     1     -42.730  58.033 -55.045  1.00  0.00     0.049 A 
HETATM   19  C   UNL     1     -42.212  58.975 -55.942  1.00  0.00     0.102 A 
HETATM   20  C   UNL     1     -42.132  58.661 -57.310  1.00  0.00     0.102 A 
HETATM   21  C   UNL     1     -42.536  57.401 -57.753  1.00  0.00     0.040 A 
HETATM   22  C   UNL     1     -43.045  56.462 -56.851  1.00  0.00     0.012 A 
BRANCH  19  23
HETATM   23  O   UNL     1     -41.802  60.233 -55.584  1.00  0.00    -0.353 OA
HETATM   24  C   UNL     1     -42.677  61.021 -54.789  1.00  0.00     0.210 C 
ENDBRANCH  19  23
BRANCH  20  25
HETATM   25  O   UNL     1     -41.598  59.628 -58.121  1.00  0.00    -0.343 OA
BRANCH  25  26
HETATM   26  C   UNL     1     -42.406  60.181 -59.154  1.00  0.00     0.129 C 
HETATM   27  C   UNL     1     -42.088  61.651 -59.428  1.00  0.00     0.032 C 
HETATM   28  C   UNL     1     -42.479  61.828 -60.882  1.00  0.00     0.002 C 
HETATM   29  C   UNL     1     -41.954  60.562 -61.539  1.00  0.00     0.002 C 
HETATM   30  C   UNL     1     -42.072  59.471 -60.476  1.00  0.00     0.032 C 
ENDBRANCH  25  26
ENDBRANCH  20  25
ENDBRANCH  14  17
BRANCH   1  31
HETATM   31  O   UNL     1     -39.045  51.149 -51.268  1.00  0.00    -0.356 OA
HETATM   32  C   UNL     1     -39.439  49.881 -50.756  1.00  0.00     0.210 C 
ENDBRANCH   1  31
TORSDOF 5
ENDMDL
MODEL 4
REMARK VINA RESULT:      -8.4      2.987      8.592
REMARK  5 active torsions:
REMARK  status: ('A' for Active; 'I' for Inactive)
REMARK    1  A    between atoms: O_2  and  C_3 
REMARK    2  A    between atoms: C_16  and  C_17 
REMARK    3  A    between atoms: C_19  and  O_20 
REMARK    4  A    between atoms: C_22  and  O_23 
REMARK    5  A    between atoms: O_23  and  C_24 
ROOT
HETATM    1  C   UNL     1     -39.856  51.821 -52.326  1.00  0.00     0.069 A 
HETATM    2  C   UNL     1     -40.694  52.874 -51.932  1.00  0.00     0.051 A 
HETATM    3  C   UNL     1     -41.487  53.537 -52.887  1.00  0.00     0.002 A 
HETATM    4  C   UNL     1     -41.424  53.119 -54.216  1.00  0.00     0.043 A 
HETATM    5  N   UNL     1     -42.274  53.919 -54.949  1.00  0.00    -0.356 N 
HETATM    6  H   UNL     1     -42.396  53.837 -55.951  1.00  0.00     0.166 HD
HETATM    7  C   UNL     1     -42.862  54.842 -54.121  1.00  0.00     0.052 A 
HETATM    8  C   UNL     1     -42.401  54.621 -52.837  1.00  0.00    -0.019 A 
HETATM    9  C   UNL     1     -42.849  55.448 -51.680  1.00  0.00     0.069 C 
HETATM   10  C   UNL     1     -43.475  56.766 -52.168  1.00  0.00     0.238 C 
HETATM   11  N   UNL     1     -44.423  56.527 -53.320  1.00  0.00    -0.061 N 
HETATM   12  H   UNL     1     -45.161  55.887 -53.005  1.00  0.00     0.278 HD
HETATM   13  H   UNL     1     -44.876  57.408 -53.585  1.00  0.00     0.278 HD
HETATM   14  C   UNL     1     -43.798  55.917 -54.552  1.00  0.00     0.269 C 
HETATM   15  C   UNL     1     -40.603  52.065 -54.631  1.00  0.00     0.033 A 
HETATM   16  C   UNL     1     -39.820  51.424 -53.661  1.00  0.00     0.039 A 
ENDROOT
BRANCH  14  17
HETATM   17  C   UNL     1     -43.179  56.987 -55.435  1.00  0.00    -0.019 A 
HETATM   18  C   UNL     1     -42.998  56.805 -56.820  1.00  0.00     0.049 A 
HETATM   19  C   UNL     1     -42.390  57.789 -57.607  1.00  0.00     0.102 A 
HETATM   20  C   UNL     1     -41.925  58.971 -57.005  1.00  0.00     0.102 A 
HETATM   21  C   UNL     1     -42.107  59.165 -55.635  1.00  0.00     0.040 A 
HETATM   22  C   UNL     1     -42.722  58.180 -54.856  1.00  0.00     0.012 A 
BRANCH  19  23
HETATM   23  O   UNL     1     -42.170  57.669 -58.955  1.00  0.00    -0.353 OA
HETATM   24  C   UNL     1     -42.618  56.487 -59.604  1.00  0.00     0.210 C 
ENDBRANCH  19  23
BRANCH  20  25
HETATM   25  O   UNL     1     -41.357  59.893 -57.844  1.00  0.00    -0.343 OA
BRANCH  25  26
HETATM   26  C   UNL     1     -41.695  61.267 -57.688  1.00  0.00     0.129 C 
HETATM   27  C   UNL     1     -40.710  62.200 -58.391  1.00  0.00     0.032 C 
HETATM   28  C   UNL     1     -41.550  63.424 -58.702  1.00  0.00     0.002 C 
HETATM   29  C   UNL     1     -42.865  62.830 -59.179  1.00  0.00     0.002 C 
HETATM   30  C   UNL     1     -43.034  61.529 -58.396  1.00  0.00     0.032 C 
ENDBRANCH  25  26
ENDBRANCH  20  25
ENDBRANCH  14  17
BRANCH   1  31
HETATM   31  O   UNL     1     -39.130  51.272 -51.304  1.00  0.00    -0.356 OA
HETATM   32  C   UNL     1     -39.485  49.957 -50.892  1.00  0.00     0.210 C 
ENDBRANCH   1  31
TORSDOF 5
ENDMDL
MODEL 5
REMARK VINA RESULT:      -8.2      5.336      8.458
REMARK  5 active torsions:
REMARK  status: ('A' for Active; 'I' for Inactive)
REMARK    1  A    between atoms: O_2  and  C_3 
REMARK    2  A    between atoms: C_16  and  C_17 
REMARK    3  A    between atoms: C_19  and  O_20 
REMARK    4  A    between atoms: C_22  and  O_23 
REMARK    5  A    between atoms: O_23  and  C_24 
ROOT
HETATM    1  C   UNL     1     -45.047  63.043 -46.648  1.00  0.00     0.069 A 
HETATM    2  C   UNL     1     -45.014  63.119 -48.048  1.00  0.00     0.051 A 
HETATM    3  C   UNL     1     -45.224  61.961 -48.820  1.00  0.00     0.002 A 
HETATM    4  C   UNL     1     -45.471  60.755 -48.164  1.00  0.00     0.043 A 
HETATM    5  N   UNL     1     -45.634  59.779 -49.125  1.00  0.00    -0.356 N 
HETATM    6  H   UNL     1     -45.803  58.804 -48.910  1.00  0.00     0.166 HD
HETATM    7  C   UNL     1     -45.481  60.333 -50.370  1.00  0.00     0.052 A 
HETATM    8  C   UNL     1     -45.239  61.685 -50.212  1.00  0.00    -0.019 A 
HETATM    9  C   UNL     1     -45.032  62.596 -51.373  1.00  0.00     0.069 C 
HETATM   10  C   UNL     1     -44.686  61.790 -52.637  1.00  0.00     0.238 C 
HETATM   11  N   UNL     1     -45.595  60.592 -52.787  1.00  0.00    -0.061 N 
HETATM   12  H   UNL     1     -46.564  60.925 -52.841  1.00  0.00     0.278 HD
HETATM   13  H   UNL     1     -45.389  60.108 -53.667  1.00  0.00     0.278 HD
HETATM   14  C   UNL     1     -45.528  59.590 -51.660  1.00  0.00     0.269 C 
HETATM   15  C   UNL     1     -45.519  60.657 -46.769  1.00  0.00     0.033 A 
HETATM   16  C   UNL     1     -45.302  61.824 -46.023  1.00  0.00     0.039 A 
ENDROOT
BRANCH  14  17
HETATM   17  C   UNL     1     -44.390  58.606 -51.871  1.00  0.00    -0.019 A 
HETATM   18  C   UNL     1     -43.150  58.741 -51.217  1.00  0.00     0.049 A 
HETATM   19  C   UNL     1     -42.103  57.844 -51.457  1.00  0.00     0.102 A 
HETATM   20  C   UNL     1     -42.277  56.805 -52.387  1.00  0.00     0.102 A 
HETATM   21  C   UNL     1     -43.504  56.657 -53.034  1.00  0.00     0.040 A 
HETATM   22  C   UNL     1     -44.549  57.552 -52.784  1.00  0.00     0.012 A 
BRANCH  19  23
HETATM   23  O   UNL     1     -40.868  57.928 -50.867  1.00  0.00    -0.353 OA
HETATM   24  C   UNL     1     -40.184  59.172 -50.920  1.00  0.00     0.210 C 
ENDBRANCH  19  23
BRANCH  20  25
HETATM   25  O   UNL     1     -41.212  55.960 -52.554  1.00  0.00    -0.343 OA
BRANCH  25  26
HETATM   26  C   UNL     1     -41.379  54.792 -53.351  1.00  0.00     0.129 C 
HETATM   27  C   UNL     1     -40.343  54.690 -54.471  1.00  0.00     0.032 C 
HETATM   28  C   UNL     1     -40.235  53.197 -54.712  1.00  0.00     0.002 C 
HETATM   29  C   UNL     1     -40.235  52.618 -53.307  1.00  0.00     0.002 C 
HETATM   30  C   UNL     1     -41.113  53.555 -52.479  1.00  0.00     0.032 C 
ENDBRANCH  25  26
ENDBRANCH  20  25
ENDBRANCH  14  17
BRANCH   1  31
HETATM   31  O   UNL     1     -44.814  64.236 -46.018  1.00  0.00    -0.356 OA
HETATM   32  C   UNL     1     -45.020  64.275 -44.611  1.00  0.00     0.210 C 
ENDBRANCH   1  31
TORSDOF 5
ENDMDL
MODEL 6
REMARK VINA RESULT:      -8.0      3.268      4.444
REMARK  5 active torsions:
REMARK  status: ('A' for Active; 'I' for Inactive)
REMARK    1  A    between atoms: O_2  and  C_3 
REMARK    2  A    between atoms: C_16  and  C_17 
REMARK    3  A    between atoms: C_19  and  O_20 
REMARK    4  A    between atoms: C_22  and  O_23 
REMARK    5  A    between atoms: O_23  and  C_24 
ROOT
HETATM    1  C   UNL     1     -41.184  62.119 -59.799  1.00  0.00     0.069 A 
HETATM    2  C   UNL     1     -41.557  60.807 -60.125  1.00  0.00     0.051 A 
HETATM    3  C   UNL     1     -42.199  60.000 -59.167  1.00  0.00     0.002 A 
HETATM    4  C   UNL     1     -42.455  60.536 -57.905  1.00  0.00     0.043 A 
HETATM    5  N   UNL     1     -43.075  59.561 -57.152  1.00  0.00    -0.356 N 
HETATM    6  H   UNL     1     -43.348  59.688 -56.185  1.00  0.00     0.166 HD
HETATM    7  C   UNL     1     -43.203  58.418 -57.900  1.00  0.00     0.052 A 
HETATM    8  C   UNL     1     -42.680  58.665 -59.155  1.00  0.00    -0.019 A 
HETATM    9  C   UNL     1     -42.666  57.630 -60.228  1.00  0.00     0.069 C 
HETATM   10  C   UNL     1     -42.869  56.228 -59.628  1.00  0.00     0.238 C 
HETATM   11  N   UNL     1     -43.986  56.226 -58.609  1.00  0.00    -0.061 N 
HETATM   12  H   UNL     1     -44.847  56.535 -59.072  1.00  0.00     0.278 HD
HETATM   13  H   UNL     1     -44.145  55.272 -58.272  1.00  0.00     0.278 HD
HETATM   14  C   UNL     1     -43.770  57.128 -57.417  1.00  0.00     0.269 C 
HETATM   15  C   UNL     1     -42.101  61.845 -57.560  1.00  0.00     0.033 A 
HETATM   16  C   UNL     1     -41.459  62.626 -58.531  1.00  0.00     0.039 A 
ENDROOT
BRANCH  14  17
HETATM   17  C   UNL     1     -42.949  56.430 -56.347  1.00  0.00    -0.019 A 
HETATM   18  C   UNL     1     -42.227  57.144 -55.370  1.00  0.00     0.049 A 
HETATM   19  C   UNL     1     -41.446  56.480 -54.417  1.00  0.00     0.102 A 
HETATM   20  C   UNL     1     -41.354  55.077 -54.449  1.00  0.00     0.102 A 
HETATM   21  C   UNL     1     -42.072  54.361 -55.407  1.00  0.00     0.040 A 
HETATM   22  C   UNL     1     -42.857  55.030 -56.351  1.00  0.00     0.012 A 
BRANCH  19  23
HETATM   23  O   UNL     1     -40.708  57.113 -53.451  1.00  0.00    -0.353 OA
HETATM   24  C   UNL     1     -40.796  58.529 -53.362  1.00  0.00     0.210 C 
ENDBRANCH  19  23
BRANCH  20  25
HETATM   25  O   UNL     1     -40.584  54.501 -53.474  1.00  0.00    -0.343 OA
BRANCH  25  26
HETATM   26  C   UNL     1     -40.768  53.121 -53.177  1.00  0.00     0.129 C 
HETATM   27  C   UNL     1     -39.873  52.212 -54.018  1.00  0.00     0.032 C 
HETATM   28  C   UNL     1     -39.695  50.987 -53.142  1.00  0.00     0.002 C 
HETATM   29  C   UNL     1     -39.485  51.579 -51.758  1.00  0.00     0.002 C 
HETATM   30  C   UNL     1     -40.316  52.861 -51.731  1.00  0.00     0.032 C 
ENDBRANCH  25  26
ENDBRANCH  20  25
ENDBRANCH  14  17
BRANCH   1  31
HETATM   31  O   UNL     1     -40.557  62.790 -60.815  1.00  0.00    -0.356 OA
HETATM   32  C   UNL     1     -41.350  63.141 -61.943  1.00  0.00     0.210 C 
ENDBRANCH   1  31
TORSDOF 5
ENDMDL
MODEL 7
REMARK VINA RESULT:      -8.0      2.763      7.942
REMARK  5 active torsions:
REMARK  status: ('A' for Active; 'I' for Inactive)
REMARK    1  A    between atoms: O_2  and  C_3 
REMARK    2  A    between atoms: C_16  and  C_17 
REMARK    3  A    between atoms: C_19  and  O_20 
REMARK    4  A    between atoms: C_22  and  O_23 
REMARK    5  A    between atoms: O_23  and  C_24 
ROOT
HETATM    1  C   UNL     1     -40.866  54.538 -50.049  1.00  0.00     0.069 A 
HETATM    2  C   UNL     1     -41.090  55.895 -50.323  1.00  0.00     0.051 A 
HETATM    3  C   UNL     1     -42.102  56.272 -51.226  1.00  0.00     0.002 A 
HETATM    4  C   UNL     1     -42.870  55.274 -51.826  1.00  0.00     0.043 A 
HETATM    5  N   UNL     1     -43.777  55.888 -52.664  1.00  0.00    -0.356 N 
HETATM    6  H   UNL     1     -44.440  55.383 -53.239  1.00  0.00     0.166 HD
HETATM    7  C   UNL     1     -43.592  57.247 -52.622  1.00  0.00     0.052 A 
HETATM    8  C   UNL     1     -42.569  57.514 -51.730  1.00  0.00    -0.019 A 
HETATM    9  C   UNL     1     -42.113  58.902 -51.437  1.00  0.00     0.069 C 
HETATM   10  C   UNL     1     -42.588  59.869 -52.536  1.00  0.00     0.238 C 
HETATM   11  N   UNL     1     -44.036  59.624 -52.892  1.00  0.00    -0.061 N 
HETATM   12  H   UNL     1     -44.603  59.751 -52.047  1.00  0.00     0.278 HD
HETATM   13  H   UNL     1     -44.347  60.320 -53.577  1.00  0.00     0.278 HD
HETATM   14  C   UNL     1     -44.340  58.247 -53.433  1.00  0.00     0.269 C 
HETATM   15  C   UNL     1     -42.672  53.915 -51.560  1.00  0.00     0.033 A 
HETATM   16  C   UNL     1     -41.655  53.565 -50.661  1.00  0.00     0.039 A 
ENDROOT
BRANCH  14  17
HETATM   17  C   UNL     1     -44.081  58.179 -54.927  1.00  0.00    -0.019 A 
HETATM   18  C   UNL     1     -45.085  58.455 -55.877  1.00  0.00     0.049 A 
HETATM   19  C   UNL     1     -44.833  58.348 -57.250  1.00  0.00     0.102 A 
HETATM   20  C   UNL     1     -43.566  57.931 -57.693  1.00  0.00     0.102 A 
HETATM   21  C   UNL     1     -42.563  57.664 -56.762  1.00  0.00     0.040 A 
HETATM   22  C   UNL     1     -42.818  57.780 -55.392  1.00  0.00     0.012 A 
BRANCH  19  23
HETATM   23  O   UNL     1     -45.768  58.586 -58.224  1.00  0.00    -0.353 OA
HETATM   24  C   UNL     1     -47.048  57.985 -58.084  1.00  0.00     0.210 C 
ENDBRANCH  19  23
BRANCH  20  25
HETATM   25  O   UNL     1     -43.393  57.867 -59.051  1.00  0.00    -0.343 OA
BRANCH  25  26
HETATM   26  C   UNL     1     -43.403  56.593 -59.686  1.00  0.00     0.129 C 
HETATM   27  C   UNL     1     -43.674  55.449 -58.710  1.00  0.00     0.032 C 
HETATM   28  C   UNL     1     -44.308  54.385 -59.585  1.00  0.00     0.002 C 
HETATM   29  C   UNL     1     -45.256  55.182 -60.466  1.00  0.00     0.002 C 
HETATM   30  C   UNL     1     -44.584  56.539 -60.668  1.00  0.00     0.032 C 
ENDBRANCH  25  26
ENDBRANCH  20  25
ENDBRANCH  14  17
BRANCH   1  31
HETATM   31  O   UNL     1     -39.846  54.307 -49.166  1.00  0.00    -0.356 OA
HETATM   32  C   UNL     1     -40.209  53.893 -47.854  1.00  0.00     0.210 C 
ENDBRANCH   1  31
TORSDOF 5
ENDMDL
MODEL 8
REMARK VINA RESULT:      -7.7     15.682     17.510
REMARK  5 active torsions:
REMARK  status: ('A' for Active; 'I' for Inactive)
REMARK    1  A    between atoms: O_2  and  C_3 
REMARK    2  A    between atoms: C_16  and  C_17 
REMARK    3  A    between atoms: C_19  and  O_20 
REMARK    4  A    between atoms: C_22  and  O_23 
REMARK    5  A    between atoms: O_23  and  C_24 
ROOT
HETATM    1  C   UNL     1     -38.695  38.639 -60.434  1.00  0.00     0.069 A 
HETATM    2  C   UNL     1     -38.922  39.286 -59.211  1.00  0.00     0.051 A 
HETATM    3  C   UNL     1     -37.861  39.929 -58.548  1.00  0.00     0.002 A 
HETATM    4  C   UNL     1     -36.596  39.912 -59.136  1.00  0.00     0.043 A 
HETATM    5  N   UNL     1     -35.735  40.592 -58.301  1.00  0.00    -0.356 N 
HETATM    6  H   UNL     1     -34.746  40.706 -58.488  1.00  0.00     0.166 HD
HETATM    7  C   UNL     1     -36.418  41.026 -57.194  1.00  0.00     0.052 A 
HETATM    8  C   UNL     1     -37.739  40.639 -57.326  1.00  0.00    -0.019 A 
HETATM    9  C   UNL     1     -38.766  40.958 -56.294  1.00  0.00     0.069 C 
HETATM   10  C   UNL     1     -38.095  41.332 -54.961  1.00  0.00     0.238 C 
HETATM   11  N   UNL     1     -36.941  42.283 -55.177  1.00  0.00    -0.061 N 
HETATM   12  H   UNL     1     -37.299  43.128 -55.635  1.00  0.00     0.278 HD
HETATM   13  H   UNL     1     -36.551  42.567 -54.272  1.00  0.00     0.278 HD
HETATM   14  C   UNL     1     -35.820  41.748 -56.037  1.00  0.00     0.269 C 
HETATM   15  C   UNL     1     -36.348  39.282 -60.360  1.00  0.00     0.033 A 
HETATM   16  C   UNL     1     -37.421  38.645 -60.998  1.00  0.00     0.039 A 
ENDROOT
BRANCH  14  17
HETATM   17  C   UNL     1     -34.841  40.932 -55.211  1.00  0.00    -0.019 A 
HETATM   18  C   UNL     1     -33.461  40.906 -55.491  1.00  0.00     0.049 A 
HETATM   19  C   UNL     1     -32.584  40.115 -54.740  1.00  0.00     0.102 A 
HETATM   20  C   UNL     1     -33.088  39.310 -53.704  1.00  0.00     0.102 A 
HETATM   21  C   UNL     1     -34.452  39.334 -53.413  1.00  0.00     0.040 A 
HETATM   22  C   UNL     1     -35.322  40.133 -54.162  1.00  0.00     0.012 A 
BRANCH  19  23
HETATM   23  O   UNL     1     -31.235  40.032 -54.971  1.00  0.00    -0.353 OA
HETATM   24  C   UNL     1     -30.799  39.499 -56.214  1.00  0.00     0.210 C 
ENDBRANCH  19  23
BRANCH  20  25
HETATM   25  O   UNL     1     -32.164  38.578 -53.006  1.00  0.00    -0.343 OA
BRANCH  25  26
HETATM   26  C   UNL     1     -31.910  38.910 -51.645  1.00  0.00     0.129 C 
HETATM   27  C   UNL     1     -32.179  40.383 -51.337  1.00  0.00     0.032 C 
HETATM   28  C   UNL     1     -32.526  40.374 -49.861  1.00  0.00     0.002 C 
HETATM   29  C   UNL     1     -33.422  39.153 -49.723  1.00  0.00     0.002 C 
HETATM   30  C   UNL     1     -32.908  38.151 -50.756  1.00  0.00     0.032 C 
ENDBRANCH  25  26
ENDBRANCH  20  25
ENDBRANCH  14  17
BRANCH   1  31
HETATM   31  O   UNL     1     -39.807  38.043 -60.966  1.00  0.00    -0.356 OA
HETATM   32  C   UNL     1     -39.794  37.782 -62.364  1.00  0.00     0.210 C 
ENDBRANCH   1  31
TORSDOF 5
ENDMDL
MODEL 9
REMARK VINA RESULT:      -7.6      3.179      8.491
REMARK  5 active torsions:
REMARK  status: ('A' for Active; 'I' for Inactive)
REMARK    1  A    between atoms: O_2  and  C_3 
REMARK    2  A    between atoms: C_16  and  C_17 
REMARK    3  A    between atoms: C_19  and  O_20 
REMARK    4  A    between atoms: C_22  and  O_23 
REMARK    5  A    between atoms: O_23  and  C_24 
ROOT
HETATM    1  C   UNL     1     -41.171  54.830 -50.010  1.00  0.00     0.069 A 
HETATM    2  C   UNL     1     -41.091  56.154 -50.465  1.00  0.00     0.051 A 
HETATM    3  C   UNL     1     -42.172  56.724 -51.164  1.00  0.00     0.002 A 
HETATM    4  C   UNL     1     -43.311  55.949 -51.381  1.00  0.00     0.043 A 
HETATM    5  N   UNL     1     -44.214  56.718 -52.085  1.00  0.00    -0.356 N 
HETATM    6  H   UNL     1     -45.119  56.381 -52.390  1.00  0.00     0.166 HD
HETATM    7  C   UNL     1     -43.670  57.953 -52.332  1.00  0.00     0.052 A 
HETATM    8  C   UNL     1     -42.410  57.988 -51.762  1.00  0.00    -0.019 A 
HETATM    9  C   UNL     1     -41.538  59.195 -51.838  1.00  0.00     0.069 C 
HETATM   10  C   UNL     1     -42.019  60.139 -52.953  1.00  0.00     0.238 C 
HETATM   11  N   UNL     1     -43.520  60.309 -52.916  1.00  0.00    -0.061 N 
HETATM   12  H   UNL     1     -43.781  60.692 -52.001  1.00  0.00     0.278 HD
HETATM   13  H   UNL     1     -43.809  60.991 -53.625  1.00  0.00     0.278 HD
HETATM   14  C   UNL     1     -44.316  59.042 -53.115  1.00  0.00     0.269 C 
HETATM   15  C   UNL     1     -43.418  54.630 -50.927  1.00  0.00     0.033 A 
HETATM   16  C   UNL     1     -42.326  54.085 -50.239  1.00  0.00     0.039 A 
ENDROOT
BRANCH  14  17
HETATM   17  C   UNL     1     -44.503  58.741 -54.592  1.00  0.00    -0.019 A 
HETATM   18  C   UNL     1     -43.694  57.814 -55.278  1.00  0.00     0.049 A 
HETATM   19  C   UNL     1     -43.860  57.582 -56.648  1.00  0.00     0.102 A 
HETATM   20  C   UNL     1     -44.831  58.305 -57.363  1.00  0.00     0.102 A 
HETATM   21  C   UNL     1     -45.643  59.219 -56.691  1.00  0.00     0.040 A 
HETATM   22  C   UNL     1     -45.477  59.440 -55.321  1.00  0.00     0.012 A 
BRANCH  19  23
HETATM   23  O   UNL     1     -43.097  56.707 -57.378  1.00  0.00    -0.353 OA
HETATM   24  C   UNL     1     -42.950  55.380 -56.891  1.00  0.00     0.210 C 
ENDBRANCH  19  23
BRANCH  20  25
HETATM   25  O   UNL     1     -44.943  58.009 -58.696  1.00  0.00    -0.343 OA
BRANCH  25  26
HETATM   26  C   UNL     1     -46.164  57.457 -59.178  1.00  0.00     0.129 C 
HETATM   27  C   UNL     1     -46.817  58.322 -60.255  1.00  0.00     0.032 C 
HETATM   28  C   UNL     1     -47.614  57.322 -61.071  1.00  0.00     0.002 C 
HETATM   29  C   UNL     1     -46.668  56.139 -61.189  1.00  0.00     0.002 C 
HETATM   30  C   UNL     1     -45.859  56.131 -59.892  1.00  0.00     0.032 C 
ENDBRANCH  25  26
ENDBRANCH  20  25
ENDBRANCH  14  17
BRANCH   1  31
HETATM   31  O   UNL     1     -40.049  54.394 -49.359  1.00  0.00    -0.356 OA
HETATM   32  C   UNL     1     -40.196  54.029 -47.992  1.00  0.00     0.210 C 
ENDBRANCH   1  31
TORSDOF 5
ENDMDL
MODEL 10
REMARK VINA RESULT:      -7.6      2.964      8.496
REMARK  5 active torsions:
REMARK  status: ('A' for Active; 'I' for Inactive)
REMARK    1  A    between atoms: O_2  and  C_3 
REMARK    2  A    between atoms: C_16  and  C_17 
REMARK    3  A    between atoms: C_19  and  O_20 
REMARK    4  A    between atoms: C_22  and  O_23 
REMARK    5  A    between atoms: O_23  and  C_24 
ROOT
HETATM    1  C   UNL     1     -40.462  53.711 -51.948  1.00  0.00     0.069 A 
HETATM    2  C   UNL     1     -41.197  54.885 -51.733  1.00  0.00     0.051 A 
HETATM    3  C   UNL     1     -42.150  55.302 -52.681  1.00  0.00     0.002 A 
HETATM    4  C   UNL     1     -42.347  54.521 -53.819  1.00  0.00     0.043 A 
HETATM    5  N   UNL     1     -43.313  55.135 -54.589  1.00  0.00    -0.356 N 
HETATM    6  H   UNL     1     -43.626  54.780 -55.484  1.00  0.00     0.166 HD
HETATM    7  C   UNL     1     -43.721  56.291 -53.974  1.00  0.00     0.052 A 
HETATM    8  C   UNL     1     -43.026  56.413 -52.785  1.00  0.00    -0.019 A 
HETATM    9  C   UNL     1     -43.234  57.562 -51.858  1.00  0.00     0.069 C 
HETATM   10  C   UNL     1     -43.927  58.726 -52.587  1.00  0.00     0.238 C 
HETATM   11  N   UNL     1     -45.081  58.234 -53.430  1.00  0.00    -0.061 N 
HETATM   12  H   UNL     1     -45.752  57.760 -52.815  1.00  0.00     0.278 HD
HETATM   13  H   UNL     1     -45.566  59.031 -53.854  1.00  0.00     0.278 HD
HETATM   14  C   UNL     1     -44.710  57.260 -54.522  1.00  0.00     0.269 C 
HETATM   15  C   UNL     1     -41.634  53.340 -54.050  1.00  0.00     0.033 A 
HETATM   16  C   UNL     1     -40.686  52.950 -53.093  1.00  0.00     0.039 A 
ENDROOT
BRANCH  14  17
HETATM   17  C   UNL     1     -44.260  57.992 -55.775  1.00  0.00    -0.019 A 
HETATM   18  C   UNL     1     -43.385  57.408 -56.712  1.00  0.00     0.049 A 
HETATM   19  C   UNL     1     -42.953  58.116 -57.839  1.00  0.00     0.102 A 
HETATM   20  C   UNL     1     -43.375  59.443 -58.030  1.00  0.00     0.102 A 
HETATM   21  C   UNL     1     -44.247  60.028 -57.113  1.00  0.00     0.040 A 
HETATM   22  C   UNL     1     -44.682  59.312 -55.992  1.00  0.00     0.012 A 
BRANCH  19  23
HETATM   23  O   UNL     1     -42.091  57.613 -58.780  1.00  0.00    -0.353 OA
HETATM   24  C   UNL     1     -42.559  56.574 -59.629  1.00  0.00     0.210 C 
ENDBRANCH  19  23
BRANCH  20  25
HETATM   25  O   UNL     1     -42.922  60.063 -59.165  1.00  0.00    -0.343 OA
BRANCH  25  26
HETATM   26  C   UNL     1     -42.339  61.357 -59.057  1.00  0.00     0.129 C 
HETATM   27  C   UNL     1     -41.051  61.357 -58.236  1.00  0.00     0.032 C 
HETATM   28  C   UNL     1     -40.280  62.538 -58.793  1.00  0.00     0.002 C 
HETATM   29  C   UNL     1     -40.500  62.418 -60.292  1.00  0.00     0.002 C 
HETATM   30  C   UNL     1     -41.896  61.818 -60.454  1.00  0.00     0.032 C 
ENDBRANCH  25  26
ENDBRANCH  20  25
ENDBRANCH  14  17
BRANCH   1  31
HETATM   31  O   UNL     1     -39.560  53.427 -50.958  1.00  0.00    -0.356 OA
HETATM   32  C   UNL     1     -39.728  54.102 -49.717  1.00  0.00     0.210 C 
ENDBRANCH   1  31
TORSDOF 5
ENDMDL
