MODEL 1
REMARK VINA RESULT:      -7.2      0.000      0.000
REMARK  4 active torsions:
REMARK  status: ('A' for Active; 'I' for Inactive)
REMARK    1  A    between atoms: C_2  and  N_3 
REMARK    2  A    between atoms: C_2  and  C_13 
REMARK       I    between atoms: N_3  and  C_4 
REMARK    3  A    between atoms: C_4  and  C_5 
REMARK    4  A    between atoms: C_6  and  C_7 
ROOT
HETATM    1  C   UNL     1     -44.817  57.339 -53.938  1.00  0.00     0.040 C 
HETATM    2  C   UNL     1     -43.345  57.076 -54.240  1.00  0.00     0.150 C 
ENDROOT
BRANCH   2   3
HETATM    3  N   UNL     1     -42.950  55.768 -53.744  1.00  0.00    -0.346 N 
HETATM    4  C   UNL     1     -41.754  55.587 -53.099  1.00  0.00     0.241 C 
HETATM    5  O   UNL     1     -40.972  56.496 -52.846  1.00  0.00    -0.269 OA
HETATM    6  H   UNL     1     -43.427  54.970 -54.143  1.00  0.00     0.163 HD
BRANCH   4   7
HETATM    7  C   UNL     1     -41.483  54.168 -52.764  1.00  0.00     0.075 C 
HETATM    8  C   UNL     1     -40.558  53.483 -53.457  1.00  0.00     0.017 C 
BRANCH   8   9
HETATM    9  C   UNL     1     -40.177  52.120 -53.231  1.00  0.00    -0.029 A 
HETATM   10  C   UNL     1     -39.791  51.675 -51.981  1.00  0.00     0.061 A 
HETATM   11  S   UNL     1     -39.392  50.010 -51.970  1.00  0.00    -0.113 SA
HETATM   12  C   UNL     1     -39.736  49.864 -53.637  1.00  0.00     0.050 A 
HETATM   13  C   UNL     1     -40.143  51.060 -54.190  1.00  0.00     0.019 A 
ENDBRANCH   8   9
ENDBRANCH   4   7
ENDBRANCH   2   3
BRANCH   2  14
HETATM   14  C   UNL     1     -43.055  57.124 -55.709  1.00  0.00     0.127 A 
HETATM   15  N   UNL     1     -42.432  58.071 -56.386  1.00  0.00    -0.231 NA
HETATM   16  C   UNL     1     -42.429  57.646 -57.693  1.00  0.00     0.085 A 
HETATM   17  C   UNL     1     -43.076  56.422 -57.822  1.00  0.00     0.062 A 
HETATM   18  C   UNL     1     -41.892  58.260 -58.834  1.00  0.00     0.034 A 
HETATM   19  N   UNL     1     -43.476  56.117 -56.549  1.00  0.00    -0.341 N 
HETATM   20  C   UNL     1     -43.226  55.759 -59.041  1.00  0.00     0.032 A 
HETATM   21  H   UNL     1     -44.025  55.316 -56.259  1.00  0.00     0.167 HD
HETATM   22  C   UNL     1     -42.681  56.386 -60.168  1.00  0.00     0.002 A 
HETATM   23  C   UNL     1     -42.024  57.616 -60.070  1.00  0.00     0.002 A 
ENDBRANCH   2  14
TORSDOF 4
ENDMDL
MODEL 2
REMARK VINA RESULT:      -7.1      1.572      2.173
REMARK  4 active torsions:
REMARK  status: ('A' for Active; 'I' for Inactive)
REMARK    1  A    between atoms: C_2  and  N_3 
REMARK    2  A    between atoms: C_2  and  C_13 
REMARK       I    between atoms: N_3  and  C_4 
REMARK    3  A    between atoms: C_4  and  C_5 
REMARK    4  A    between atoms: C_6  and  C_7 
ROOT
HETATM    1  C   UNL     1     -43.271  57.977 -55.129  1.00  0.00     0.040 C 
HETATM    2  C   UNL     1     -42.533  56.933 -55.961  1.00  0.00     0.150 C 
ENDROOT
BRANCH   2   3
HETATM    3  N   UNL     1     -42.327  55.720 -55.188  1.00  0.00    -0.346 N 
HETATM    4  C   UNL     1     -41.341  55.643 -54.239  1.00  0.00     0.241 C 
HETATM    5  O   UNL     1     -40.614  56.583 -53.935  1.00  0.00    -0.269 OA
HETATM    6  H   UNL     1     -42.718  54.868 -55.570  1.00  0.00     0.163 HD
BRANCH   4   7
HETATM    7  C   UNL     1     -41.218  54.295 -53.634  1.00  0.00     0.075 C 
HETATM    8  C   UNL     1     -40.304  53.432 -54.106  1.00  0.00     0.017 C 
BRANCH   8   9
HETATM    9  C   UNL     1     -40.058  52.111 -53.607  1.00  0.00    -0.029 A 
HETATM   10  C   UNL     1     -39.739  51.886 -52.283  1.00  0.00     0.061 A 
HETATM   11  S   UNL     1     -39.501  50.226 -51.936  1.00  0.00    -0.113 SA
HETATM   12  C   UNL     1     -39.826  49.789 -53.555  1.00  0.00     0.050 A 
HETATM   13  C   UNL     1     -40.108  50.886 -54.343  1.00  0.00     0.019 A 
ENDBRANCH   8   9
ENDBRANCH   4   7
ENDBRANCH   2   3
BRANCH   2  14
HETATM   14  C   UNL     1     -43.286  56.571 -57.205  1.00  0.00     0.127 A 
HETATM   15  N   UNL     1     -42.979  55.655 -58.105  1.00  0.00    -0.231 NA
HETATM   16  C   UNL     1     -43.978  55.717 -59.047  1.00  0.00     0.085 A 
HETATM   17  C   UNL     1     -44.907  56.701 -58.726  1.00  0.00     0.062 A 
HETATM   18  C   UNL     1     -44.156  54.963 -60.215  1.00  0.00     0.034 A 
HETATM   19  N   UNL     1     -44.438  57.237 -57.557  1.00  0.00    -0.341 N 
HETATM   20  C   UNL     1     -46.024  56.987 -59.512  1.00  0.00     0.032 A 
HETATM   21  H   UNL     1     -44.832  58.019 -57.045  1.00  0.00     0.167 HD
HETATM   22  C   UNL     1     -46.187  56.221 -60.673  1.00  0.00     0.002 A 
HETATM   23  C   UNL     1     -45.271  55.225 -61.022  1.00  0.00     0.002 A 
ENDBRANCH   2  14
TORSDOF 4
ENDMDL
MODEL 3
REMARK VINA RESULT:      -6.9      0.980      1.300
REMARK  4 active torsions:
REMARK  status: ('A' for Active; 'I' for Inactive)
REMARK    1  A    between atoms: C_2  and  N_3 
REMARK    2  A    between atoms: C_2  and  C_13 
REMARK       I    between atoms: N_3  and  C_4 
REMARK    3  A    between atoms: C_4  and  C_5 
REMARK    4  A    between atoms: C_6  and  C_7 
ROOT
HETATM    1  C   UNL     1     -44.566  57.493 -53.728  1.00  0.00     0.040 C 
HETATM    2  C   UNL     1     -43.291  57.017 -54.417  1.00  0.00     0.150 C 
ENDROOT
BRANCH   2   3
HETATM    3  N   UNL     1     -42.880  55.727 -53.889  1.00  0.00    -0.346 N 
HETATM    4  C   UNL     1     -41.735  55.598 -53.146  1.00  0.00     0.241 C 
HETATM    5  O   UNL     1     -41.019  56.541 -52.829  1.00  0.00    -0.269 OA
HETATM    6  H   UNL     1     -43.285  54.909 -54.325  1.00  0.00     0.163 HD
BRANCH   4   7
HETATM    7  C   UNL     1     -41.429  54.192 -52.788  1.00  0.00     0.075 C 
HETATM    8  C   UNL     1     -40.624  53.462 -53.578  1.00  0.00     0.017 C 
BRANCH   8   9
HETATM    9  C   UNL     1     -40.224  52.105 -53.347  1.00  0.00    -0.029 A 
HETATM   10  C   UNL     1     -39.790  51.680 -52.107  1.00  0.00     0.061 A 
HETATM   11  S   UNL     1     -39.379  50.018 -52.087  1.00  0.00    -0.113 SA
HETATM   12  C   UNL     1     -39.781  49.847 -53.739  1.00  0.00     0.050 A 
HETATM   13  C   UNL     1     -40.217  51.032 -54.293  1.00  0.00     0.019 A 
ENDBRANCH   8   9
ENDBRANCH   4   7
ENDBRANCH   2   3
BRANCH   2  14
HETATM   14  C   UNL     1     -43.471  56.878 -55.898  1.00  0.00     0.127 A 
HETATM   15  N   UNL     1     -42.703  56.231 -56.754  1.00  0.00    -0.231 NA
HETATM   16  C   UNL     1     -43.292  56.409 -57.983  1.00  0.00     0.085 A 
HETATM   17  C   UNL     1     -44.436  57.193 -57.880  1.00  0.00     0.062 A 
HETATM   18  C   UNL     1     -42.902  55.931 -59.242  1.00  0.00     0.034 A 
HETATM   19  N   UNL     1     -44.521  57.489 -56.546  1.00  0.00    -0.341 N 
HETATM   20  C   UNL     1     -45.230  57.539 -58.974  1.00  0.00     0.032 A 
HETATM   21  H   UNL     1     -45.205  58.087 -56.098  1.00  0.00     0.167 HD
HETATM   22  C   UNL     1     -44.826  57.050 -60.222  1.00  0.00     0.002 A 
HETATM   23  C   UNL     1     -43.682  56.259 -60.358  1.00  0.00     0.002 A 
ENDBRANCH   2  14
TORSDOF 4
ENDMDL
MODEL 4
REMARK VINA RESULT:      -6.8      2.995      7.036
REMARK  4 active torsions:
REMARK  status: ('A' for Active; 'I' for Inactive)
REMARK    1  A    between atoms: C_2  and  N_3 
REMARK    2  A    between atoms: C_2  and  C_13 
REMARK       I    between atoms: N_3  and  C_4 
REMARK    3  A    between atoms: C_4  and  C_5 
REMARK    4  A    between atoms: C_6  and  C_7 
ROOT
HETATM    1  C   UNL     1     -41.374  57.425 -51.554  1.00  0.00     0.040 C 
HETATM    2  C   UNL     1     -42.178  56.417 -52.368  1.00  0.00     0.150 C 
ENDROOT
BRANCH   2   3
HETATM    3  N   UNL     1     -42.359  56.892 -53.730  1.00  0.00    -0.346 N 
HETATM    4  C   UNL     1     -43.603  57.209 -54.211  1.00  0.00     0.241 C 
HETATM    5  O   UNL     1     -44.624  57.173 -53.533  1.00  0.00    -0.269 OA
HETATM    6  H   UNL     1     -41.608  56.700 -54.380  1.00  0.00     0.163 HD
BRANCH   4   7
HETATM    7  C   UNL     1     -43.596  57.572 -55.648  1.00  0.00     0.075 C 
HETATM    8  C   UNL     1     -42.849  56.864 -56.512  1.00  0.00     0.017 C 
BRANCH   8   9
HETATM    9  C   UNL     1     -42.762  57.085 -57.926  1.00  0.00    -0.029 A 
HETATM   10  C   UNL     1     -42.058  58.152 -58.449  1.00  0.00     0.061 A 
HETATM   11  S   UNL     1     -42.099  58.190 -60.160  1.00  0.00    -0.113 SA
HETATM   12  C   UNL     1     -43.056  56.777 -60.220  1.00  0.00     0.050 A 
HETATM   13  C   UNL     1     -43.340  56.288 -58.962  1.00  0.00     0.019 A 
ENDBRANCH   8   9
ENDBRANCH   4   7
ENDBRANCH   2   3
BRANCH   2  14
HETATM   14  C   UNL     1     -41.508  55.078 -52.427  1.00  0.00     0.127 A 
HETATM   15  N   UNL     1     -41.003  54.376 -51.431  1.00  0.00    -0.231 NA
HETATM   16  C   UNL     1     -40.502  53.232 -52.004  1.00  0.00     0.085 A 
HETATM   17  C   UNL     1     -40.690  53.241 -53.382  1.00  0.00     0.062 A 
HETATM   18  C   UNL     1     -39.863  52.136 -51.408  1.00  0.00     0.034 A 
HETATM   19  N   UNL     1     -41.321  54.431 -53.628  1.00  0.00    -0.341 N 
HETATM   20  C   UNL     1     -40.272  52.206 -54.220  1.00  0.00     0.032 A 
HETATM   21  H   UNL     1     -41.576  54.809 -54.533  1.00  0.00     0.167 HD
HETATM   22  C   UNL     1     -39.639  51.118 -53.606  1.00  0.00     0.002 A 
HETATM   23  C   UNL     1     -39.436  51.080 -52.224  1.00  0.00     0.002 A 
ENDBRANCH   2  14
TORSDOF 4
ENDMDL
MODEL 5
REMARK VINA RESULT:      -6.8      2.171      3.401
REMARK  4 active torsions:
REMARK  status: ('A' for Active; 'I' for Inactive)
REMARK    1  A    between atoms: C_2  and  N_3 
REMARK    2  A    between atoms: C_2  and  C_13 
REMARK       I    between atoms: N_3  and  C_4 
REMARK    3  A    between atoms: C_4  and  C_5 
REMARK    4  A    between atoms: C_6  and  C_7 
ROOT
HETATM    1  C   UNL     1     -43.628  55.570 -59.628  1.00  0.00     0.040 C 
HETATM    2  C   UNL     1     -43.405  56.309 -58.313  1.00  0.00     0.150 C 
ENDROOT
BRANCH   2   3
HETATM    3  N   UNL     1     -42.508  55.556 -57.452  1.00  0.00    -0.346 N 
HETATM    4  C   UNL     1     -42.731  55.466 -56.102  1.00  0.00     0.241 C 
HETATM    5  O   UNL     1     -43.706  55.950 -55.539  1.00  0.00    -0.269 OA
HETATM    6  H   UNL     1     -41.585  55.363 -57.819  1.00  0.00     0.163 HD
BRANCH   4   7
HETATM    7  C   UNL     1     -41.653  54.747 -55.381  1.00  0.00     0.075 C 
HETATM    8  C   UNL     1     -41.964  53.748 -54.539  1.00  0.00     0.017 C 
BRANCH   8   9
HETATM    9  C   UNL     1     -41.030  52.954 -53.795  1.00  0.00    -0.029 A 
HETATM   10  C   UNL     1     -40.796  53.182 -52.453  1.00  0.00     0.061 A 
HETATM   11  S   UNL     1     -39.647  52.097 -51.793  1.00  0.00    -0.113 SA
HETATM   12  C   UNL     1     -39.454  51.307 -53.296  1.00  0.00     0.050 A 
HETATM   13  C   UNL     1     -40.246  51.861 -54.279  1.00  0.00     0.019 A 
ENDBRANCH   8   9
ENDBRANCH   4   7
ENDBRANCH   2   3
BRANCH   2  14
HETATM   14  C   UNL     1     -42.814  57.669 -58.526  1.00  0.00     0.127 A 
HETATM   15  N   UNL     1     -42.325  58.495 -57.620  1.00  0.00    -0.231 NA
HETATM   16  C   UNL     1     -41.915  59.605 -58.319  1.00  0.00     0.085 A 
HETATM   17  C   UNL     1     -42.173  59.463 -59.678  1.00  0.00     0.062 A 
HETATM   18  C   UNL     1     -41.315  60.785 -57.856  1.00  0.00     0.034 A 
HETATM   19  N   UNL     1     -42.756  58.228 -59.782  1.00  0.00    -0.341 N 
HETATM   20  C   UNL     1     -41.865  60.442 -60.624  1.00  0.00     0.032 A 
HETATM   21  H   UNL     1     -43.126  57.800 -60.622  1.00  0.00     0.167 HD
HETATM   22  C   UNL     1     -41.263  61.611 -60.144  1.00  0.00     0.002 A 
HETATM   23  C   UNL     1     -40.991  61.784 -58.783  1.00  0.00     0.002 A 
ENDBRANCH   2  14
TORSDOF 4
ENDMDL
MODEL 6
REMARK VINA RESULT:      -6.6      3.859      7.761
REMARK  4 active torsions:
REMARK  status: ('A' for Active; 'I' for Inactive)
REMARK    1  A    between atoms: C_2  and  N_3 
REMARK    2  A    between atoms: C_2  and  C_13 
REMARK       I    between atoms: N_3  and  C_4 
REMARK    3  A    between atoms: C_4  and  C_5 
REMARK    4  A    between atoms: C_6  and  C_7 
ROOT
HETATM    1  C   UNL     1     -41.878  55.337 -55.683  1.00  0.00     0.040 C 
HETATM    2  C   UNL     1     -40.991  55.469 -54.449  1.00  0.00     0.150 C 
ENDROOT
BRANCH   2   3
HETATM    3  N   UNL     1     -41.660  56.253 -53.424  1.00  0.00    -0.346 N 
HETATM    4  C   UNL     1     -41.172  57.474 -53.035  1.00  0.00     0.241 C 
HETATM    5  O   UNL     1     -40.195  58.010 -53.546  1.00  0.00    -0.269 OA
HETATM    6  H   UNL     1     -42.297  55.754 -52.816  1.00  0.00     0.163 HD
BRANCH   4   7
HETATM    7  C   UNL     1     -41.927  58.070 -51.907  1.00  0.00     0.075 C 
HETATM    8  C   UNL     1     -42.644  59.190 -52.102  1.00  0.00     0.017 C 
BRANCH   8   9
HETATM    9  C   UNL     1     -43.438  59.862 -51.116  1.00  0.00    -0.029 A 
HETATM   10  C   UNL     1     -44.765  59.539 -50.914  1.00  0.00     0.061 A 
HETATM   11  S   UNL     1     -45.490  60.477 -49.679  1.00  0.00    -0.113 SA
HETATM   12  C   UNL     1     -44.033  61.324 -49.397  1.00  0.00     0.050 A 
HETATM   13  C   UNL     1     -43.018  60.902 -50.229  1.00  0.00     0.019 A 
ENDBRANCH   8   9
ENDBRANCH   4   7
ENDBRANCH   2   3
BRANCH   2  14
HETATM   14  C   UNL     1     -40.643  54.135 -53.861  1.00  0.00     0.127 A 
HETATM   15  N   UNL     1     -40.403  53.839 -52.598  1.00  0.00    -0.231 NA
HETATM   16  C   UNL     1     -40.129  52.493 -52.582  1.00  0.00     0.085 A 
HETATM   17  C   UNL     1     -40.188  51.955 -53.863  1.00  0.00     0.062 A 
HETATM   18  C   UNL     1     -39.813  51.655 -51.503  1.00  0.00     0.034 A 
HETATM   19  N   UNL     1     -40.505  53.022 -54.661  1.00  0.00    -0.341 N 
HETATM   20  C   UNL     1     -39.947  50.609 -54.142  1.00  0.00     0.032 A 
HETATM   21  H   UNL     1     -40.586  53.023 -55.671  1.00  0.00     0.167 HD
HETATM   22  C   UNL     1     -39.637  49.788 -53.052  1.00  0.00     0.002 A 
HETATM   23  C   UNL     1     -39.570  50.298 -51.752  1.00  0.00     0.002 A 
ENDBRANCH   2  14
TORSDOF 4
ENDMDL
MODEL 7
REMARK VINA RESULT:      -6.4      3.645      8.030
REMARK  4 active torsions:
REMARK  status: ('A' for Active; 'I' for Inactive)
REMARK    1  A    between atoms: C_2  and  N_3 
REMARK    2  A    between atoms: C_2  and  C_13 
REMARK       I    between atoms: N_3  and  C_4 
REMARK    3  A    between atoms: C_4  and  C_5 
REMARK    4  A    between atoms: C_6  and  C_7 
ROOT
HETATM    1  C   UNL     1     -40.215  50.870 -54.048  1.00  0.00     0.040 C 
HETATM    2  C   UNL     1     -40.120  52.386 -53.911  1.00  0.00     0.150 C 
ENDROOT
BRANCH   2   3
HETATM    3  N   UNL     1     -41.150  53.033 -54.707  1.00  0.00    -0.346 N 
HETATM    4  C   UNL     1     -40.975  54.302 -55.195  1.00  0.00     0.241 C 
HETATM    5  O   UNL     1     -39.943  54.950 -55.053  1.00  0.00    -0.269 OA
HETATM    6  H   UNL     1     -42.084  52.652 -54.635  1.00  0.00     0.163 HD
BRANCH   4   7
HETATM    7  C   UNL     1     -42.174  54.829 -55.890  1.00  0.00     0.075 C 
HETATM    8  C   UNL     1     -42.258  56.139 -56.176  1.00  0.00     0.017 C 
BRANCH   8   9
HETATM    9  C   UNL     1     -43.341  56.783 -56.861  1.00  0.00    -0.029 A 
HETATM   10  C   UNL     1     -44.171  57.679 -56.218  1.00  0.00     0.061 A 
HETATM   11  S   UNL     1     -45.379  58.315 -57.252  1.00  0.00    -0.113 SA
HETATM   12  C   UNL     1     -44.801  57.400 -58.573  1.00  0.00     0.050 A 
HETATM   13  C   UNL     1     -43.713  56.625 -58.232  1.00  0.00     0.019 A 
ENDBRANCH   8   9
ENDBRANCH   4   7
ENDBRANCH   2   3
BRANCH   2  14
HETATM   14  C   UNL     1     -40.280  52.833 -52.490  1.00  0.00     0.127 A 
HETATM   15  N   UNL     1     -40.159  52.113 -51.391  1.00  0.00    -0.231 NA
HETATM   16  C   UNL     1     -40.405  52.981 -50.354  1.00  0.00     0.085 A 
HETATM   17  C   UNL     1     -40.697  54.255 -50.828  1.00  0.00     0.062 A 
HETATM   18  C   UNL     1     -40.402  52.749 -48.971  1.00  0.00     0.034 A 
HETATM   19  N   UNL     1     -40.623  54.133 -52.189  1.00  0.00    -0.341 N 
HETATM   20  C   UNL     1     -40.993  55.334 -49.994  1.00  0.00     0.032 A 
HETATM   21  H   UNL     1     -40.824  54.850 -52.876  1.00  0.00     0.167 HD
HETATM   22  C   UNL     1     -40.982  55.085 -48.616  1.00  0.00     0.002 A 
HETATM   23  C   UNL     1     -40.692  53.815 -48.110  1.00  0.00     0.002 A 
ENDBRANCH   2  14
TORSDOF 4
ENDMDL
MODEL 8
REMARK VINA RESULT:      -6.4      5.785      9.392
REMARK  4 active torsions:
REMARK  status: ('A' for Active; 'I' for Inactive)
REMARK    1  A    between atoms: C_2  and  N_3 
REMARK    2  A    between atoms: C_2  and  C_13 
REMARK       I    between atoms: N_3  and  C_4 
REMARK    3  A    between atoms: C_4  and  C_5 
REMARK    4  A    between atoms: C_6  and  C_7 
ROOT
HETATM    1  C   UNL     1     -44.218  57.637 -52.848  1.00  0.00     0.040 C 
HETATM    2  C   UNL     1     -42.916  57.975 -52.129  1.00  0.00     0.150 C 
ENDROOT
BRANCH   2   3
HETATM    3  N   UNL     1     -43.160  58.919 -51.051  1.00  0.00    -0.346 N 
HETATM    4  C   UNL     1     -42.930  60.260 -51.218  1.00  0.00     0.241 C 
HETATM    5  O   UNL     1     -42.565  60.762 -52.276  1.00  0.00    -0.269 OA
HETATM    6  H   UNL     1     -43.212  58.534 -50.117  1.00  0.00     0.163 HD
BRANCH   4   7
HETATM    7  C   UNL     1     -43.135  61.044 -49.977  1.00  0.00     0.075 C 
HETATM    8  C   UNL     1     -44.364  61.138 -49.442  1.00  0.00     0.017 C 
BRANCH   8   9
HETATM    9  C   UNL     1     -44.708  61.839 -48.240  1.00  0.00    -0.029 A 
HETATM   10  C   UNL     1     -44.969  61.168 -47.062  1.00  0.00     0.061 A 
HETATM   11  S   UNL     1     -45.346  62.228 -45.771  1.00  0.00    -0.113 SA
HETATM   12  C   UNL     1     -45.160  63.598 -46.774  1.00  0.00     0.050 A 
HETATM   13  C   UNL     1     -44.820  63.253 -48.066  1.00  0.00     0.019 A 
ENDBRANCH   8   9
ENDBRANCH   4   7
ENDBRANCH   2   3
BRANCH   2  14
HETATM   14  C   UNL     1     -42.265  56.758 -51.545  1.00  0.00     0.127 A 
HETATM   15  N   UNL     1     -41.851  55.675 -52.174  1.00  0.00    -0.231 NA
HETATM   16  C   UNL     1     -41.336  54.857 -51.197  1.00  0.00     0.085 A 
HETATM   17  C   UNL     1     -41.452  55.444 -49.942  1.00  0.00     0.062 A 
HETATM   18  C   UNL     1     -40.753  53.586 -51.306  1.00  0.00     0.034 A 
HETATM   19  N   UNL     1     -42.057  56.648 -50.188  1.00  0.00    -0.341 N 
HETATM   20  C   UNL     1     -41.015  54.833 -48.766  1.00  0.00     0.032 A 
HETATM   21  H   UNL     1     -42.349  57.333 -49.502  1.00  0.00     0.167 HD
HETATM   22  C   UNL     1     -40.433  53.567 -48.895  1.00  0.00     0.002 A 
HETATM   23  C   UNL     1     -40.303  52.950 -50.143  1.00  0.00     0.002 A 
ENDBRANCH   2  14
TORSDOF 4
ENDMDL
MODEL 9
REMARK VINA RESULT:      -6.3      1.608      2.053
REMARK  4 active torsions:
REMARK  status: ('A' for Active; 'I' for Inactive)
REMARK    1  A    between atoms: C_2  and  N_3 
REMARK    2  A    between atoms: C_2  and  C_13 
REMARK       I    between atoms: N_3  and  C_4 
REMARK    3  A    between atoms: C_4  and  C_5 
REMARK    4  A    between atoms: C_6  and  C_7 
ROOT
HETATM    1  C   UNL     1     -42.873  58.530 -54.476  1.00  0.00     0.040 C 
HETATM    2  C   UNL     1     -42.104  57.642 -55.449  1.00  0.00     0.150 C 
ENDROOT
BRANCH   2   3
HETATM    3  N   UNL     1     -41.718  56.398 -54.805  1.00  0.00    -0.346 N 
HETATM    4  C   UNL     1     -42.641  55.621 -54.153  1.00  0.00     0.241 C 
HETATM    5  O   UNL     1     -43.839  55.877 -54.112  1.00  0.00    -0.269 OA
HETATM    6  H   UNL     1     -40.734  56.281 -54.600  1.00  0.00     0.163 HD
BRANCH   4   7
HETATM    7  C   UNL     1     -42.038  54.450 -53.473  1.00  0.00     0.075 C 
HETATM    8  C   UNL     1     -41.261  53.601 -54.166  1.00  0.00     0.017 C 
BRANCH   8   9
HETATM    9  C   UNL     1     -40.597  52.446 -53.638  1.00  0.00    -0.029 A 
HETATM   10  C   UNL     1     -40.449  51.293 -54.385  1.00  0.00     0.061 A 
HETATM   11  S   UNL     1     -39.616  50.062 -53.535  1.00  0.00    -0.113 SA
HETATM   12  C   UNL     1     -39.440  51.060 -52.159  1.00  0.00     0.050 A 
HETATM   13  C   UNL     1     -40.006  52.304 -52.344  1.00  0.00     0.019 A 
ENDBRANCH   8   9
ENDBRANCH   4   7
ENDBRANCH   2   3
BRANCH   2  14
HETATM   14  C   UNL     1     -42.915  57.306 -56.664  1.00  0.00     0.127 A 
HETATM   15  N   UNL     1     -44.090  57.792 -57.018  1.00  0.00    -0.231 NA
HETATM   16  C   UNL     1     -44.405  57.163 -58.199  1.00  0.00     0.085 A 
HETATM   17  C   UNL     1     -43.411  56.263 -58.567  1.00  0.00     0.062 A 
HETATM   18  C   UNL     1     -45.535  57.308 -59.018  1.00  0.00     0.034 A 
HETATM   19  N   UNL     1     -42.480  56.364 -57.568  1.00  0.00    -0.341 N 
HETATM   20  C   UNL     1     -43.473  55.482 -59.722  1.00  0.00     0.032 A 
HETATM   21  H   UNL     1     -41.632  55.818 -57.470  1.00  0.00     0.167 HD
HETATM   22  C   UNL     1     -44.606  55.642 -60.528  1.00  0.00     0.002 A 
HETATM   23  C   UNL     1     -45.622  56.539 -60.185  1.00  0.00     0.002 A 
ENDBRANCH   2  14
TORSDOF 4
ENDMDL
MODEL 10
REMARK VINA RESULT:      -6.1     14.375     15.690
REMARK  4 active torsions:
REMARK  status: ('A' for Active; 'I' for Inactive)
REMARK    1  A    between atoms: C_2  and  N_3 
REMARK    2  A    between atoms: C_2  and  C_13 
REMARK       I    between atoms: N_3  and  C_4 
REMARK    3  A    between atoms: C_4  and  C_5 
REMARK    4  A    between atoms: C_6  and  C_7 
ROOT
HETATM    1  C   UNL     1     -39.889  41.138 -53.284  1.00  0.00     0.040 C 
HETATM    2  C   UNL     1     -38.495  41.595 -53.702  1.00  0.00     0.150 C 
ENDROOT
BRANCH   2   3
HETATM    3  N   UNL     1     -37.478  40.867 -52.961  1.00  0.00    -0.346 N 
HETATM    4  C   UNL     1     -36.273  41.446 -52.657  1.00  0.00     0.241 C 
HETATM    5  O   UNL     1     -35.987  42.607 -52.928  1.00  0.00    -0.269 OA
HETATM    6  H   UNL     1     -37.566  39.860 -52.942  1.00  0.00     0.163 HD
BRANCH   4   7
HETATM    7  C   UNL     1     -35.331  40.513 -51.992  1.00  0.00     0.075 C 
HETATM    8  C   UNL     1     -34.741  40.870 -50.839  1.00  0.00     0.017 C 
BRANCH   8   9
HETATM    9  C   UNL     1     -33.831  40.066 -50.076  1.00  0.00    -0.029 A 
HETATM   10  C   UNL     1     -34.227  38.874 -49.502  1.00  0.00     0.061 A 
HETATM   11  S   UNL     1     -32.958  38.101 -48.652  1.00  0.00    -0.113 SA
HETATM   12  C   UNL     1     -31.863  39.351 -49.046  1.00  0.00     0.050 A 
HETATM   13  C   UNL     1     -32.454  40.338 -49.808  1.00  0.00     0.019 A 
ENDBRANCH   8   9
ENDBRANCH   4   7
ENDBRANCH   2   3
BRANCH   2  14
HETATM   14  C   UNL     1     -38.248  41.381 -55.164  1.00  0.00     0.127 A 
HETATM   15  N   UNL     1     -38.621  40.361 -55.912  1.00  0.00    -0.231 NA
HETATM   16  C   UNL     1     -38.148  40.637 -57.173  1.00  0.00     0.085 A 
HETATM   17  C   UNL     1     -37.459  41.844 -57.194  1.00  0.00     0.062 A 
HETATM   18  C   UNL     1     -38.266  39.896 -58.357  1.00  0.00     0.034 A 
HETATM   19  N   UNL     1     -37.526  42.292 -55.902  1.00  0.00    -0.341 N 
HETATM   20  C   UNL     1     -36.866  42.370 -58.343  1.00  0.00     0.032 A 
HETATM   21  H   UNL     1     -37.090  43.125 -55.523  1.00  0.00     0.167 HD
HETATM   22  C   UNL     1     -36.997  41.617 -59.516  1.00  0.00     0.002 A 
HETATM   23  C   UNL     1     -37.684  40.400 -59.528  1.00  0.00     0.002 A 
ENDBRANCH   2  14
TORSDOF 4
ENDMDL
