MODEL 1
REMARK VINA RESULT:      -7.8      0.000      0.000
REMARK  5 active torsions:
REMARK  status: ('A' for Active; 'I' for Inactive)
REMARK    1  A    between atoms: C_5  and  C_6 
REMARK    2  A    between atoms: C_9  and  O_10 
REMARK    3  A    between atoms: O_10  and  C_11 
REMARK    4  A    between atoms: C_11  and  C_12 
REMARK       I    between atoms: C_12  and  N_13 
REMARK    5  A    between atoms: N_13  and  C_14 
ROOT
HETATM    1  C   UNL     1     -42.137  56.847 -50.667  1.00  0.00     0.278 C 
ENDROOT
BRANCH   1   2
HETATM    2  O   UNL     1     -43.031  57.645 -51.439  1.00  0.00    -0.342 OA
BRANCH   2   3
HETATM    3  C   UNL     1     -42.867  57.587 -52.798  1.00  0.00     0.069 A 
HETATM    4  C   UNL     1     -41.813  58.149 -53.519  1.00  0.00     0.038 A 
HETATM    5  C   UNL     1     -41.760  58.020 -54.912  1.00  0.00     0.018 A 
HETATM    6  C   UNL     1     -42.758  57.325 -55.609  1.00  0.00     0.015 A 
HETATM    7  C   UNL     1     -43.812  56.760 -54.879  1.00  0.00     0.018 A 
HETATM    8  C   UNL     1     -43.863  56.891 -53.486  1.00  0.00     0.038 A 
BRANCH   6   9
HETATM    9  C   UNL     1     -42.687  57.198 -57.059  1.00  0.00     0.198 A 
HETATM   10  N   UNL     1     -43.160  56.093 -57.734  1.00  0.00    -0.136 NA
HETATM   11  N   UNL     1     -42.947  56.305 -59.023  1.00  0.00     0.024 NA
HETATM   12  N   UNL     1     -42.361  57.509 -59.073  1.00  0.00    -0.196 N 
HETATM   13  C   UNL     1     -41.982  58.120 -60.318  1.00  0.00     0.200 C 
HETATM   14  N   UNL     1     -42.169  58.121 -57.891  1.00  0.00    -0.137 NA
ENDBRANCH   6   9
ENDBRANCH   2   3
ENDBRANCH   1   2
BRANCH   1  15
HETATM   15  C   UNL     1     -42.103  55.382 -51.112  1.00  0.00     0.246 C 
HETATM   16  N   UNL     1     -40.992  55.066 -51.871  1.00  0.00    -0.325 N 
HETATM   17  H   UNL     1     -40.360  55.840 -52.050  1.00  0.00     0.169 HD
HETATM   18  O   UNL     1     -43.001  54.617 -50.769  1.00  0.00    -0.271 OA
BRANCH  16  19
HETATM   19  C   UNL     1     -40.647  53.813 -52.420  1.00  0.00     0.036 A 
HETATM   20  C   UNL     1     -40.251  52.718 -51.643  1.00  0.00     0.059 A 
HETATM   21  C   UNL     1     -39.931  51.520 -52.300  1.00  0.00     0.044 A 
HETATM   22  C   UNL     1     -39.989  51.378 -53.684  1.00  0.00    -0.008 A 
HETATM   23  N   UNL     1     -39.521  50.311 -51.783  1.00  0.00    -0.365 N 
HETATM   24  C   UNL     1     -40.386  52.484 -54.456  1.00  0.00     0.016 A 
HETATM   25  C   UNL     1     -39.599  50.044 -53.985  1.00  0.00     0.030 A 
HETATM   26  C   UNL     1     -40.712  53.689 -53.812  1.00  0.00     0.030 A 
HETATM   27  C   UNL     1     -39.318  49.410 -52.796  1.00  0.00     0.089 A 
HETATM   28  H   UNL     1     -39.392  50.125 -50.798  1.00  0.00     0.165 HD
ENDBRANCH  16  19
ENDBRANCH   1  15
TORSDOF 5
ENDMDL
MODEL 2
REMARK VINA RESULT:      -7.8      2.115      2.671
REMARK  5 active torsions:
REMARK  status: ('A' for Active; 'I' for Inactive)
REMARK    1  A    between atoms: C_5  and  C_6 
REMARK    2  A    between atoms: C_9  and  O_10 
REMARK    3  A    between atoms: O_10  and  C_11 
REMARK    4  A    between atoms: C_11  and  C_12 
REMARK       I    between atoms: C_12  and  N_13 
REMARK    5  A    between atoms: N_13  and  C_14 
ROOT
HETATM    1  C   UNL     1     -42.287  57.254 -53.214  1.00  0.00     0.278 C 
ENDROOT
BRANCH   1   2
HETATM    2  O   UNL     1     -41.728  57.661 -54.460  1.00  0.00    -0.342 OA
BRANCH   2   3
HETATM    3  C   UNL     1     -42.512  57.458 -55.566  1.00  0.00     0.069 A 
HETATM    4  C   UNL     1     -43.554  58.284 -55.991  1.00  0.00     0.038 A 
HETATM    5  C   UNL     1     -44.283  57.965 -57.143  1.00  0.00     0.018 A 
HETATM    6  C   UNL     1     -43.983  56.818 -57.891  1.00  0.00     0.015 A 
HETATM    7  C   UNL     1     -42.934  55.996 -57.460  1.00  0.00     0.018 A 
HETATM    8  C   UNL     1     -42.206  56.316 -56.308  1.00  0.00     0.038 A 
BRANCH   6   9
HETATM    9  C   UNL     1     -44.751  56.502 -59.089  1.00  0.00     0.198 A 
HETATM   10  N   UNL     1     -44.260  55.701 -60.097  1.00  0.00    -0.136 NA
HETATM   11  N   UNL     1     -45.206  55.616 -61.021  1.00  0.00     0.024 NA
HETATM   12  N   UNL     1     -46.212  56.360 -60.539  1.00  0.00    -0.196 N 
HETATM   13  C   UNL     1     -47.454  56.509 -61.247  1.00  0.00     0.200 C 
HETATM   14  N   UNL     1     -45.998  56.939 -59.345  1.00  0.00    -0.137 NA
ENDBRANCH   6   9
ENDBRANCH   2   3
ENDBRANCH   1   2
BRANCH   1  15
HETATM   15  C   UNL     1     -42.264  55.737 -53.012  1.00  0.00     0.246 C 
HETATM   16  N   UNL     1     -41.014  55.177 -53.205  1.00  0.00    -0.325 N 
HETATM   17  H   UNL     1     -40.286  55.833 -53.471  1.00  0.00     0.169 HD
HETATM   18  O   UNL     1     -43.292  55.146 -52.690  1.00  0.00    -0.271 OA
BRANCH  16  19
HETATM   19  C   UNL     1     -40.645  53.821 -53.082  1.00  0.00     0.036 A 
HETATM   20  C   UNL     1     -40.401  53.201 -51.850  1.00  0.00     0.059 A 
HETATM   21  C   UNL     1     -40.039  51.846 -51.850  1.00  0.00     0.044 A 
HETATM   22  C   UNL     1     -39.913  51.097 -53.018  1.00  0.00    -0.008 A 
HETATM   23  N   UNL     1     -39.749  51.008 -50.795  1.00  0.00    -0.365 N 
HETATM   24  C   UNL     1     -40.160  51.729 -54.250  1.00  0.00     0.016 A 
HETATM   25  C   UNL     1     -39.536  49.781 -52.632  1.00  0.00     0.030 A 
HETATM   26  C   UNL     1     -40.524  53.084 -54.265  1.00  0.00     0.030 A 
HETATM   27  C   UNL     1     -39.444  49.755 -51.259  1.00  0.00     0.089 A 
HETATM   28  H   UNL     1     -39.763  51.287 -49.824  1.00  0.00     0.165 HD
ENDBRANCH  16  19
ENDBRANCH   1  15
TORSDOF 5
ENDMDL
MODEL 3
REMARK VINA RESULT:      -7.8      4.200      5.446
REMARK  5 active torsions:
REMARK  status: ('A' for Active; 'I' for Inactive)
REMARK    1  A    between atoms: C_5  and  C_6 
REMARK    2  A    between atoms: C_9  and  O_10 
REMARK    3  A    between atoms: O_10  and  C_11 
REMARK    4  A    between atoms: C_11  and  C_12 
REMARK       I    between atoms: C_12  and  N_13 
REMARK    5  A    between atoms: N_13  and  C_14 
ROOT
HETATM    1  C   UNL     1     -42.766  56.645 -57.195  1.00  0.00     0.278 C 
ENDROOT
BRANCH   1   2
HETATM    2  O   UNL     1     -42.956  55.782 -58.314  1.00  0.00    -0.342 OA
BRANCH   2   3
HETATM    3  C   UNL     1     -44.068  56.024 -59.078  1.00  0.00     0.069 A 
HETATM    4  C   UNL     1     -44.680  55.114 -59.941  1.00  0.00     0.038 A 
HETATM    5  C   UNL     1     -45.817  55.486 -60.670  1.00  0.00     0.018 A 
HETATM    6  C   UNL     1     -46.363  56.771 -60.548  1.00  0.00     0.015 A 
HETATM    7  C   UNL     1     -45.745  57.678 -59.677  1.00  0.00     0.018 A 
HETATM    8  C   UNL     1     -44.608  57.305 -58.949  1.00  0.00     0.038 A 
BRANCH   6   9
HETATM    9  C   UNL     1     -47.547  57.141 -61.313  1.00  0.00     0.198 A 
HETATM   10  N   UNL     1     -48.280  56.226 -62.038  1.00  0.00    -0.136 NA
HETATM   11  N   UNL     1     -49.280  56.888 -62.599  1.00  0.00     0.024 NA
HETATM   12  N   UNL     1     -49.110  58.156 -62.198  1.00  0.00    -0.196 N 
HETATM   13  C   UNL     1     -50.018  59.203 -62.581  1.00  0.00     0.200 C 
HETATM   14  N   UNL     1     -48.055  58.384 -61.397  1.00  0.00    -0.137 NA
ENDBRANCH   6   9
ENDBRANCH   2   3
ENDBRANCH   1   2
BRANCH   1  15
HETATM   15  C   UNL     1     -42.680  55.892 -55.865  1.00  0.00     0.246 C 
HETATM   16  N   UNL     1     -41.485  55.218 -55.693  1.00  0.00    -0.325 N 
HETATM   17  H   UNL     1     -40.834  55.293 -56.469  1.00  0.00     0.169 HD
HETATM   18  O   UNL     1     -43.614  55.945 -55.069  1.00  0.00    -0.271 OA
BRANCH  16  19
HETATM   19  C   UNL     1     -41.077  54.449 -54.583  1.00  0.00     0.036 A 
HETATM   20  C   UNL     1     -40.563  53.151 -54.696  1.00  0.00     0.059 A 
HETATM   21  C   UNL     1     -40.189  52.482 -53.521  1.00  0.00     0.044 A 
HETATM   22  C   UNL     1     -40.309  53.051 -52.256  1.00  0.00    -0.008 A 
HETATM   23  N   UNL     1     -39.663  51.220 -53.352  1.00  0.00    -0.365 N 
HETATM   24  C   UNL     1     -40.828  54.354 -52.152  1.00  0.00     0.016 A 
HETATM   25  C   UNL     1     -39.840  52.090 -51.318  1.00  0.00     0.030 A 
HETATM   26  C   UNL     1     -41.204  55.038 -53.320  1.00  0.00     0.030 A 
HETATM   27  C   UNL     1     -39.448  50.974 -52.021  1.00  0.00     0.089 A 
HETATM   28  H   UNL     1     -39.468  50.577 -54.106  1.00  0.00     0.165 HD
ENDBRANCH  16  19
ENDBRANCH   1  15
TORSDOF 5
ENDMDL
MODEL 4
REMARK VINA RESULT:      -7.7      1.154      1.864
REMARK  5 active torsions:
REMARK  status: ('A' for Active; 'I' for Inactive)
REMARK    1  A    between atoms: C_5  and  C_6 
REMARK    2  A    between atoms: C_9  and  O_10 
REMARK    3  A    between atoms: O_10  and  C_11 
REMARK    4  A    between atoms: C_11  and  C_12 
REMARK       I    between atoms: C_12  and  N_13 
REMARK    5  A    between atoms: N_13  and  C_14 
ROOT
HETATM    1  C   UNL     1     -41.984  57.007 -50.852  1.00  0.00     0.278 C 
ENDROOT
BRANCH   1   2
HETATM    2  O   UNL     1     -43.037  57.799 -51.394  1.00  0.00    -0.342 OA
BRANCH   2   3
HETATM    3  C   UNL     1     -42.903  58.158 -52.710  1.00  0.00     0.069 A 
HETATM    4  C   UNL     1     -43.809  57.873 -53.732  1.00  0.00     0.038 A 
HETATM    5  C   UNL     1     -43.555  58.298 -55.042  1.00  0.00     0.018 A 
HETATM    6  C   UNL     1     -42.394  59.017 -55.353  1.00  0.00     0.015 A 
HETATM    7  C   UNL     1     -41.490  59.304 -54.322  1.00  0.00     0.018 A 
HETATM    8  C   UNL     1     -41.745  58.878 -53.013  1.00  0.00     0.038 A 
BRANCH   6   9
HETATM    9  C   UNL     1     -42.146  59.454 -56.721  1.00  0.00     0.198 A 
HETATM   10  N   UNL     1     -41.496  60.632 -57.020  1.00  0.00    -0.136 NA
HETATM   11  N   UNL     1     -41.435  60.717 -58.341  1.00  0.00     0.024 NA
HETATM   12  N   UNL     1     -42.043  59.605 -58.777  1.00  0.00    -0.196 N 
HETATM   13  C   UNL     1     -42.167  59.305 -60.177  1.00  0.00     0.200 C 
HETATM   14  N   UNL     1     -42.508  58.775 -57.826  1.00  0.00    -0.137 NA
ENDBRANCH   6   9
ENDBRANCH   2   3
ENDBRANCH   1   2
BRANCH   1  15
HETATM   15  C   UNL     1     -42.026  55.550 -51.320  1.00  0.00     0.246 C 
HETATM   16  N   UNL     1     -40.877  55.152 -51.979  1.00  0.00    -0.325 N 
HETATM   17  H   UNL     1     -40.171  55.874 -52.083  1.00  0.00     0.169 HD
HETATM   18  O   UNL     1     -43.011  54.857 -51.078  1.00  0.00    -0.271 OA
BRANCH  16  19
HETATM   19  C   UNL     1     -40.584  53.882 -52.517  1.00  0.00     0.036 A 
HETATM   20  C   UNL     1     -40.210  52.783 -51.734  1.00  0.00     0.059 A 
HETATM   21  C   UNL     1     -39.942  51.568 -52.380  1.00  0.00     0.044 A 
HETATM   22  C   UNL     1     -40.031  51.411 -53.761  1.00  0.00    -0.008 A 
HETATM   23  N   UNL     1     -39.563  50.352 -51.855  1.00  0.00    -0.365 N 
HETATM   24  C   UNL     1     -40.406  52.519 -54.540  1.00  0.00     0.016 A 
HETATM   25  C   UNL     1     -39.691  50.060 -54.052  1.00  0.00     0.030 A 
HETATM   26  C   UNL     1     -40.680  53.742 -53.907  1.00  0.00     0.030 A 
HETATM   27  C   UNL     1     -39.409  49.432 -52.860  1.00  0.00     0.089 A 
HETATM   28  H   UNL     1     -39.421  50.174 -50.871  1.00  0.00     0.165 HD
ENDBRANCH  16  19
ENDBRANCH   1  15
TORSDOF 5
ENDMDL
MODEL 5
REMARK VINA RESULT:      -7.5     15.068     16.656
REMARK  5 active torsions:
REMARK  status: ('A' for Active; 'I' for Inactive)
REMARK    1  A    between atoms: C_5  and  C_6 
REMARK    2  A    between atoms: C_9  and  O_10 
REMARK    3  A    between atoms: O_10  and  C_11 
REMARK    4  A    between atoms: C_11  and  C_12 
REMARK       I    between atoms: C_12  and  N_13 
REMARK    5  A    between atoms: N_13  and  C_14 
ROOT
HETATM    1  C   UNL     1     -35.478  42.409 -55.313  1.00  0.00     0.278 C 
ENDROOT
BRANCH   1   2
HETATM    2  O   UNL     1     -36.816  42.540 -55.784  1.00  0.00    -0.342 OA
BRANCH   2   3
HETATM    3  C   UNL     1     -37.143  41.790 -56.884  1.00  0.00     0.069 A 
HETATM    4  C   UNL     1     -36.923  42.151 -58.214  1.00  0.00     0.038 A 
HETATM    5  C   UNL     1     -37.304  41.292 -59.252  1.00  0.00     0.018 A 
HETATM    6  C   UNL     1     -37.911  40.058 -58.980  1.00  0.00     0.015 A 
HETATM    7  C   UNL     1     -38.126  39.701 -57.643  1.00  0.00     0.018 A 
HETATM    8  C   UNL     1     -37.744  40.561 -56.606  1.00  0.00     0.038 A 
BRANCH   6   9
HETATM    9  C   UNL     1     -38.300  39.176 -60.073  1.00  0.00     0.198 A 
HETATM   10  N   UNL     1     -39.372  38.313 -59.986  1.00  0.00    -0.136 NA
HETATM   11  N   UNL     1     -39.447  37.672 -61.143  1.00  0.00     0.024 NA
HETATM   12  N   UNL     1     -38.433  38.165 -61.867  1.00  0.00    -0.196 N 
HETATM   13  C   UNL     1     -38.182  37.735 -63.215  1.00  0.00     0.200 C 
HETATM   14  N   UNL     1     -37.680  39.103 -61.265  1.00  0.00    -0.137 NA
ENDBRANCH   6   9
ENDBRANCH   2   3
ENDBRANCH   1   2
BRANCH   1  15
HETATM   15  C   UNL     1     -35.397  42.049 -53.827  1.00  0.00     0.246 C 
HETATM   16  N   UNL     1     -34.468  41.062 -53.551  1.00  0.00    -0.325 N 
HETATM   17  H   UNL     1     -33.979  40.695 -54.362  1.00  0.00     0.169 HD
HETATM   18  O   UNL     1     -36.105  42.638 -53.014  1.00  0.00    -0.271 OA
BRANCH  16  19
HETATM   19  C   UNL     1     -34.133  40.515 -52.296  1.00  0.00     0.036 A 
HETATM   20  C   UNL     1     -32.861  40.634 -51.721  1.00  0.00     0.059 A 
HETATM   21  C   UNL     1     -32.643  40.048 -50.465  1.00  0.00     0.044 A 
HETATM   22  C   UNL     1     -33.634  39.357 -49.772  1.00  0.00    -0.008 A 
HETATM   23  N   UNL     1     -31.506  40.018 -49.689  1.00  0.00    -0.365 N 
HETATM   24  C   UNL     1     -34.908  39.242 -50.357  1.00  0.00     0.016 A 
HETATM   25  C   UNL     1     -33.056  38.908 -48.552  1.00  0.00     0.030 A 
HETATM   26  C   UNL     1     -35.141  39.825 -51.613  1.00  0.00     0.030 A 
HETATM   27  C   UNL     1     -31.746  39.330 -48.528  1.00  0.00     0.089 A 
HETATM   28  H   UNL     1     -30.627  40.445 -49.947  1.00  0.00     0.165 HD
ENDBRANCH  16  19
ENDBRANCH   1  15
TORSDOF 5
ENDMDL
MODEL 6
REMARK VINA RESULT:      -7.5     14.473     18.043
REMARK  5 active torsions:
REMARK  status: ('A' for Active; 'I' for Inactive)
REMARK    1  A    between atoms: C_5  and  C_6 
REMARK    2  A    between atoms: C_9  and  O_10 
REMARK    3  A    between atoms: O_10  and  C_11 
REMARK    4  A    between atoms: C_11  and  C_12 
REMARK       I    between atoms: C_12  and  N_13 
REMARK    5  A    between atoms: N_13  and  C_14 
ROOT
HETATM    1  C   UNL     1     -36.147  42.358 -53.851  1.00  0.00     0.278 C 
ENDROOT
BRANCH   1   2
HETATM    2  O   UNL     1     -36.698  41.572 -52.797  1.00  0.00    -0.342 OA
BRANCH   2   3
HETATM    3  C   UNL     1     -35.797  41.017 -51.926  1.00  0.00     0.069 A 
HETATM    4  C   UNL     1     -35.965  39.819 -51.230  1.00  0.00     0.038 A 
HETATM    5  C   UNL     1     -34.965  39.358 -50.366  1.00  0.00     0.018 A 
HETATM    6  C   UNL     1     -33.779  40.083 -50.183  1.00  0.00     0.015 A 
HETATM    7  C   UNL     1     -33.616  41.282 -50.887  1.00  0.00     0.018 A 
HETATM    8  C   UNL     1     -34.617  41.743 -51.752  1.00  0.00     0.038 A 
BRANCH   6   9
HETATM    9  C   UNL     1     -32.748  39.587 -49.280  1.00  0.00     0.198 A 
HETATM   10  N   UNL     1     -31.423  39.952 -49.392  1.00  0.00    -0.136 NA
HETATM   11  N   UNL     1     -30.767  39.332 -48.423  1.00  0.00     0.024 NA
HETATM   12  N   UNL     1     -31.708  38.628 -47.778  1.00  0.00    -0.196 N 
HETATM   13  C   UNL     1     -31.400  37.822 -46.628  1.00  0.00     0.200 C 
HETATM   14  N   UNL     1     -32.959  38.740 -48.256  1.00  0.00    -0.137 NA
ENDBRANCH   6   9
ENDBRANCH   2   3
ENDBRANCH   1   2
BRANCH   1  15
HETATM   15  C   UNL     1     -36.022  41.590 -55.170  1.00  0.00     0.246 C 
HETATM   16  N   UNL     1     -37.093  41.787 -56.022  1.00  0.00    -0.325 N 
HETATM   17  H   UNL     1     -37.823  42.393 -55.661  1.00  0.00     0.169 HD
HETATM   18  O   UNL     1     -35.028  40.902 -55.386  1.00  0.00    -0.271 OA
BRANCH  16  19
HETATM   19  C   UNL     1     -37.283  41.248 -57.311  1.00  0.00     0.036 A 
HETATM   20  C   UNL     1     -37.788  39.962 -57.539  1.00  0.00     0.059 A 
HETATM   21  C   UNL     1     -37.935  39.531 -58.866  1.00  0.00     0.044 A 
HETATM   22  C   UNL     1     -37.599  40.326 -59.959  1.00  0.00    -0.008 A 
HETATM   23  N   UNL     1     -38.402  38.334 -59.361  1.00  0.00    -0.365 N 
HETATM   24  C   UNL     1     -37.092  41.616 -59.721  1.00  0.00     0.016 A 
HETATM   25  C   UNL     1     -37.877  39.567 -61.130  1.00  0.00     0.030 A 
HETATM   26  C   UNL     1     -36.941  42.061 -58.398  1.00  0.00     0.030 A 
HETATM   27  C   UNL     1     -38.371  38.346 -60.731  1.00  0.00     0.089 A 
HETATM   28  H   UNL     1     -38.719  37.564 -58.788  1.00  0.00     0.165 HD
ENDBRANCH  16  19
ENDBRANCH   1  15
TORSDOF 5
ENDMDL
MODEL 7
REMARK VINA RESULT:      -7.4      3.466      5.362
REMARK  5 active torsions:
REMARK  status: ('A' for Active; 'I' for Inactive)
REMARK    1  A    between atoms: C_5  and  C_6 
REMARK    2  A    between atoms: C_9  and  O_10 
REMARK    3  A    between atoms: O_10  and  C_11 
REMARK    4  A    between atoms: C_11  and  C_12 
REMARK       I    between atoms: C_12  and  N_13 
REMARK    5  A    between atoms: N_13  and  C_14 
ROOT
HETATM    1  C   UNL     1     -42.630  56.479 -56.822  1.00  0.00     0.278 C 
ENDROOT
BRANCH   1   2
HETATM    2  O   UNL     1     -42.275  57.744 -56.270  1.00  0.00    -0.342 OA
BRANCH   2   3
HETATM    3  C   UNL     1     -42.982  58.136 -55.163  1.00  0.00     0.069 A 
HETATM    4  C   UNL     1     -44.337  58.469 -55.134  1.00  0.00     0.038 A 
HETATM    5  C   UNL     1     -44.944  58.856 -53.933  1.00  0.00     0.018 A 
HETATM    6  C   UNL     1     -44.210  58.917 -52.741  1.00  0.00     0.015 A 
HETATM    7  C   UNL     1     -42.851  58.579 -52.777  1.00  0.00     0.018 A 
HETATM    8  C   UNL     1     -42.245  58.191 -53.978  1.00  0.00     0.038 A 
BRANCH   6   9
HETATM    9  C   UNL     1     -44.858  59.321 -51.500  1.00  0.00     0.198 A 
HETATM   10  N   UNL     1     -45.599  58.451 -50.730  1.00  0.00    -0.136 NA
HETATM   11  N   UNL     1     -46.035  59.134 -49.683  1.00  0.00     0.024 NA
HETATM   12  N   UNL     1     -45.549  60.370 -49.863  1.00  0.00    -0.196 N 
HETATM   13  C   UNL     1     -45.784  61.426 -48.915  1.00  0.00     0.200 C 
HETATM   14  N   UNL     1     -44.809  60.557 -50.969  1.00  0.00    -0.137 NA
ENDBRANCH   6   9
ENDBRANCH   2   3
ENDBRANCH   1   2
BRANCH   1  15
HETATM   15  C   UNL     1     -42.565  55.339 -55.802  1.00  0.00     0.246 C 
HETATM   16  N   UNL     1     -41.296  55.127 -55.296  1.00  0.00    -0.325 N 
HETATM   17  H   UNL     1     -40.576  55.735 -55.676  1.00  0.00     0.169 HD
HETATM   18  O   UNL     1     -43.588  54.731 -55.497  1.00  0.00    -0.271 OA
BRANCH  16  19
HETATM   19  C   UNL     1     -40.895  54.178 -54.335  1.00  0.00     0.036 A 
HETATM   20  C   UNL     1     -41.163  54.310 -52.966  1.00  0.00     0.059 A 
HETATM   21  C   UNL     1     -40.714  53.300 -52.102  1.00  0.00     0.044 A 
HETATM   22  C   UNL     1     -40.017  52.180 -52.546  1.00  0.00    -0.008 A 
HETATM   23  N   UNL     1     -40.844  53.185 -50.735  1.00  0.00    -0.365 N 
HETATM   24  C   UNL     1     -39.751  52.056 -53.921  1.00  0.00     0.016 A 
HETATM   25  C   UNL     1     -39.728  51.386 -51.402  1.00  0.00     0.030 A 
HETATM   26  C   UNL     1     -40.196  53.058 -54.799  1.00  0.00     0.030 A 
HETATM   27  C   UNL     1     -40.250  52.028 -50.302  1.00  0.00     0.089 A 
HETATM   28  H   UNL     1     -41.311  53.860 -50.147  1.00  0.00     0.165 HD
ENDBRANCH  16  19
ENDBRANCH   1  15
TORSDOF 5
ENDMDL
MODEL 8
REMARK VINA RESULT:      -7.4      2.372      3.227
REMARK  5 active torsions:
REMARK  status: ('A' for Active; 'I' for Inactive)
REMARK    1  A    between atoms: C_5  and  C_6 
REMARK    2  A    between atoms: C_9  and  O_10 
REMARK    3  A    between atoms: O_10  and  C_11 
REMARK    4  A    between atoms: C_11  and  C_12 
REMARK       I    between atoms: C_12  and  N_13 
REMARK    5  A    between atoms: N_13  and  C_14 
ROOT
HETATM    1  C   UNL     1     -41.930  59.714 -53.138  1.00  0.00     0.278 C 
ENDROOT
BRANCH   1   2
HETATM    2  O   UNL     1     -42.191  60.369 -54.377  1.00  0.00    -0.342 OA
BRANCH   2   3
HETATM    3  C   UNL     1     -42.902  59.648 -55.300  1.00  0.00     0.069 A 
HETATM    4  C   UNL     1     -44.209  59.184 -55.145  1.00  0.00     0.038 A 
HETATM    5  C   UNL     1     -44.827  58.455 -56.168  1.00  0.00     0.018 A 
HETATM    6  C   UNL     1     -44.151  58.177 -57.364  1.00  0.00     0.015 A 
HETATM    7  C   UNL     1     -42.840  58.648 -57.514  1.00  0.00     0.018 A 
HETATM    8  C   UNL     1     -42.223  59.377 -56.490  1.00  0.00     0.038 A 
BRANCH   6   9
HETATM    9  C   UNL     1     -44.810  57.417 -58.419  1.00  0.00     0.198 A 
HETATM   10  N   UNL     1     -46.143  57.577 -58.729  1.00  0.00    -0.136 NA
HETATM   11  N   UNL     1     -46.411  56.748 -59.727  1.00  0.00     0.024 NA
HETATM   12  N   UNL     1     -45.247  56.130 -59.972  1.00  0.00    -0.196 N 
HETATM   13  C   UNL     1     -45.109  55.153 -61.016  1.00  0.00     0.200 C 
HETATM   14  N   UNL     1     -44.210  56.498 -59.198  1.00  0.00    -0.137 NA
ENDBRANCH   6   9
ENDBRANCH   2   3
ENDBRANCH   1   2
BRANCH   1  15
HETATM   15  C   UNL     1     -41.054  58.468 -53.290  1.00  0.00     0.246 C 
HETATM   16  N   UNL     1     -41.779  57.292 -53.352  1.00  0.00    -0.325 N 
HETATM   17  H   UNL     1     -42.785  57.404 -53.270  1.00  0.00     0.169 HD
HETATM   18  O   UNL     1     -39.833  58.583 -53.366  1.00  0.00    -0.271 OA
BRANCH  16  19
HETATM   19  C   UNL     1     -41.288  55.980 -53.508  1.00  0.00     0.036 A 
HETATM   20  C   UNL     1     -41.077  55.106 -52.434  1.00  0.00     0.059 A 
HETATM   21  C   UNL     1     -40.584  53.822 -52.711  1.00  0.00     0.044 A 
HETATM   22  C   UNL     1     -40.297  53.384 -54.002  1.00  0.00    -0.008 A 
HETATM   23  N   UNL     1     -40.293  52.783 -51.854  1.00  0.00    -0.365 N 
HETATM   24  C   UNL     1     -40.511  54.269 -55.074  1.00  0.00     0.016 A 
HETATM   25  C   UNL     1     -39.822  52.048 -53.895  1.00  0.00     0.030 A 
HETATM   26  C   UNL     1     -41.006  55.557 -54.812  1.00  0.00     0.030 A 
HETATM   27  C   UNL     1     -39.832  51.704 -52.562  1.00  0.00     0.089 A 
HETATM   28  H   UNL     1     -40.408  52.821 -50.851  1.00  0.00     0.165 HD
ENDBRANCH  16  19
ENDBRANCH   1  15
TORSDOF 5
ENDMDL
MODEL 9
REMARK VINA RESULT:      -7.4      2.946      4.238
REMARK  5 active torsions:
REMARK  status: ('A' for Active; 'I' for Inactive)
REMARK    1  A    between atoms: C_5  and  C_6 
REMARK    2  A    between atoms: C_9  and  O_10 
REMARK    3  A    between atoms: O_10  and  C_11 
REMARK    4  A    between atoms: C_11  and  C_12 
REMARK       I    between atoms: C_12  and  N_13 
REMARK    5  A    between atoms: N_13  and  C_14 
ROOT
HETATM    1  C   UNL     1     -41.879  59.964 -54.351  1.00  0.00     0.278 C 
ENDROOT
BRANCH   1   2
HETATM    2  O   UNL     1     -41.577  59.916 -55.743  1.00  0.00    -0.342 OA
BRANCH   2   3
HETATM    3  C   UNL     1     -42.471  59.236 -56.529  1.00  0.00     0.069 A 
HETATM    4  C   UNL     1     -43.802  58.966 -56.208  1.00  0.00     0.038 A 
HETATM    5  C   UNL     1     -44.616  58.259 -57.101  1.00  0.00     0.018 A 
HETATM    6  C   UNL     1     -44.116  57.811 -58.331  1.00  0.00     0.015 A 
HETATM    7  C   UNL     1     -42.780  58.088 -58.649  1.00  0.00     0.018 A 
HETATM    8  C   UNL     1     -41.967  58.795 -57.755  1.00  0.00     0.038 A 
BRANCH   6   9
HETATM    9  C   UNL     1     -44.977  57.077 -59.250  1.00  0.00     0.198 A 
HETATM   10  N   UNL     1     -44.749  55.762 -59.593  1.00  0.00    -0.136 NA
HETATM   11  N   UNL     1     -45.711  55.408 -60.432  1.00  0.00     0.024 NA
HETATM   12  N   UNL     1     -46.466  56.508 -60.560  1.00  0.00    -0.196 N 
HETATM   13  C   UNL     1     -47.645  56.530 -61.383  1.00  0.00     0.200 C 
HETATM   14  N   UNL     1     -46.069  57.581 -59.854  1.00  0.00    -0.137 NA
ENDBRANCH   6   9
ENDBRANCH   2   3
ENDBRANCH   1   2
BRANCH   1  15
HETATM   15  C   UNL     1     -41.129  58.906 -53.537  1.00  0.00     0.246 C 
HETATM   16  N   UNL     1     -41.893  57.790 -53.251  1.00  0.00    -0.325 N 
HETATM   17  H   UNL     1     -42.848  57.824 -53.597  1.00  0.00     0.169 HD
HETATM   18  O   UNL     1     -39.956  59.092 -53.225  1.00  0.00    -0.271 OA
BRANCH  16  19
HETATM   19  C   UNL     1     -41.506  56.634 -52.543  1.00  0.00     0.036 A 
HETATM   20  C   UNL     1     -41.410  56.585 -51.146  1.00  0.00     0.059 A 
HETATM   21  C   UNL     1     -41.014  55.378 -50.551  1.00  0.00     0.044 A 
HETATM   22  C   UNL     1     -40.714  54.235 -51.287  1.00  0.00    -0.008 A 
HETATM   23  N   UNL     1     -40.844  55.063 -49.220  1.00  0.00    -0.365 N 
HETATM   24  C   UNL     1     -40.811  54.294 -52.688  1.00  0.00     0.016 A 
HETATM   25  C   UNL     1     -40.355  53.221 -50.356  1.00  0.00     0.030 A 
HETATM   26  C   UNL     1     -41.208  55.494 -53.299  1.00  0.00     0.030 A 
HETATM   27  C   UNL     1     -40.445  53.759 -49.093  1.00  0.00     0.089 A 
HETATM   28  H   UNL     1     -40.995  55.708 -48.457  1.00  0.00     0.165 HD
ENDBRANCH  16  19
ENDBRANCH   1  15
TORSDOF 5
ENDMDL
MODEL 10
REMARK VINA RESULT:      -7.1      4.275      9.639
REMARK  5 active torsions:
REMARK  status: ('A' for Active; 'I' for Inactive)
REMARK    1  A    between atoms: C_5  and  C_6 
REMARK    2  A    between atoms: C_9  and  O_10 
REMARK    3  A    between atoms: O_10  and  C_11 
REMARK    4  A    between atoms: C_11  and  C_12 
REMARK       I    between atoms: C_12  and  N_13 
REMARK    5  A    between atoms: N_13  and  C_14 
ROOT
HETATM    1  C   UNL     1     -42.818  55.653 -58.025  1.00  0.00     0.278 C 
ENDROOT
BRANCH   1   2
HETATM    2  O   UNL     1     -43.294  56.039 -56.739  1.00  0.00    -0.342 OA
BRANCH   2   3
HETATM    3  C   UNL     1     -42.804  55.325 -55.677  1.00  0.00     0.069 A 
HETATM    4  C   UNL     1     -43.485  55.056 -54.488  1.00  0.00     0.038 A 
HETATM    5  C   UNL     1     -42.871  54.311 -53.475  1.00  0.00     0.018 A 
HETATM    6  C   UNL     1     -41.567  53.820 -53.630  1.00  0.00     0.015 A 
HETATM    7  C   UNL     1     -40.890  54.091 -54.826  1.00  0.00     0.018 A 
HETATM    8  C   UNL     1     -41.506  54.836 -55.840  1.00  0.00     0.038 A 
BRANCH   6   9
HETATM    9  C   UNL     1     -40.943  53.046 -52.565  1.00  0.00     0.198 A 
HETATM   10  N   UNL     1     -40.962  53.444 -51.245  1.00  0.00    -0.136 NA
HETATM   11  N   UNL     1     -40.317  52.519 -50.552  1.00  0.00     0.024 NA
HETATM   12  N   UNL     1     -39.938  51.616 -51.467  1.00  0.00    -0.196 N 
HETATM   13  C   UNL     1     -39.218  50.425 -51.108  1.00  0.00     0.200 C 
HETATM   14  N   UNL     1     -40.294  51.879 -52.737  1.00  0.00    -0.137 NA
ENDBRANCH   6   9
ENDBRANCH   2   3
ENDBRANCH   1   2
BRANCH   1  15
HETATM   15  C   UNL     1     -43.628  56.262 -59.173  1.00  0.00     0.246 C 
HETATM   16  N   UNL     1     -44.935  56.551 -58.828  1.00  0.00    -0.325 N 
HETATM   17  H   UNL     1     -45.192  56.307 -57.876  1.00  0.00     0.169 HD
HETATM   18  O   UNL     1     -43.093  56.465 -60.260  1.00  0.00    -0.271 OA
BRANCH  16  19
HETATM   19  C   UNL     1     -45.936  57.130 -59.636  1.00  0.00     0.036 A 
HETATM   20  C   UNL     1     -46.682  56.404 -60.572  1.00  0.00     0.059 A 
HETATM   21  C   UNL     1     -47.652  57.087 -61.321  1.00  0.00     0.044 A 
HETATM   22  C   UNL     1     -47.901  58.449 -61.171  1.00  0.00    -0.008 A 
HETATM   23  N   UNL     1     -48.512  56.620 -62.291  1.00  0.00    -0.365 N 
HETATM   24  C   UNL     1     -47.146  59.170 -60.229  1.00  0.00     0.016 A 
HETATM   25  C   UNL     1     -48.937  58.788 -62.085  1.00  0.00     0.030 A 
HETATM   26  C   UNL     1     -46.172  58.499 -59.472  1.00  0.00     0.030 A 
HETATM   27  C   UNL     1     -49.294  57.642 -62.759  1.00  0.00     0.089 A 
HETATM   28  H   UNL     1     -48.551  55.660 -62.604  1.00  0.00     0.165 HD
ENDBRANCH  16  19
ENDBRANCH   1  15
TORSDOF 5
ENDMDL
