MODEL 1
REMARK VINA RESULT:      -7.7      0.000      0.000
REMARK  6 active torsions:
REMARK  status: ('A' for Active; 'I' for Inactive)
REMARK    1  A    between atoms: C_2  and  O_3 
REMARK    2  A    between atoms: O_3  and  C_4 
REMARK    3  A    between atoms: C_5  and  O_6 
REMARK    4  A    between atoms: C_10  and  C_11 
REMARK    5  A    between atoms: C_20  and  C_21 
REMARK       I    between atoms: C_21  and  N_22 
REMARK    6  A    between atoms: N_22  and  C_23 
ROOT
HETATM    1  C   UNL     1     -43.669  56.360 -54.586  1.00  0.00     0.202 A 
HETATM    2  N   UNL     1     -43.574  56.845 -55.969  1.00  0.00    -0.084 N 
HETATM    3  C   UNL     1     -42.742  56.312 -56.912  1.00  0.00     0.725 A 
HETATM    4  N   UNL     1     -42.938  56.914 -58.056  1.00  0.00    -0.054 NA
HETATM    5  C   UNL     1     -43.956  57.787 -57.770  1.00  0.00     0.275 A 
HETATM    6  N   UNL     1     -44.412  57.754 -56.512  1.00  0.00    -0.149 NA
HETATM    7  N   UNL     1     -41.929  55.297 -56.571  1.00  0.00    -0.192 N 
HETATM    8  C   UNL     1     -41.920  54.708 -55.312  1.00  0.00     0.037 A 
HETATM    9  C   UNL     1     -40.978  53.539 -55.151  1.00  0.00     0.070 C 
HETATM   10  C   UNL     1     -42.740  55.176 -54.335  1.00  0.00     0.062 A 
HETATM   11  H   UNL     1     -41.322  54.900 -57.285  1.00  0.00     0.184 HD
ENDROOT
BRANCH   1  12
HETATM   12  C   UNL     1     -43.489  57.522 -53.611  1.00  0.00    -0.024 A 
HETATM   13  C   UNL     1     -44.598  57.981 -52.875  1.00  0.00     0.031 A 
HETATM   14  C   UNL     1     -44.468  59.040 -51.976  1.00  0.00     0.047 A 
HETATM   15  C   UNL     1     -43.228  59.650 -51.804  1.00  0.00     0.116 A 
HETATM   16 BR   UNL     1     -45.999  59.607 -51.015  1.00  0.00    -0.048 Br
HETATM   17  C   UNL     1     -42.110  59.217 -52.530  1.00  0.00     0.103 A 
HETATM   18  C   UNL     1     -42.247  58.168 -53.442  1.00  0.00     0.049 A 
BRANCH  15  19
HETATM   19  O   UNL     1     -43.078  60.687 -50.918  1.00  0.00    -0.357 OA
HETATM   20  H   UNL     1     -43.646  61.405 -51.262  1.00  0.00     0.218 HD
ENDBRANCH  15  19
BRANCH  17  21
HETATM   21  O   UNL     1     -40.951  59.902 -52.263  1.00  0.00    -0.349 OA
BRANCH  21  22
HETATM   22  C   UNL     1     -39.871  59.153 -51.703  1.00  0.00     0.171 C 
HETATM   23  C   UNL     1     -39.730  59.558 -50.247  1.00  0.00     0.034 C 
ENDBRANCH  21  22
ENDBRANCH  17  21
ENDBRANCH   1  12
BRANCH  10  24
HETATM   24  C   UNL     1     -42.659  54.618 -52.949  1.00  0.00     0.256 C 
HETATM   25  N   UNL     1     -41.470  54.870 -52.300  1.00  0.00    -0.323 N 
HETATM   26  H   UNL     1     -40.743  55.369 -52.789  1.00  0.00     0.169 HD
HETATM   27  O   UNL     1     -43.598  53.957 -52.518  1.00  0.00    -0.267 OA
BRANCH  25  28
HETATM   28  C   UNL     1     -41.119  54.468 -50.992  1.00  0.00     0.035 A 
HETATM   29  C   UNL     1     -40.608  53.208 -50.671  1.00  0.00     0.029 A 
HETATM   30  C   UNL     1     -40.302  52.884 -49.345  1.00  0.00     0.002 A 
HETATM   31  C   UNL     1     -40.495  53.818 -48.331  1.00  0.00     0.000 A 
HETATM   32  C   UNL     1     -41.002  55.077 -48.639  1.00  0.00     0.002 A 
HETATM   33  C   UNL     1     -41.320  55.398 -49.962  1.00  0.00     0.029 A 
ENDBRANCH  25  28
ENDBRANCH  10  24
TORSDOF 6
ENDMDL
MODEL 2
REMARK VINA RESULT:      -7.2      3.925      5.807
REMARK  6 active torsions:
REMARK  status: ('A' for Active; 'I' for Inactive)
REMARK    1  A    between atoms: C_2  and  O_3 
REMARK    2  A    between atoms: O_3  and  C_4 
REMARK    3  A    between atoms: C_5  and  O_6 
REMARK    4  A    between atoms: C_10  and  C_11 
REMARK    5  A    between atoms: C_20  and  C_21 
REMARK       I    between atoms: C_21  and  N_22 
REMARK    6  A    between atoms: N_22  and  C_23 
ROOT
HETATM    1  C   UNL     1     -45.031  58.095 -58.453  1.00  0.00     0.202 A 
HETATM    2  N   UNL     1     -46.063  58.730 -59.281  1.00  0.00    -0.084 N 
HETATM    3  C   UNL     1     -46.590  58.173 -60.410  1.00  0.00     0.725 A 
HETATM    4  N   UNL     1     -47.531  58.949 -60.882  1.00  0.00    -0.054 NA
HETATM    5  C   UNL     1     -47.581  59.961 -59.959  1.00  0.00     0.275 A 
HETATM    6  N   UNL     1     -46.729  59.853 -58.932  1.00  0.00    -0.149 NA
HETATM    7  N   UNL     1     -46.133  56.979 -60.827  1.00  0.00    -0.192 N 
HETATM    8  C   UNL     1     -45.179  56.237 -60.139  1.00  0.00     0.037 A 
HETATM    9  C   UNL     1     -44.847  54.892 -60.740  1.00  0.00     0.070 C 
HETATM   10  C   UNL     1     -44.631  56.726 -58.996  1.00  0.00     0.062 A 
HETATM   11  H   UNL     1     -46.541  56.568 -61.663  1.00  0.00     0.184 HD
ENDROOT
BRANCH   1  12
HETATM   12  C   UNL     1     -43.862  59.057 -58.243  1.00  0.00    -0.024 A 
HETATM   13  C   UNL     1     -43.306  59.715 -59.356  1.00  0.00     0.031 A 
HETATM   14  C   UNL     1     -42.238  60.600 -59.200  1.00  0.00     0.047 A 
HETATM   15  C   UNL     1     -41.718  60.834 -57.930  1.00  0.00     0.116 A 
HETATM   16 BR   UNL     1     -41.537  61.456 -60.738  1.00  0.00    -0.048 Br
HETATM   17  C   UNL     1     -42.249  60.186 -56.807  1.00  0.00     0.103 A 
HETATM   18  C   UNL     1     -43.307  59.288 -56.969  1.00  0.00     0.049 A 
BRANCH  15  19
HETATM   19  O   UNL     1     -40.673  61.708 -57.755  1.00  0.00    -0.357 OA
HETATM   20  H   UNL     1     -39.886  61.241 -58.099  1.00  0.00     0.218 HD
ENDBRANCH  15  19
BRANCH  17  21
HETATM   21  O   UNL     1     -41.646  60.509 -55.618  1.00  0.00    -0.349 OA
BRANCH  21  22
HETATM   22  C   UNL     1     -42.222  59.963 -54.430  1.00  0.00     0.171 C 
HETATM   23  C   UNL     1     -41.174  59.093 -53.762  1.00  0.00     0.034 C 
ENDBRANCH  21  22
ENDBRANCH  17  21
ENDBRANCH   1  12
BRANCH  10  24
HETATM   24  C   UNL     1     -43.529  55.983 -58.309  1.00  0.00     0.256 C 
HETATM   25  N   UNL     1     -43.701  55.837 -56.948  1.00  0.00    -0.323 N 
HETATM   26  H   UNL     1     -44.510  56.250 -56.511  1.00  0.00     0.169 HD
HETATM   27  O   UNL     1     -42.562  55.611 -58.964  1.00  0.00    -0.267 OA
BRANCH  25  28
HETATM   28  C   UNL     1     -42.826  55.183 -56.052  1.00  0.00     0.035 A 
HETATM   29  C   UNL     1     -43.060  53.914 -55.516  1.00  0.00     0.029 A 
HETATM   30  C   UNL     1     -42.150  53.344 -54.620  1.00  0.00     0.002 A 
HETATM   31  C   UNL     1     -40.995  54.032 -54.259  1.00  0.00     0.000 A 
HETATM   32  C   UNL     1     -40.751  55.296 -54.788  1.00  0.00     0.002 A 
HETATM   33  C   UNL     1     -41.666  55.872 -55.673  1.00  0.00     0.029 A 
ENDBRANCH  25  28
ENDBRANCH  10  24
TORSDOF 6
ENDMDL
MODEL 3
REMARK VINA RESULT:      -7.1      1.516      2.655
REMARK  6 active torsions:
REMARK  status: ('A' for Active; 'I' for Inactive)
REMARK    1  A    between atoms: C_2  and  O_3 
REMARK    2  A    between atoms: O_3  and  C_4 
REMARK    3  A    between atoms: C_5  and  O_6 
REMARK    4  A    between atoms: C_10  and  C_11 
REMARK    5  A    between atoms: C_20  and  C_21 
REMARK       I    between atoms: C_21  and  N_22 
REMARK    6  A    between atoms: N_22  and  C_23 
ROOT
HETATM    1  C   UNL     1     -43.678  56.689 -54.339  1.00  0.00     0.202 A 
HETATM    2  N   UNL     1     -43.567  57.384 -55.627  1.00  0.00    -0.084 N 
HETATM    3  C   UNL     1     -42.647  57.075 -56.588  1.00  0.00     0.725 A 
HETATM    4  N   UNL     1     -42.847  57.824 -57.641  1.00  0.00    -0.054 NA
HETATM    5  C   UNL     1     -43.956  58.550 -57.291  1.00  0.00     0.275 A 
HETATM    6  N   UNL     1     -44.463  58.287 -56.080  1.00  0.00    -0.149 NA
HETATM    7  N   UNL     1     -41.756  56.096 -56.352  1.00  0.00    -0.192 N 
HETATM    8  C   UNL     1     -41.747  55.325 -55.195  1.00  0.00     0.037 A 
HETATM    9  C   UNL     1     -40.706  54.233 -55.151  1.00  0.00     0.070 C 
HETATM   10  C   UNL     1     -42.652  55.567 -54.210  1.00  0.00     0.062 A 
HETATM   11  H   UNL     1     -41.082  55.866 -57.079  1.00  0.00     0.184 HD
ENDROOT
BRANCH   1  12
HETATM   12  C   UNL     1     -43.654  57.701 -53.195  1.00  0.00    -0.024 A 
HETATM   13  C   UNL     1     -42.416  58.103 -52.659  1.00  0.00     0.031 A 
HETATM   14  C   UNL     1     -42.358  59.026 -51.613  1.00  0.00     0.047 A 
HETATM   15  C   UNL     1     -43.537  59.555 -51.096  1.00  0.00     0.116 A 
HETATM   16 BR   UNL     1     -40.660  59.527 -50.938  1.00  0.00    -0.048 Br
HETATM   17  C   UNL     1     -44.782  59.167 -51.607  1.00  0.00     0.103 A 
HETATM   18  C   UNL     1     -44.838  58.229 -52.642  1.00  0.00     0.049 A 
BRANCH  15  19
HETATM   19  O   UNL     1     -43.501  60.471 -50.073  1.00  0.00    -0.357 OA
HETATM   20  H   UNL     1     -43.359  59.946 -49.261  1.00  0.00     0.218 HD
ENDBRANCH  15  19
BRANCH  17  21
HETATM   21  O   UNL     1     -45.862  59.766 -51.009  1.00  0.00    -0.349 OA
BRANCH  21  22
HETATM   22  C   UNL     1     -46.617  60.681 -51.805  1.00  0.00     0.171 C 
HETATM   23  C   UNL     1     -46.581  62.034 -51.117  1.00  0.00     0.034 C 
ENDBRANCH  21  22
ENDBRANCH  17  21
ENDBRANCH   1  12
BRANCH  10  24
HETATM   24  C   UNL     1     -42.581  54.814 -52.918  1.00  0.00     0.256 C 
HETATM   25  N   UNL     1     -41.476  55.106 -52.147  1.00  0.00    -0.323 N 
HETATM   26  H   UNL     1     -40.793  55.759 -52.499  1.00  0.00     0.169 HD
HETATM   27  O   UNL     1     -43.448  53.986 -52.664  1.00  0.00    -0.267 OA
BRANCH  25  28
HETATM   28  C   UNL     1     -41.154  54.551 -50.888  1.00  0.00     0.035 A 
HETATM   29  C   UNL     1     -41.224  55.253 -49.683  1.00  0.00     0.029 A 
HETATM   30  C   UNL     1     -40.870  54.633 -48.480  1.00  0.00     0.002 A 
HETATM   31  C   UNL     1     -40.453  53.304 -48.470  1.00  0.00     0.000 A 
HETATM   32  C   UNL     1     -40.381  52.595 -49.665  1.00  0.00     0.002 A 
HETATM   33  C   UNL     1     -40.722  53.217 -50.869  1.00  0.00     0.029 A 
ENDBRANCH  25  28
ENDBRANCH  10  24
TORSDOF 6
ENDMDL
MODEL 4
REMARK VINA RESULT:      -7.1      3.938      6.409
REMARK  6 active torsions:
REMARK  status: ('A' for Active; 'I' for Inactive)
REMARK    1  A    between atoms: C_2  and  O_3 
REMARK    2  A    between atoms: O_3  and  C_4 
REMARK    3  A    between atoms: C_5  and  O_6 
REMARK    4  A    between atoms: C_10  and  C_11 
REMARK    5  A    between atoms: C_20  and  C_21 
REMARK       I    between atoms: C_21  and  N_22 
REMARK    6  A    between atoms: N_22  and  C_23 
ROOT
HETATM    1  C   UNL     1     -42.447  58.759 -57.415  1.00  0.00     0.202 A 
HETATM    2  N   UNL     1     -42.336  60.138 -57.907  1.00  0.00    -0.084 N 
HETATM    3  C   UNL     1     -42.141  61.224 -57.104  1.00  0.00     0.725 A 
HETATM    4  N   UNL     1     -42.017  62.297 -57.842  1.00  0.00    -0.054 NA
HETATM    5  C   UNL     1     -42.090  61.798 -59.117  1.00  0.00     0.275 A 
HETATM    6  N   UNL     1     -42.243  60.471 -59.213  1.00  0.00    -0.149 NA
HETATM    7  N   UNL     1     -42.071  61.051 -55.772  1.00  0.00    -0.192 N 
HETATM    8  C   UNL     1     -42.129  59.808 -55.153  1.00  0.00     0.037 A 
HETATM    9  C   UNL     1     -41.967  59.822 -53.652  1.00  0.00     0.070 C 
HETATM   10  C   UNL     1     -42.299  58.684 -55.898  1.00  0.00     0.062 A 
HETATM   11  H   UNL     1     -41.914  61.867 -55.184  1.00  0.00     0.184 HD
ENDROOT
BRANCH   1  12
HETATM   12  C   UNL     1     -43.719  58.111 -57.959  1.00  0.00    -0.024 A 
HETATM   13  C   UNL     1     -43.613  56.974 -58.782  1.00  0.00     0.031 A 
HETATM   14  C   UNL     1     -44.755  56.356 -59.295  1.00  0.00     0.047 A 
HETATM   15  C   UNL     1     -46.013  56.871 -58.989  1.00  0.00     0.116 A 
HETATM   16 BR   UNL     1     -44.545  54.828 -60.394  1.00  0.00    -0.048 Br
HETATM   17  C   UNL     1     -46.145  58.006 -58.178  1.00  0.00     0.103 A 
HETATM   18  C   UNL     1     -44.998  58.631 -57.679  1.00  0.00     0.049 A 
BRANCH  15  19
HETATM   19  O   UNL     1     -47.148  56.273 -59.477  1.00  0.00    -0.357 OA
HETATM   20  H   UNL     1     -47.669  56.025 -58.688  1.00  0.00     0.218 HD
ENDBRANCH  15  19
BRANCH  17  21
HETATM   21  O   UNL     1     -47.438  58.405 -57.953  1.00  0.00    -0.349 OA
BRANCH  21  22
HETATM   22  C   UNL     1     -47.731  59.790 -58.148  1.00  0.00     0.171 C 
HETATM   23  C   UNL     1     -48.051  59.994 -59.618  1.00  0.00     0.034 C 
ENDBRANCH  21  22
ENDBRANCH  17  21
ENDBRANCH   1  12
BRANCH  10  24
HETATM   24  C   UNL     1     -42.469  57.355 -55.233  1.00  0.00     0.256 C 
HETATM   25  N   UNL     1     -41.292  56.672 -55.013  1.00  0.00    -0.323 N 
HETATM   26  H   UNL     1     -40.425  57.078 -55.329  1.00  0.00     0.169 HD
HETATM   27  O   UNL     1     -43.601  56.955 -54.982  1.00  0.00    -0.267 OA
BRANCH  25  28
HETATM   28  C   UNL     1     -41.152  55.404 -54.405  1.00  0.00     0.035 A 
HETATM   29  C   UNL     1     -41.583  55.105 -53.110  1.00  0.00     0.029 A 
HETATM   30  C   UNL     1     -41.390  53.826 -52.577  1.00  0.00     0.002 A 
HETATM   31  C   UNL     1     -40.774  52.834 -53.335  1.00  0.00     0.000 A 
HETATM   32  C   UNL     1     -40.342  53.121 -54.626  1.00  0.00     0.002 A 
HETATM   33  C   UNL     1     -40.523  54.401 -55.156  1.00  0.00     0.029 A 
ENDBRANCH  25  28
ENDBRANCH  10  24
TORSDOF 6
ENDMDL
MODEL 5
REMARK VINA RESULT:      -7.1      3.308      5.528
REMARK  6 active torsions:
REMARK  status: ('A' for Active; 'I' for Inactive)
REMARK    1  A    between atoms: C_2  and  O_3 
REMARK    2  A    between atoms: O_3  and  C_4 
REMARK    3  A    between atoms: C_5  and  O_6 
REMARK    4  A    between atoms: C_10  and  C_11 
REMARK    5  A    between atoms: C_20  and  C_21 
REMARK       I    between atoms: C_21  and  N_22 
REMARK    6  A    between atoms: N_22  and  C_23 
ROOT
HETATM    1  C   UNL     1     -42.779  58.693 -54.695  1.00  0.00     0.202 A 
HETATM    2  N   UNL     1     -43.176  60.072 -54.385  1.00  0.00    -0.084 N 
HETATM    3  C   UNL     1     -43.756  60.456 -53.210  1.00  0.00     0.725 A 
HETATM    4  N   UNL     1     -43.927  61.753 -53.211  1.00  0.00    -0.054 NA
HETATM    5  C   UNL     1     -43.376  62.131 -54.408  1.00  0.00     0.275 A 
HETATM    6  N   UNL     1     -42.862  61.141 -55.149  1.00  0.00    -0.149 NA
HETATM    7  N   UNL     1     -44.016  59.528 -52.272  1.00  0.00    -0.192 N 
HETATM    8  C   UNL     1     -43.675  58.187 -52.402  1.00  0.00     0.037 A 
HETATM    9  C   UNL     1     -43.996  57.318 -51.209  1.00  0.00     0.070 C 
HETATM   10  C   UNL     1     -43.075  57.744 -53.538  1.00  0.00     0.062 A 
HETATM   11  H   UNL     1     -44.437  59.828 -51.396  1.00  0.00     0.184 HD
ENDROOT
BRANCH   1  12
HETATM   12  C   UNL     1     -43.379  58.264 -56.033  1.00  0.00    -0.024 A 
HETATM   13  C   UNL     1     -44.769  58.376 -56.230  1.00  0.00     0.031 A 
HETATM   14  C   UNL     1     -45.350  57.993 -57.441  1.00  0.00     0.047 A 
HETATM   15  C   UNL     1     -44.546  57.496 -58.464  1.00  0.00     0.116 A 
HETATM   16 BR   UNL     1     -47.225  58.171 -57.643  1.00  0.00    -0.048 Br
HETATM   17  C   UNL     1     -43.162  57.369 -58.290  1.00  0.00     0.103 A 
HETATM   18  C   UNL     1     -42.585  57.737 -57.071  1.00  0.00     0.049 A 
BRANCH  15  19
HETATM   19  O   UNL     1     -45.098  57.123 -59.664  1.00  0.00    -0.357 OA
HETATM   20  H   UNL     1     -45.652  56.343 -59.462  1.00  0.00     0.218 HD
ENDBRANCH  15  19
BRANCH  17  21
HETATM   21  O   UNL     1     -42.489  56.869 -59.377  1.00  0.00    -0.349 OA
BRANCH  21  22
HETATM   22  C   UNL     1     -41.456  57.686 -59.930  1.00  0.00     0.171 C 
HETATM   23  C   UNL     1     -42.117  58.859 -60.632  1.00  0.00     0.034 C 
ENDBRANCH  21  22
ENDBRANCH  17  21
ENDBRANCH   1  12
BRANCH  10  24
HETATM   24  C   UNL     1     -42.803  56.285 -53.729  1.00  0.00     0.256 C 
HETATM   25  N   UNL     1     -41.521  55.896 -53.402  1.00  0.00    -0.323 N 
HETATM   26  H   UNL     1     -40.862  56.595 -53.096  1.00  0.00     0.169 HD
HETATM   27  O   UNL     1     -43.685  55.569 -54.191  1.00  0.00    -0.267 OA
BRANCH  25  28
HETATM   28  C   UNL     1     -40.988  54.590 -53.480  1.00  0.00     0.035 A 
HETATM   29  C   UNL     1     -40.704  53.931 -54.679  1.00  0.00     0.029 A 
HETATM   30  C   UNL     1     -40.193  52.629 -54.668  1.00  0.00     0.002 A 
HETATM   31  C   UNL     1     -39.952  51.979 -53.461  1.00  0.00     0.000 A 
HETATM   32  C   UNL     1     -40.230  52.626 -52.261  1.00  0.00     0.002 A 
HETATM   33  C   UNL     1     -40.752  53.922 -52.270  1.00  0.00     0.029 A 
ENDBRANCH  25  28
ENDBRANCH  10  24
TORSDOF 6
ENDMDL
MODEL 6
REMARK VINA RESULT:      -6.8      3.649      6.052
REMARK  6 active torsions:
REMARK  status: ('A' for Active; 'I' for Inactive)
REMARK    1  A    between atoms: C_2  and  O_3 
REMARK    2  A    between atoms: O_3  and  C_4 
REMARK    3  A    between atoms: C_5  and  O_6 
REMARK    4  A    between atoms: C_10  and  C_11 
REMARK    5  A    between atoms: C_20  and  C_21 
REMARK       I    between atoms: C_21  and  N_22 
REMARK    6  A    between atoms: N_22  and  C_23 
ROOT
HETATM    1  C   UNL     1     -43.125  58.909 -54.742  1.00  0.00     0.202 A 
HETATM    2  N   UNL     1     -43.597  60.252 -54.385  1.00  0.00    -0.084 N 
HETATM    3  C   UNL     1     -44.233  60.555 -53.215  1.00  0.00     0.725 A 
HETATM    4  N   UNL     1     -44.465  61.841 -53.164  1.00  0.00    -0.054 NA
HETATM    5  C   UNL     1     -43.894  62.299 -54.323  1.00  0.00     0.275 A 
HETATM    6  N   UNL     1     -43.309  61.369 -55.089  1.00  0.00    -0.149 NA
HETATM    7  N   UNL     1     -44.479  59.573 -52.329  1.00  0.00    -0.192 N 
HETATM    8  C   UNL     1     -44.070  58.256 -52.507  1.00  0.00     0.037 A 
HETATM    9  C   UNL     1     -44.388  57.319 -51.366  1.00  0.00     0.070 C 
HETATM   10  C   UNL     1     -43.413  57.895 -53.640  1.00  0.00     0.062 A 
HETATM   11  H   UNL     1     -44.942  59.812 -51.456  1.00  0.00     0.184 HD
ENDROOT
BRANCH   1  12
HETATM   12  C   UNL     1     -43.660  58.516 -56.118  1.00  0.00    -0.024 A 
HETATM   13  C   UNL     1     -42.750  58.213 -57.148  1.00  0.00     0.031 A 
HETATM   14  C   UNL     1     -43.204  57.850 -58.417  1.00  0.00     0.047 A 
HETATM   15  C   UNL     1     -44.573  57.786 -58.666  1.00  0.00     0.116 A 
HETATM   16 BR   UNL     1     -41.928  57.452 -59.759  1.00  0.00    -0.048 Br
HETATM   17  C   UNL     1     -45.499  58.089 -57.660  1.00  0.00     0.103 A 
HETATM   18  C   UNL     1     -45.041  58.469 -56.395  1.00  0.00     0.049 A 
BRANCH  15  19
HETATM   19  O   UNL     1     -45.039  57.422 -59.905  1.00  0.00    -0.357 OA
HETATM   20  H   UNL     1     -44.356  57.722 -60.536  1.00  0.00     0.218 HD
ENDBRANCH  15  19
BRANCH  17  21
HETATM   21  O   UNL     1     -46.814  57.984 -58.037  1.00  0.00    -0.349 OA
BRANCH  21  22
HETATM   22  C   UNL     1     -47.589  59.184 -58.026  1.00  0.00     0.171 C 
HETATM   23  C   UNL     1     -47.758  59.642 -59.463  1.00  0.00     0.034 C 
ENDBRANCH  21  22
ENDBRANCH  17  21
ENDBRANCH   1  12
BRANCH  10  24
HETATM   24  C   UNL     1     -43.065  56.460 -53.886  1.00  0.00     0.256 C 
HETATM   25  N   UNL     1     -41.767  56.124 -53.563  1.00  0.00    -0.323 N 
HETATM   26  H   UNL     1     -41.147  56.843 -53.224  1.00  0.00     0.169 HD
HETATM   27  O   UNL     1     -43.906  55.720 -54.384  1.00  0.00    -0.267 OA
BRANCH  25  28
HETATM   28  C   UNL     1     -41.168  54.851 -53.689  1.00  0.00     0.035 A 
HETATM   29  C   UNL     1     -40.711  54.317 -54.896  1.00  0.00     0.029 A 
HETATM   30  C   UNL     1     -40.144  53.039 -54.936  1.00  0.00     0.002 A 
HETATM   31  C   UNL     1     -40.020  52.288 -53.769  1.00  0.00     0.000 A 
HETATM   32  C   UNL     1     -40.470  52.811 -52.561  1.00  0.00     0.002 A 
HETATM   33  C   UNL     1     -41.049  54.083 -52.522  1.00  0.00     0.029 A 
ENDBRANCH  25  28
ENDBRANCH  10  24
TORSDOF 6
ENDMDL
MODEL 7
REMARK VINA RESULT:      -6.8     17.285     19.366
REMARK  6 active torsions:
REMARK  status: ('A' for Active; 'I' for Inactive)
REMARK    1  A    between atoms: C_2  and  O_3 
REMARK    2  A    between atoms: O_3  and  C_4 
REMARK    3  A    between atoms: C_5  and  O_6 
REMARK    4  A    between atoms: C_10  and  C_11 
REMARK    5  A    between atoms: C_20  and  C_21 
REMARK       I    between atoms: C_21  and  N_22 
REMARK    6  A    between atoms: N_22  and  C_23 
ROOT
HETATM    1  C   UNL     1     -33.986  38.421 -56.446  1.00  0.00     0.202 A 
HETATM    2  N   UNL     1     -34.021  37.797 -57.774  1.00  0.00    -0.084 N 
HETATM    3  C   UNL     1     -32.927  37.637 -58.575  1.00  0.00     0.725 A 
HETATM    4  N   UNL     1     -33.270  36.990 -59.658  1.00  0.00    -0.054 NA
HETATM    5  C   UNL     1     -34.598  36.723 -59.445  1.00  0.00     0.275 A 
HETATM    6  N   UNL     1     -35.099  37.160 -58.283  1.00  0.00    -0.149 NA
HETATM    7  N   UNL     1     -31.735  38.096 -58.156  1.00  0.00    -0.192 N 
HETATM    8  C   UNL     1     -31.530  38.684 -56.913  1.00  0.00     0.037 A 
HETATM    9  C   UNL     1     -30.103  39.075 -56.607  1.00  0.00     0.070 C 
HETATM   10  C   UNL     1     -32.574  38.853 -56.059  1.00  0.00     0.062 A 
HETATM   11  H   UNL     1     -30.924  37.961 -58.755  1.00  0.00     0.184 HD
ENDROOT
BRANCH   1  12
HETATM   12  C   UNL     1     -35.031  39.533 -56.361  1.00  0.00    -0.024 A 
HETATM   13  C   UNL     1     -35.758  39.703 -55.169  1.00  0.00     0.031 A 
HETATM   14  C   UNL     1     -36.720  40.708 -55.058  1.00  0.00     0.047 A 
HETATM   15  C   UNL     1     -36.962  41.552 -56.139  1.00  0.00     0.116 A 
HETATM   16 BR   UNL     1     -37.663  40.886 -53.424  1.00  0.00    -0.048 Br
HETATM   17  C   UNL     1     -36.257  41.399 -57.339  1.00  0.00     0.103 A 
HETATM   18  C   UNL     1     -35.306  40.380 -57.453  1.00  0.00     0.049 A 
BRANCH  15  19
HETATM   19  O   UNL     1     -37.898  42.552 -56.046  1.00  0.00    -0.357 OA
HETATM   20  H   UNL     1     -38.445  42.470 -56.852  1.00  0.00     0.218 HD
ENDBRANCH  15  19
BRANCH  17  21
HETATM   21  O   UNL     1     -36.590  42.297 -58.322  1.00  0.00    -0.349 OA
BRANCH  21  22
HETATM   22  C   UNL     1     -37.211  41.772 -59.496  1.00  0.00     0.171 C 
HETATM   23  C   UNL     1     -37.400  42.917 -60.474  1.00  0.00     0.034 C 
ENDBRANCH  21  22
ENDBRANCH  17  21
ENDBRANCH   1  12
BRANCH  10  24
HETATM   24  C   UNL     1     -32.382  39.580 -54.766  1.00  0.00     0.256 C 
HETATM   25  N   UNL     1     -32.825  38.895 -53.655  1.00  0.00    -0.323 N 
HETATM   26  H   UNL     1     -33.263  37.995 -53.778  1.00  0.00     0.169 HD
HETATM   27  O   UNL     1     -31.909  40.711 -54.783  1.00  0.00    -0.267 OA
BRANCH  25  28
HETATM   28  C   UNL     1     -32.770  39.335 -52.313  1.00  0.00     0.035 A 
HETATM   29  C   UNL     1     -31.835  38.885 -51.379  1.00  0.00     0.029 A 
HETATM   30  C   UNL     1     -31.860  39.360 -50.064  1.00  0.00     0.002 A 
HETATM   31  C   UNL     1     -32.814  40.295 -49.673  1.00  0.00     0.000 A 
HETATM   32  C   UNL     1     -33.751  40.752 -50.596  1.00  0.00     0.002 A 
HETATM   33  C   UNL     1     -33.734  40.269 -51.907  1.00  0.00     0.029 A 
ENDBRANCH  25  28
ENDBRANCH  10  24
TORSDOF 6
ENDMDL
MODEL 8
REMARK VINA RESULT:      -6.7      3.108      4.591
REMARK  6 active torsions:
REMARK  status: ('A' for Active; 'I' for Inactive)
REMARK    1  A    between atoms: C_2  and  O_3 
REMARK    2  A    between atoms: O_3  and  C_4 
REMARK    3  A    between atoms: C_5  and  O_6 
REMARK    4  A    between atoms: C_10  and  C_11 
REMARK    5  A    between atoms: C_20  and  C_21 
REMARK       I    between atoms: C_21  and  N_22 
REMARK    6  A    between atoms: N_22  and  C_23 
ROOT
HETATM    1  C   UNL     1     -43.981  57.662 -57.002  1.00  0.00     0.202 A 
HETATM    2  N   UNL     1     -43.861  57.185 -58.385  1.00  0.00    -0.084 N 
HETATM    3  C   UNL     1     -43.189  56.054 -58.749  1.00  0.00     0.725 A 
HETATM    4  N   UNL     1     -43.321  55.863 -60.036  1.00  0.00    -0.054 NA
HETATM    5  C   UNL     1     -44.143  56.893 -60.413  1.00  0.00     0.275 A 
HETATM    6  N   UNL     1     -44.538  57.710 -59.429  1.00  0.00    -0.149 NA
HETATM    7  N   UNL     1     -42.565  55.328 -57.804  1.00  0.00    -0.192 N 
HETATM    8  C   UNL     1     -42.608  55.631 -56.448  1.00  0.00     0.037 A 
HETATM    9  C   UNL     1     -41.896  54.654 -55.543  1.00  0.00     0.070 C 
HETATM   10  C   UNL     1     -43.280  56.731 -56.017  1.00  0.00     0.062 A 
HETATM   11  H   UNL     1     -42.077  54.481 -58.086  1.00  0.00     0.184 HD
ENDROOT
BRANCH   1  12
HETATM   12  C   UNL     1     -43.541  59.122 -56.912  1.00  0.00    -0.024 A 
HETATM   13  C   UNL     1     -44.382  60.056 -56.277  1.00  0.00     0.031 A 
HETATM   14  C   UNL     1     -44.011  61.398 -56.178  1.00  0.00     0.047 A 
HETATM   15  C   UNL     1     -42.795  61.817 -56.712  1.00  0.00     0.116 A 
HETATM   16 BR   UNL     1     -45.187  62.602 -55.309  1.00  0.00    -0.048 Br
HETATM   17  C   UNL     1     -41.944  60.910 -57.355  1.00  0.00     0.103 A 
HETATM   18  C   UNL     1     -42.326  59.570 -57.468  1.00  0.00     0.049 A 
BRANCH  15  19
HETATM   19  O   UNL     1     -42.409  63.131 -56.616  1.00  0.00    -0.357 OA
HETATM   20  H   UNL     1     -42.576  63.382 -55.687  1.00  0.00     0.218 HD
ENDBRANCH  15  19
BRANCH  17  21
HETATM   21  O   UNL     1     -40.778  61.453 -57.832  1.00  0.00    -0.349 OA
BRANCH  21  22
HETATM   22  C   UNL     1     -40.754  61.827 -59.211  1.00  0.00     0.171 C 
HETATM   23  C   UNL     1     -39.682  62.886 -59.387  1.00  0.00     0.034 C 
ENDBRANCH  21  22
ENDBRANCH  17  21
ENDBRANCH   1  12
BRANCH  10  24
HETATM   24  C   UNL     1     -43.242  57.121 -54.573  1.00  0.00     0.256 C 
HETATM   25  N   UNL     1     -42.101  57.796 -54.194  1.00  0.00    -0.323 N 
HETATM   26  H   UNL     1     -41.376  57.952 -54.878  1.00  0.00     0.169 HD
HETATM   27  O   UNL     1     -44.166  56.786 -53.841  1.00  0.00    -0.267 OA
BRANCH  25  28
HETATM   28  C   UNL     1     -41.797  58.284 -52.904  1.00  0.00     0.035 A 
HETATM   29  C   UNL     1     -41.146  57.538 -51.918  1.00  0.00     0.029 A 
HETATM   30  C   UNL     1     -40.898  58.092 -50.658  1.00  0.00     0.002 A 
HETATM   31  C   UNL     1     -41.289  59.398 -50.375  1.00  0.00     0.000 A 
HETATM   32  C   UNL     1     -41.937  60.151 -51.350  1.00  0.00     0.002 A 
HETATM   33  C   UNL     1     -42.196  59.594 -52.605  1.00  0.00     0.029 A 
ENDBRANCH  25  28
ENDBRANCH  10  24
TORSDOF 6
ENDMDL
MODEL 9
REMARK VINA RESULT:      -6.6      3.419      5.758
REMARK  6 active torsions:
REMARK  status: ('A' for Active; 'I' for Inactive)
REMARK    1  A    between atoms: C_2  and  O_3 
REMARK    2  A    between atoms: O_3  and  C_4 
REMARK    3  A    between atoms: C_5  and  O_6 
REMARK    4  A    between atoms: C_10  and  C_11 
REMARK    5  A    between atoms: C_20  and  C_21 
REMARK       I    between atoms: C_21  and  N_22 
REMARK    6  A    between atoms: N_22  and  C_23 
ROOT
HETATM    1  C   UNL     1     -43.269  59.574 -53.531  1.00  0.00     0.202 A 
HETATM    2  N   UNL     1     -44.474  60.364 -53.254  1.00  0.00    -0.084 N 
HETATM    3  C   UNL     1     -45.452  59.989 -52.377  1.00  0.00     0.725 A 
HETATM    4  N   UNL     1     -46.354  60.932 -52.300  1.00  0.00    -0.054 NA
HETATM    5  C   UNL     1     -45.847  61.905 -53.122  1.00  0.00     0.275 A 
HETATM    6  N   UNL     1     -44.673  61.624 -53.699  1.00  0.00    -0.149 NA
HETATM    7  N   UNL     1     -45.341  58.812 -51.736  1.00  0.00    -0.192 N 
HETATM    8  C   UNL     1     -44.249  57.963 -51.868  1.00  0.00     0.037 A 
HETATM    9  C   UNL     1     -44.287  56.719 -51.013  1.00  0.00     0.070 C 
HETATM   10  C   UNL     1     -43.231  58.289 -52.708  1.00  0.00     0.062 A 
HETATM   11  H   UNL     1     -46.070  58.548 -51.077  1.00  0.00     0.184 HD
ENDROOT
BRANCH   1  12
HETATM   12  C   UNL     1     -43.116  59.363 -55.037  1.00  0.00    -0.024 A 
HETATM   13  C   UNL     1     -42.341  60.270 -55.782  1.00  0.00     0.031 A 
HETATM   14  C   UNL     1     -42.181  60.107 -57.160  1.00  0.00     0.047 A 
HETATM   15  C   UNL     1     -42.795  59.035 -57.802  1.00  0.00     0.116 A 
HETATM   16 BR   UNL     1     -41.122  61.362 -58.105  1.00  0.00    -0.048 Br
HETATM   17  C   UNL     1     -43.578  58.123 -57.084  1.00  0.00     0.103 A 
HETATM   18  C   UNL     1     -43.750  58.298 -55.708  1.00  0.00     0.049 A 
BRANCH  15  19
HETATM   19  O   UNL     1     -42.642  58.853 -59.154  1.00  0.00    -0.357 OA
HETATM   20  H   UNL     1     -43.541  58.940 -59.529  1.00  0.00     0.218 HD
ENDBRANCH  15  19
BRANCH  17  21
HETATM   21  O   UNL     1     -44.123  57.113 -57.837  1.00  0.00    -0.349 OA
BRANCH  21  22
HETATM   22  C   UNL     1     -43.366  55.907 -57.947  1.00  0.00     0.171 C 
HETATM   23  C   UNL     1     -43.503  55.400 -59.371  1.00  0.00     0.034 C 
ENDBRANCH  21  22
ENDBRANCH  17  21
ENDBRANCH   1  12
BRANCH  10  24
HETATM   24  C   UNL     1     -42.104  57.332 -52.936  1.00  0.00     0.256 C 
HETATM   25  N   UNL     1     -42.484  56.118 -53.467  1.00  0.00    -0.323 N 
HETATM   26  H   UNL     1     -43.463  55.943 -53.634  1.00  0.00     0.169 HD
HETATM   27  O   UNL     1     -40.969  57.658 -52.603  1.00  0.00    -0.267 OA
BRANCH  25  28
HETATM   28  C   UNL     1     -41.638  55.032 -53.785  1.00  0.00     0.035 A 
HETATM   29  C   UNL     1     -40.894  54.940 -54.963  1.00  0.00     0.029 A 
HETATM   30  C   UNL     1     -40.091  53.821 -55.209  1.00  0.00     0.002 A 
HETATM   31  C   UNL     1     -40.020  52.789 -54.277  1.00  0.00     0.000 A 
HETATM   32  C   UNL     1     -40.757  52.871 -53.099  1.00  0.00     0.002 A 
HETATM   33  C   UNL     1     -41.568  53.983 -52.858  1.00  0.00     0.029 A 
ENDBRANCH  25  28
ENDBRANCH  10  24
TORSDOF 6
ENDMDL
MODEL 10
REMARK VINA RESULT:      -6.6      3.061      7.119
REMARK  6 active torsions:
REMARK  status: ('A' for Active; 'I' for Inactive)
REMARK    1  A    between atoms: C_2  and  O_3 
REMARK    2  A    between atoms: O_3  and  C_4 
REMARK    3  A    between atoms: C_5  and  O_6 
REMARK    4  A    between atoms: C_10  and  C_11 
REMARK    5  A    between atoms: C_20  and  C_21 
REMARK       I    between atoms: C_21  and  N_22 
REMARK    6  A    between atoms: N_22  and  C_23 
ROOT
HETATM    1  C   UNL     1     -42.861  57.436 -52.268  1.00  0.00     0.202 A 
HETATM    2  N   UNL     1     -42.748  56.315 -51.327  1.00  0.00    -0.084 N 
HETATM    3  C   UNL     1     -41.862  56.274 -50.288  1.00  0.00     0.725 A 
HETATM    4  N   UNL     1     -42.052  55.181 -49.595  1.00  0.00    -0.054 NA
HETATM    5  C   UNL     1     -43.121  54.602 -50.229  1.00  0.00     0.275 A 
HETATM    6  N   UNL     1     -43.613  55.280 -51.274  1.00  0.00    -0.149 NA
HETATM    7  N   UNL     1     -41.010  57.299 -50.111  1.00  0.00    -0.192 N 
HETATM    8  C   UNL     1     -41.010  58.445 -50.899  1.00  0.00     0.037 A 
HETATM    9  C   UNL     1     -40.016  59.508 -50.497  1.00  0.00     0.070 C 
HETATM   10  C   UNL     1     -41.882  58.558 -51.935  1.00  0.00     0.062 A 
HETATM   11  H   UNL     1     -40.362  57.263 -49.327  1.00  0.00     0.184 HD
ENDROOT
BRANCH   1  12
HETATM   12  C   UNL     1     -42.769  56.923 -53.705  1.00  0.00    -0.024 A 
HETATM   13  C   UNL     1     -43.562  57.523 -54.700  1.00  0.00     0.031 A 
HETATM   14  C   UNL     1     -43.503  57.079 -56.023  1.00  0.00     0.047 A 
HETATM   15  C   UNL     1     -42.649  56.033 -56.360  1.00  0.00     0.116 A 
HETATM   16 BR   UNL     1     -44.595  57.930 -57.315  1.00  0.00    -0.048 Br
HETATM   17  C   UNL     1     -41.854  55.414 -55.386  1.00  0.00     0.103 A 
HETATM   18  C   UNL     1     -41.928  55.849 -54.060  1.00  0.00     0.049 A 
BRANCH  15  19
HETATM   19  O   UNL     1     -42.569  55.588 -57.656  1.00  0.00    -0.357 OA
HETATM   20  H   UNL     1     -43.437  55.797 -58.054  1.00  0.00     0.218 HD
ENDBRANCH  15  19
BRANCH  17  21
HETATM   21  O   UNL     1     -41.056  54.400 -55.853  1.00  0.00    -0.349 OA
BRANCH  21  22
HETATM   22  C   UNL     1     -39.989  53.973 -55.006  1.00  0.00     0.171 C 
HETATM   23  C   UNL     1     -40.358  52.613 -54.442  1.00  0.00     0.034 C 
ENDBRANCH  21  22
ENDBRANCH  17  21
ENDBRANCH   1  12
BRANCH  10  24
HETATM   24  C   UNL     1     -41.817  59.739 -52.852  1.00  0.00     0.256 C 
HETATM   25  N   UNL     1     -42.878  60.611 -52.735  1.00  0.00    -0.323 N 
HETATM   26  H   UNL     1     -43.620  60.394 -52.088  1.00  0.00     0.169 HD
HETATM   27  O   UNL     1     -40.888  59.825 -53.648  1.00  0.00    -0.267 OA
BRANCH  25  28
HETATM   28  C   UNL     1     -43.077  61.803 -53.468  1.00  0.00     0.035 A 
HETATM   29  C   UNL     1     -43.350  61.843 -54.837  1.00  0.00     0.029 A 
HETATM   30  C   UNL     1     -43.518  63.069 -55.491  1.00  0.00     0.002 A 
HETATM   31  C   UNL     1     -43.422  64.263 -54.780  1.00  0.00     0.000 A 
HETATM   32  C   UNL     1     -43.151  64.234 -53.416  1.00  0.00     0.002 A 
HETATM   33  C   UNL     1     -42.971  63.011 -52.764  1.00  0.00     0.029 A 
ENDBRANCH  25  28
ENDBRANCH  10  24
TORSDOF 6
ENDMDL
