MODEL 1
REMARK VINA RESULT:      -7.8      0.000      0.000
REMARK  3 active torsions:
REMARK  status: ('A' for Active; 'I' for Inactive)
REMARK    1  A    between atoms: C_11  and  N_12 
REMARK       I    between atoms: N_12  and  C_13 
REMARK    2  A    between atoms: C_13  and  C_14 
REMARK    3  A    between atoms: C_15  and  O_16 
ROOT
HETATM    1  N   UNL     1     -41.651  55.473 -53.028  1.00  0.00    -0.352 N 
HETATM    2  C   UNL     1     -40.693  54.799 -53.767  1.00  0.00     0.254 C 
HETATM    3  O   UNL     1     -40.073  55.301 -54.697  1.00  0.00    -0.268 OA
HETATM    4  H   UNL     1     -42.199  54.908 -52.390  1.00  0.00     0.163 HD
ENDROOT
BRANCH   1   5
HETATM    5  C   UNL     1     -42.205  56.768 -53.410  1.00  0.00     0.089 C 
HETATM    6  C   UNL     1     -41.458  58.017 -52.921  1.00  0.00     0.063 C 
HETATM    7  C   UNL     1     -41.543  58.285 -51.415  1.00  0.00     0.121 C 
HETATM    8  N   UNL     1     -42.995  58.234 -50.981  1.00  0.00    -0.059 N 
HETATM    9  C   UNL     1     -40.698  57.348 -50.546  1.00  0.00     0.046 C 
HETATM   10  C   UNL     1     -41.064  59.725 -51.133  1.00  0.00     0.046 C 
HETATM   11  C   UNL     1     -43.910  57.138 -51.484  1.00  0.00     0.121 C 
HETATM   12  H   UNL     1     -43.418  59.133 -51.255  1.00  0.00     0.279 HD
HETATM   13  H   UNL     1     -43.027  58.250 -49.950  1.00  0.00     0.279 HD
HETATM   14  C   UNL     1     -43.752  55.882 -50.619  1.00  0.00     0.046 C 
HETATM   15  C   UNL     1     -45.349  57.658 -51.280  1.00  0.00     0.046 C 
HETATM   16  C   UNL     1     -43.676  56.886 -52.987  1.00  0.00     0.063 C 
ENDBRANCH   1   5
BRANCH   2  17
HETATM   17  C   UNL     1     -40.321  53.436 -53.309  1.00  0.00     0.066 A 
HETATM   18  C   UNL     1     -40.138  53.212 -51.935  1.00  0.00     0.081 A 
HETATM   19  C   UNL     1     -39.872  51.933 -51.453  1.00  0.00     0.039 A 
HETATM   20  C   UNL     1     -39.758  50.868 -52.345  1.00  0.00     0.026 A 
HETATM   21  C   UNL     1     -39.902  51.092 -53.713  1.00  0.00     0.035 A 
HETATM   22 CL   UNL     1     -39.749  49.781 -54.815  1.00  0.00    -0.084 Cl
HETATM   23  C   UNL     1     -40.179  52.370 -54.203  1.00  0.00     0.043 A 
BRANCH  18  24
HETATM   24  O   UNL     1     -40.223  54.211 -51.002  1.00  0.00    -0.360 OA
HETATM   25  H   UNL     1     -40.932  54.830 -51.283  1.00  0.00     0.217 HD
ENDBRANCH  18  24
ENDBRANCH   2  17
TORSDOF 3
ENDMDL
MODEL 2
REMARK VINA RESULT:      -7.6      1.852      2.886
REMARK  3 active torsions:
REMARK  status: ('A' for Active; 'I' for Inactive)
REMARK    1  A    between atoms: C_11  and  N_12 
REMARK       I    between atoms: N_12  and  C_13 
REMARK    2  A    between atoms: C_13  and  C_14 
REMARK    3  A    between atoms: C_15  and  O_16 
ROOT
HETATM    1  N   UNL     1     -40.905  54.299 -52.721  1.00  0.00    -0.352 N 
HETATM    2  C   UNL     1     -40.243  53.645 -51.695  1.00  0.00     0.254 C 
HETATM    3  O   UNL     1     -39.950  54.173 -50.629  1.00  0.00    -0.268 OA
HETATM    4  H   UNL     1     -40.953  53.804 -53.604  1.00  0.00     0.163 HD
ENDROOT
BRANCH   1   5
HETATM    5  C   UNL     1     -41.121  55.742 -52.756  1.00  0.00     0.089 C 
HETATM    6  C   UNL     1     -42.040  56.335 -51.679  1.00  0.00     0.063 C 
HETATM    7  C   UNL     1     -43.524  55.984 -51.817  1.00  0.00     0.121 C 
HETATM    8  N   UNL     1     -43.977  56.279 -53.234  1.00  0.00    -0.059 N 
HETATM    9  C   UNL     1     -43.884  54.545 -51.436  1.00  0.00     0.046 C 
HETATM   10  C   UNL     1     -44.348  56.918 -50.904  1.00  0.00     0.046 C 
HETATM   11  C   UNL     1     -43.116  55.880 -54.414  1.00  0.00     0.121 C 
HETATM   12  H   UNL     1     -44.120  57.298 -53.293  1.00  0.00     0.279 HD
HETATM   13  H   UNL     1     -44.922  55.889 -53.362  1.00  0.00     0.279 HD
HETATM   14  C   UNL     1     -43.378  54.415 -54.784  1.00  0.00     0.046 C 
HETATM   15  C   UNL     1     -43.594  56.744 -55.600  1.00  0.00     0.046 C 
HETATM   16  C   UNL     1     -41.633  56.190 -54.132  1.00  0.00     0.063 C 
ENDBRANCH   1   5
BRANCH   2  17
HETATM   17  C   UNL     1     -39.999  52.190 -51.865  1.00  0.00     0.066 A 
HETATM   18  C   UNL     1     -40.060  51.359 -50.736  1.00  0.00     0.081 A 
HETATM   19  C   UNL     1     -39.923  49.978 -50.861  1.00  0.00     0.039 A 
HETATM   20  C   UNL     1     -39.693  49.418 -52.116  1.00  0.00     0.026 A 
HETATM   21  C   UNL     1     -39.595  50.243 -53.236  1.00  0.00     0.035 A 
HETATM   22 CL   UNL     1     -39.300  49.553 -54.783  1.00  0.00    -0.084 Cl
HETATM   23  C   UNL     1     -39.742  51.626 -53.120  1.00  0.00     0.043 A 
BRANCH  18  24
HETATM   24  O   UNL     1     -40.270  51.839 -49.471  1.00  0.00    -0.360 OA
HETATM   25  H   UNL     1     -39.691  52.622 -49.343  1.00  0.00     0.217 HD
ENDBRANCH  18  24
ENDBRANCH   2  17
TORSDOF 3
ENDMDL
MODEL 3
REMARK VINA RESULT:      -7.3      1.751      2.108
REMARK  3 active torsions:
REMARK  status: ('A' for Active; 'I' for Inactive)
REMARK    1  A    between atoms: C_11  and  N_12 
REMARK       I    between atoms: N_12  and  C_13 
REMARK    2  A    between atoms: C_13  and  C_14 
REMARK    3  A    between atoms: C_15  and  O_16 
ROOT
HETATM    1  N   UNL     1     -41.401  56.590 -53.133  1.00  0.00    -0.352 N 
HETATM    2  C   UNL     1     -41.672  55.486 -53.923  1.00  0.00     0.254 C 
HETATM    3  O   UNL     1     -42.317  55.535 -54.964  1.00  0.00    -0.268 OA
HETATM    4  H   UNL     1     -40.993  56.397 -52.225  1.00  0.00     0.163 HD
ENDROOT
BRANCH   1   5
HETATM    5  C   UNL     1     -42.040  57.890 -53.310  1.00  0.00     0.089 C 
HETATM    6  C   UNL     1     -41.450  59.069 -52.524  1.00  0.00     0.063 C 
HETATM    7  C   UNL     1     -41.674  59.026 -51.010  1.00  0.00     0.121 C 
HETATM    8  N   UNL     1     -43.145  58.783 -50.730  1.00  0.00    -0.059 N 
HETATM    9  C   UNL     1     -40.817  58.002 -50.260  1.00  0.00     0.046 C 
HETATM   10  C   UNL     1     -41.353  60.414 -50.414  1.00  0.00     0.046 C 
HETATM   11  C   UNL     1     -43.915  57.743 -51.517  1.00  0.00     0.121 C 
HETATM   12  H   UNL     1     -43.626  59.684 -50.866  1.00  0.00     0.279 HD
HETATM   13  H   UNL     1     -43.258  58.591 -49.723  1.00  0.00     0.279 HD
HETATM   14  C   UNL     1     -43.710  56.355 -50.897  1.00  0.00     0.046 C 
HETATM   15  C   UNL     1     -45.406  58.103 -51.352  1.00  0.00     0.046 C 
HETATM   16  C   UNL     1     -43.544  57.812 -53.012  1.00  0.00     0.063 C 
ENDBRANCH   1   5
BRANCH   2  17
HETATM   17  C   UNL     1     -41.029  54.204 -53.538  1.00  0.00     0.066 A 
HETATM   18  C   UNL     1     -40.342  53.473 -54.520  1.00  0.00     0.081 A 
HETATM   19  C   UNL     1     -39.652  52.309 -54.187  1.00  0.00     0.039 A 
HETATM   20  C   UNL     1     -39.667  51.849 -52.871  1.00  0.00     0.026 A 
HETATM   21  C   UNL     1     -40.379  52.552 -51.900  1.00  0.00     0.035 A 
HETATM   22 CL   UNL     1     -40.409  51.979 -50.279  1.00  0.00    -0.084 Cl
HETATM   23  C   UNL     1     -41.064  53.725 -52.224  1.00  0.00     0.043 A 
BRANCH  18  24
HETATM   24  O   UNL     1     -40.293  53.856 -55.833  1.00  0.00    -0.360 OA
HETATM   25  H   UNL     1     -39.371  53.740 -56.150  1.00  0.00     0.217 HD
ENDBRANCH  18  24
ENDBRANCH   2  17
TORSDOF 3
ENDMDL
MODEL 4
REMARK VINA RESULT:      -7.0      2.179      3.541
REMARK  3 active torsions:
REMARK  status: ('A' for Active; 'I' for Inactive)
REMARK    1  A    between atoms: C_11  and  N_12 
REMARK       I    between atoms: N_12  and  C_13 
REMARK    2  A    between atoms: C_13  and  C_14 
REMARK    3  A    between atoms: C_15  and  O_16 
ROOT
HETATM    1  N   UNL     1     -43.027  55.813 -52.782  1.00  0.00    -0.352 N 
HETATM    2  C   UNL     1     -42.937  55.046 -51.633  1.00  0.00     0.254 C 
HETATM    3  O   UNL     1     -43.767  55.071 -50.731  1.00  0.00    -0.268 OA
HETATM    4  H   UNL     1     -42.207  55.818 -53.378  1.00  0.00     0.163 HD
ENDROOT
BRANCH   1   5
HETATM    5  C   UNL     1     -43.979  56.906 -52.955  1.00  0.00     0.089 C 
HETATM    6  C   UNL     1     -44.630  57.051 -54.338  1.00  0.00     0.063 C 
HETATM    7  C   UNL     1     -43.696  57.523 -55.456  1.00  0.00     0.121 C 
HETATM    8  N   UNL     1     -42.955  58.765 -54.997  1.00  0.00    -0.059 N 
HETATM    9  C   UNL     1     -42.701  56.468 -55.952  1.00  0.00     0.046 C 
HETATM   10  C   UNL     1     -44.545  57.958 -56.670  1.00  0.00     0.046 C 
HETATM   11  C   UNL     1     -42.367  58.838 -53.604  1.00  0.00     0.121 C 
HETATM   12  H   UNL     1     -43.612  59.553 -55.091  1.00  0.00     0.279 HD
HETATM   13  H   UNL     1     -42.216  58.975 -55.684  1.00  0.00     0.279 HD
HETATM   14  C   UNL     1     -40.984  58.174 -53.580  1.00  0.00     0.046 C 
HETATM   15  C   UNL     1     -42.161  60.338 -53.307  1.00  0.00     0.046 C 
HETATM   16  C   UNL     1     -43.349  58.253 -52.570  1.00  0.00     0.063 C 
ENDBRANCH   1   5
BRANCH   2  17
HETATM   17  C   UNL     1     -41.836  54.052 -51.567  1.00  0.00     0.066 A 
HETATM   18  C   UNL     1     -41.317  53.703 -50.310  1.00  0.00     0.081 A 
HETATM   19  C   UNL     1     -40.344  52.713 -50.193  1.00  0.00     0.039 A 
HETATM   20  C   UNL     1     -39.859  52.081 -51.338  1.00  0.00     0.026 A 
HETATM   21  C   UNL     1     -40.346  52.450 -52.591  1.00  0.00     0.035 A 
HETATM   22 CL   UNL     1     -39.741  51.680 -54.004  1.00  0.00    -0.084 Cl
HETATM   23  C   UNL     1     -41.329  53.434 -52.715  1.00  0.00     0.043 A 
BRANCH  18  24
HETATM   24  O   UNL     1     -41.734  54.288 -49.146  1.00  0.00    -0.360 OA
HETATM   25  H   UNL     1     -41.530  55.248 -49.197  1.00  0.00     0.217 HD
ENDBRANCH  18  24
ENDBRANCH   2  17
TORSDOF 3
ENDMDL
MODEL 5
REMARK VINA RESULT:      -7.0      4.508      6.667
REMARK  3 active torsions:
REMARK  status: ('A' for Active; 'I' for Inactive)
REMARK    1  A    between atoms: C_11  and  N_12 
REMARK       I    between atoms: N_12  and  C_13 
REMARK    2  A    between atoms: C_13  and  C_14 
REMARK    3  A    between atoms: C_15  and  O_16 
ROOT
HETATM    1  N   UNL     1     -42.843  55.493 -55.736  1.00  0.00    -0.352 N 
HETATM    2  C   UNL     1     -43.520  56.602 -56.215  1.00  0.00     0.254 C 
HETATM    3  O   UNL     1     -44.317  57.253 -55.550  1.00  0.00    -0.268 OA
HETATM    4  H   UNL     1     -42.331  54.953 -56.425  1.00  0.00     0.163 HD
ENDROOT
BRANCH   1   5
HETATM    5  C   UNL     1     -43.167  54.827 -54.478  1.00  0.00     0.089 C 
HETATM    6  C   UNL     1     -43.020  55.654 -53.194  1.00  0.00     0.063 C 
HETATM    7  C   UNL     1     -41.581  55.987 -52.790  1.00  0.00     0.121 C 
HETATM    8  N   UNL     1     -40.754  54.715 -52.794  1.00  0.00    -0.059 N 
HETATM    9  C   UNL     1     -40.903  57.061 -53.647  1.00  0.00     0.046 C 
HETATM   10  C   UNL     1     -41.573  56.494 -51.332  1.00  0.00     0.046 C 
HETATM   11  C   UNL     1     -40.882  53.720 -53.928  1.00  0.00     0.121 C 
HETATM   12  H   UNL     1     -40.977  54.214 -51.923  1.00  0.00     0.279 HD
HETATM   13  H   UNL     1     -39.761  54.972 -52.685  1.00  0.00     0.279 HD
HETATM   14  C   UNL     1     -39.988  54.140 -55.101  1.00  0.00     0.046 C 
HETATM   15  C   UNL     1     -40.330  52.385 -53.386  1.00  0.00     0.046 C 
HETATM   16  C   UNL     1     -42.361  53.530 -54.317  1.00  0.00     0.063 C 
ENDBRANCH   1   5
BRANCH   2  17
HETATM   17  C   UNL     1     -43.148  57.089 -57.568  1.00  0.00     0.066 A 
HETATM   18  C   UNL     1     -43.381  56.256 -58.673  1.00  0.00     0.081 A 
HETATM   19  C   UNL     1     -43.128  56.703 -59.968  1.00  0.00     0.039 A 
HETATM   20  C   UNL     1     -42.612  57.983 -60.168  1.00  0.00     0.026 A 
HETATM   21  C   UNL     1     -42.345  58.801 -59.071  1.00  0.00     0.035 A 
HETATM   22 CL   UNL     1     -41.697  60.375 -59.316  1.00  0.00    -0.084 Cl
HETATM   23  C   UNL     1     -42.606  58.363 -57.771  1.00  0.00     0.043 A 
BRANCH  18  24
HETATM   24  O   UNL     1     -43.875  54.984 -58.553  1.00  0.00    -0.360 OA
HETATM   25  H   UNL     1     -44.784  54.974 -58.923  1.00  0.00     0.217 HD
ENDBRANCH  18  24
ENDBRANCH   2  17
TORSDOF 3
ENDMDL
MODEL 6
REMARK VINA RESULT:      -6.8     15.185     16.943
REMARK  3 active torsions:
REMARK  status: ('A' for Active; 'I' for Inactive)
REMARK    1  A    between atoms: C_11  and  N_12 
REMARK       I    between atoms: N_12  and  C_13 
REMARK    2  A    between atoms: C_13  and  C_14 
REMARK    3  A    between atoms: C_15  and  O_16 
ROOT
HETATM    1  N   UNL     1     -36.473  40.398 -55.104  1.00  0.00    -0.352 N 
HETATM    2  C   UNL     1     -36.243  39.697 -53.932  1.00  0.00     0.254 C 
HETATM    3  O   UNL     1     -36.669  38.568 -53.719  1.00  0.00    -0.268 OA
HETATM    4  H   UNL     1     -36.200  41.374 -55.098  1.00  0.00     0.163 HD
ENDROOT
BRANCH   1   5
HETATM    5  C   UNL     1     -37.437  39.985 -56.119  1.00  0.00     0.089 C 
HETATM    6  C   UNL     1     -37.101  38.722 -56.925  1.00  0.00     0.063 C 
HETATM    7  C   UNL     1     -35.936  38.863 -57.910  1.00  0.00     0.121 C 
HETATM    8  N   UNL     1     -36.155  40.094 -58.768  1.00  0.00    -0.059 N 
HETATM    9  C   UNL     1     -34.548  38.909 -57.263  1.00  0.00     0.046 C 
HETATM   10  C   UNL     1     -35.949  37.661 -58.878  1.00  0.00     0.046 C 
HETATM   11  C   UNL     1     -36.621  41.393 -58.144  1.00  0.00     0.121 C 
HETATM   12  H   UNL     1     -36.847  39.836 -59.486  1.00  0.00     0.279 HD
HETATM   13  H   UNL     1     -35.294  40.272 -59.307  1.00  0.00     0.279 HD
HETATM   14  C   UNL     1     -35.422  42.168 -57.583  1.00  0.00     0.046 C 
HETATM   15  C   UNL     1     -37.209  42.232 -59.298  1.00  0.00     0.046 C 
HETATM   16  C   UNL     1     -37.726  41.127 -57.103  1.00  0.00     0.063 C 
ENDBRANCH   1   5
BRANCH   2  17
HETATM   17  C   UNL     1     -35.319  40.313 -52.945  1.00  0.00     0.066 A 
HETATM   18  C   UNL     1     -35.594  41.608 -52.480  1.00  0.00     0.081 A 
HETATM   19  C   UNL     1     -34.805  42.192 -51.492  1.00  0.00     0.039 A 
HETATM   20  C   UNL     1     -33.712  41.494 -50.978  1.00  0.00     0.026 A 
HETATM   21  C   UNL     1     -33.414  40.221 -51.464  1.00  0.00     0.035 A 
HETATM   22 CL   UNL     1     -32.060  39.365 -50.840  1.00  0.00    -0.084 Cl
HETATM   23  C   UNL     1     -34.207  39.626 -52.446  1.00  0.00     0.043 A 
BRANCH  18  24
HETATM   24  O   UNL     1     -36.641  42.358 -52.946  1.00  0.00    -0.360 OA
HETATM   25  H   UNL     1     -37.078  41.855 -53.668  1.00  0.00     0.217 HD
ENDBRANCH  18  24
ENDBRANCH   2  17
TORSDOF 3
ENDMDL
MODEL 7
REMARK VINA RESULT:      -6.8      2.238      3.527
REMARK  3 active torsions:
REMARK  status: ('A' for Active; 'I' for Inactive)
REMARK    1  A    between atoms: C_11  and  N_12 
REMARK       I    between atoms: N_12  and  C_13 
REMARK    2  A    between atoms: C_13  and  C_14 
REMARK    3  A    between atoms: C_15  and  O_16 
ROOT
HETATM    1  N   UNL     1     -42.811  56.838 -52.890  1.00  0.00    -0.352 N 
HETATM    2  C   UNL     1     -43.079  55.734 -53.682  1.00  0.00     0.254 C 
HETATM    3  O   UNL     1     -44.091  55.615 -54.363  1.00  0.00    -0.268 OA
HETATM    4  H   UNL     1     -42.022  56.751 -52.260  1.00  0.00     0.163 HD
ENDROOT
BRANCH   1   5
HETATM    5  C   UNL     1     -43.792  57.875 -52.585  1.00  0.00     0.089 C 
HETATM    6  C   UNL     1     -44.147  58.852 -53.715  1.00  0.00     0.063 C 
HETATM    7  C   UNL     1     -43.040  59.838 -54.102  1.00  0.00     0.121 C 
HETATM    8  N   UNL     1     -42.518  60.517 -52.850  1.00  0.00    -0.059 N 
HETATM    9  C   UNL     1     -41.881  59.226 -54.895  1.00  0.00     0.046 C 
HETATM   10  C   UNL     1     -43.648  60.959 -54.972  1.00  0.00     0.046 C 
HETATM   11  C   UNL     1     -42.244  59.713 -51.597  1.00  0.00     0.121 C 
HETATM   12  H   UNL     1     -43.203  61.245 -52.600  1.00  0.00     0.279 HD
HETATM   13  H   UNL     1     -41.670  61.049 -53.098  1.00  0.00     0.279 HD
HETATM   14  C   UNL     1     -40.847  59.083 -51.670  1.00  0.00     0.046 C 
HETATM   15  C   UNL     1     -42.229  60.728 -50.435  1.00  0.00     0.046 C 
HETATM   16  C   UNL     1     -43.370  58.689 -51.354  1.00  0.00     0.063 C 
ENDBRANCH   1   5
BRANCH   2  17
HETATM   17  C   UNL     1     -42.013  54.708 -53.797  1.00  0.00     0.066 A 
HETATM   18  C   UNL     1     -41.358  54.551 -55.029  1.00  0.00     0.081 A 
HETATM   19  C   UNL     1     -40.295  53.661 -55.162  1.00  0.00     0.039 A 
HETATM   20  C   UNL     1     -39.892  52.898 -54.067  1.00  0.00     0.026 A 
HETATM   21  C   UNL     1     -40.563  53.023 -52.851  1.00  0.00     0.035 A 
HETATM   22 CL   UNL     1     -40.076  52.073 -51.503  1.00  0.00    -0.084 Cl
HETATM   23  C   UNL     1     -41.623  53.921 -52.708  1.00  0.00     0.043 A 
BRANCH  18  24
HETATM   24  O   UNL     1     -41.706  55.256 -56.150  1.00  0.00    -0.360 OA
HETATM   25  H   UNL     1     -42.408  55.897 -55.901  1.00  0.00     0.217 HD
ENDBRANCH  18  24
ENDBRANCH   2  17
TORSDOF 3
ENDMDL
MODEL 8
REMARK VINA RESULT:      -6.7      3.805      6.850
REMARK  3 active torsions:
REMARK  status: ('A' for Active; 'I' for Inactive)
REMARK    1  A    between atoms: C_11  and  N_12 
REMARK       I    between atoms: N_12  and  C_13 
REMARK    2  A    between atoms: C_13  and  C_14 
REMARK    3  A    between atoms: C_15  and  O_16 
ROOT
HETATM    1  N   UNL     1     -43.416  56.339 -52.072  1.00  0.00    -0.352 N 
HETATM    2  C   UNL     1     -44.337  57.068 -51.339  1.00  0.00     0.254 C 
HETATM    3  O   UNL     1     -45.053  56.582 -50.471  1.00  0.00    -0.268 OA
HETATM    4  H   UNL     1     -42.997  56.819 -52.860  1.00  0.00     0.163 HD
ENDROOT
BRANCH   1   5
HETATM    5  C   UNL     1     -43.351  54.881 -52.073  1.00  0.00     0.089 C 
HETATM    6  C   UNL     1     -42.638  54.215 -50.889  1.00  0.00     0.063 C 
HETATM    7  C   UNL     1     -41.119  54.406 -50.846  1.00  0.00     0.121 C 
HETATM    8  N   UNL     1     -40.532  54.039 -52.196  1.00  0.00    -0.059 N 
HETATM    9  C   UNL     1     -40.657  55.807 -50.432  1.00  0.00     0.046 C 
HETATM   10  C   UNL     1     -40.515  53.408 -49.834  1.00  0.00     0.046 C 
HETATM   11  C   UNL     1     -41.196  54.505 -53.474  1.00  0.00     0.121 C 
HETATM   12  H   UNL     1     -40.492  53.010 -52.231  1.00  0.00     0.279 HD
HETATM   13  H   UNL     1     -39.542  54.327 -52.209  1.00  0.00     0.279 HD
HETATM   14  C   UNL     1     -40.738  55.928 -53.817  1.00  0.00     0.046 C 
HETATM   15  C   UNL     1     -40.673  53.574 -54.588  1.00  0.00     0.046 C 
HETATM   16  C   UNL     1     -42.727  54.357 -53.374  1.00  0.00     0.063 C 
ENDBRANCH   1   5
BRANCH   2  17
HETATM   17  C   UNL     1     -44.351  58.539 -51.539  1.00  0.00     0.066 A 
HETATM   18  C   UNL     1     -45.089  59.335 -50.648  1.00  0.00     0.081 A 
HETATM   19  C   UNL     1     -45.062  60.724 -50.746  1.00  0.00     0.039 A 
HETATM   20  C   UNL     1     -44.318  61.331 -51.756  1.00  0.00     0.026 A 
HETATM   21  C   UNL     1     -43.613  60.544 -52.666  1.00  0.00     0.035 A 
HETATM   22 CL   UNL     1     -42.704  61.292 -53.919  1.00  0.00    -0.084 Cl
HETATM   23  C   UNL     1     -43.626  59.151 -52.567  1.00  0.00     0.043 A 
BRANCH  18  24
HETATM   24  O   UNL     1     -45.852  58.808 -49.640  1.00  0.00    -0.360 OA
HETATM   25  H   UNL     1     -46.738  58.597 -50.008  1.00  0.00     0.217 HD
ENDBRANCH  18  24
ENDBRANCH   2  17
TORSDOF 3
ENDMDL
MODEL 9
REMARK VINA RESULT:      -6.7      3.942      6.812
REMARK  3 active torsions:
REMARK  status: ('A' for Active; 'I' for Inactive)
REMARK    1  A    between atoms: C_11  and  N_12 
REMARK       I    between atoms: N_12  and  C_13 
REMARK    2  A    between atoms: C_13  and  C_14 
REMARK    3  A    between atoms: C_15  and  O_16 
ROOT
HETATM    1  N   UNL     1     -43.571  55.904 -52.240  1.00  0.00    -0.352 N 
HETATM    2  C   UNL     1     -44.405  56.905 -51.771  1.00  0.00     0.254 C 
HETATM    3  O   UNL     1     -44.913  56.899 -50.656  1.00  0.00    -0.268 OA
HETATM    4  H   UNL     1     -43.339  55.946 -53.226  1.00  0.00     0.163 HD
ENDROOT
BRANCH   1   5
HETATM    5  C   UNL     1     -43.387  54.621 -51.570  1.00  0.00     0.089 C 
HETATM    6  C   UNL     1     -42.753  54.650 -50.172  1.00  0.00     0.063 C 
HETATM    7  C   UNL     1     -41.269  55.024 -50.132  1.00  0.00     0.121 C 
HETATM    8  N   UNL     1     -40.511  54.166 -51.127  1.00  0.00    -0.059 N 
HETATM    9  C   UNL     1     -40.971  56.506 -50.379  1.00  0.00     0.046 C 
HETATM   10  C   UNL     1     -40.698  54.668 -48.742  1.00  0.00     0.046 C 
HETATM   11  C   UNL     1     -41.069  53.923 -52.514  1.00  0.00     0.121 C 
HETATM   12  H   UNL     1     -40.383  53.244 -50.686  1.00  0.00     0.279 HD
HETATM   13  H   UNL     1     -39.552  54.535 -51.213  1.00  0.00     0.279 HD
HETATM   14  C   UNL     1     -40.695  55.085 -53.443  1.00  0.00     0.046 C 
HETATM   15  C   UNL     1     -40.354  52.663 -53.045  1.00  0.00     0.046 C 
HETATM   16  C   UNL     1     -42.585  53.649 -52.447  1.00  0.00     0.063 C 
ENDBRANCH   1   5
BRANCH   2  17
HETATM   17  C   UNL     1     -44.576  58.103 -52.630  1.00  0.00     0.066 A 
HETATM   18  C   UNL     1     -44.982  57.926 -53.962  1.00  0.00     0.081 A 
HETATM   19  C   UNL     1     -45.237  59.024 -54.780  1.00  0.00     0.039 A 
HETATM   20  C   UNL     1     -45.061  60.314 -54.281  1.00  0.00     0.026 A 
HETATM   21  C   UNL     1     -44.622  60.494 -52.970  1.00  0.00     0.035 A 
HETATM   22 CL   UNL     1     -44.393  62.084 -52.356  1.00  0.00    -0.084 Cl
HETATM   23  C   UNL     1     -44.375  59.398 -52.141  1.00  0.00     0.043 A 
BRANCH  18  24
HETATM   24  O   UNL     1     -45.163  56.691 -54.525  1.00  0.00    -0.360 OA
HETATM   25  H   UNL     1     -45.577  56.816 -55.407  1.00  0.00     0.217 HD
ENDBRANCH  18  24
ENDBRANCH   2  17
TORSDOF 3
ENDMDL
MODEL 10
REMARK VINA RESULT:      -6.7      2.067      2.862
REMARK  3 active torsions:
REMARK  status: ('A' for Active; 'I' for Inactive)
REMARK    1  A    between atoms: C_11  and  N_12 
REMARK       I    between atoms: N_12  and  C_13 
REMARK    2  A    between atoms: C_13  and  C_14 
REMARK    3  A    between atoms: C_15  and  O_16 
ROOT
HETATM    1  N   UNL     1     -42.725  56.863 -52.123  1.00  0.00    -0.352 N 
HETATM    2  C   UNL     1     -42.832  55.556 -52.567  1.00  0.00     0.254 C 
HETATM    3  O   UNL     1     -43.680  55.177 -53.367  1.00  0.00    -0.268 OA
HETATM    4  H   UNL     1     -42.086  57.017 -51.351  1.00  0.00     0.163 HD
ENDROOT
BRANCH   1   5
HETATM    5  C   UNL     1     -43.737  57.886 -52.361  1.00  0.00     0.089 C 
HETATM    6  C   UNL     1     -43.607  58.708 -53.651  1.00  0.00     0.063 C 
HETATM    7  C   UNL     1     -42.430  59.687 -53.690  1.00  0.00     0.121 C 
HETATM    8  N   UNL     1     -42.441  60.530 -52.428  1.00  0.00    -0.059 N 
HETATM    9  C   UNL     1     -41.057  59.035 -53.878  1.00  0.00     0.046 C 
HETATM   10  C   UNL     1     -42.634  60.671 -54.861  1.00  0.00     0.046 C 
HETATM   11  C   UNL     1     -42.693  59.891 -51.079  1.00  0.00     0.121 C 
HETATM   12  H   UNL     1     -43.163  61.253 -52.562  1.00  0.00     0.279 HD
HETATM   13  H   UNL     1     -41.560  61.064 -52.386  1.00  0.00     0.279 HD
HETATM   14  C   UNL     1     -41.387  59.316 -50.517  1.00  0.00     0.046 C 
HETATM   15  C   UNL     1     -43.131  61.035 -50.142  1.00  0.00     0.046 C 
HETATM   16  C   UNL     1     -43.832  58.856 -51.174  1.00  0.00     0.063 C 
ENDBRANCH   1   5
BRANCH   2  17
HETATM   17  C   UNL     1     -41.775  54.605 -52.140  1.00  0.00     0.066 A 
HETATM   18  C   UNL     1     -41.390  54.586 -50.790  1.00  0.00     0.081 A 
HETATM   19  C   UNL     1     -40.464  53.654 -50.327  1.00  0.00     0.039 A 
HETATM   20  C   UNL     1     -39.892  52.748 -51.219  1.00  0.00     0.026 A 
HETATM   21  C   UNL     1     -40.243  52.787 -52.567  1.00  0.00     0.035 A 
HETATM   22 CL   UNL     1     -39.528  51.678 -53.670  1.00  0.00    -0.084 Cl
HETATM   23  C   UNL     1     -41.178  53.712 -53.036  1.00  0.00     0.043 A 
BRANCH  18  24
HETATM   24  O   UNL     1     -41.900  55.453 -49.861  1.00  0.00    -0.360 OA
HETATM   25  H   UNL     1     -42.787  55.125 -49.593  1.00  0.00     0.217 HD
ENDBRANCH  18  24
ENDBRANCH   2  17
TORSDOF 3
ENDMDL
