MODEL 1
REMARK VINA RESULT:      -9.0      0.000      0.000
REMARK  5 active torsions:
REMARK  status: ('A' for Active; 'I' for Inactive)
REMARK    1  A    between atoms: C_3  and  O_4 
REMARK    2  A    between atoms: C_6  and  N_7 
REMARK       I    between atoms: N_7  and  C_8 
REMARK    3  A    between atoms: C_8  and  C_9 
REMARK    4  A    between atoms: C_14  and  C_15 
REMARK    5  A    between atoms: C_23  and  C_24 
ROOT
HETATM    1  C   UNL     1     -42.477  57.311 -57.552  1.00  0.00     0.148 A 
HETATM    2  N   UNL     1     -42.368  57.921 -56.348  1.00  0.00    -0.165 NA
HETATM    3  N   UNL     1     -42.638  56.932 -55.473  1.00  0.00    -0.240 N 
HETATM    4  C   UNL     1     -43.004  55.755 -56.061  1.00  0.00     0.123 A 
HETATM    5  N   UNL     1     -43.383  54.682 -55.337  1.00  0.00    -0.366 N 
HETATM    6  C   UNL     1     -43.322  54.657 -53.881  1.00  0.00     0.118 C 
HETATM    7  C   UNL     1     -43.422  56.081 -53.302  1.00  0.00     0.066 C 
HETATM    8  C   UNL     1     -42.581  57.141 -54.039  1.00  0.00     0.221 C 
HETATM    9  C   UNL     1     -42.886  55.957 -57.410  1.00  0.00     0.089 A 
HETATM   10  H   UNL     1     -43.547  53.781 -55.783  1.00  0.00     0.161 HD
ENDROOT
BRANCH   1  11
HETATM   11  C   UNL     1     -42.198  58.012 -58.820  1.00  0.00     0.276 C 
HETATM   12  N   UNL     1     -42.074  59.375 -58.637  1.00  0.00    -0.322 N 
HETATM   13  H   UNL     1     -42.224  59.669 -57.676  1.00  0.00     0.169 HD
HETATM   14  O   UNL     1     -42.105  57.400 -59.876  1.00  0.00    -0.266 OA
BRANCH  12  15
HETATM   15  C   UNL     1     -41.776  60.360 -59.595  1.00  0.00     0.037 A 
HETATM   16  C   UNL     1     -42.058  60.234 -60.957  1.00  0.00     0.066 A 
HETATM   17  C   UNL     1     -41.712  61.257 -61.837  1.00  0.00     0.067 A 
HETATM   18  C   UNL     1     -41.094  62.418 -61.384  1.00  0.00     0.036 A 
HETATM   19  C   UNL     1     -40.813  62.553 -60.027  1.00  0.00     0.005 A 
HETATM   20  C   UNL     1     -41.149  61.527 -59.137  1.00  0.00     0.029 A 
BRANCH  17  21
HETATM   21  O   UNL     1     -41.996  61.080 -63.160  1.00  0.00    -0.361 OA
HETATM   22  H   UNL     1     -41.912  60.137 -63.375  1.00  0.00     0.217 HD
ENDBRANCH  17  21
ENDBRANCH  12  15
ENDBRANCH   1  11
BRANCH   8  23
HETATM   23  C   UNL     1     -41.142  57.210 -53.579  1.00  0.00     0.409 C 
HETATM   24  F   UNL     1     -40.331  56.325 -54.187  1.00  0.00    -0.169 F 
HETATM   25  F   UNL     1     -40.612  58.442 -53.768  1.00  0.00    -0.169 F 
HETATM   26  F   UNL     1     -41.068  56.970 -52.244  1.00  0.00    -0.169 F 
ENDBRANCH   8  23
BRANCH   6  27
HETATM   27  C   UNL     1     -42.165  53.822 -53.357  1.00  0.00    -0.035 A 
HETATM   28  C   UNL     1     -41.780  53.813 -52.004  1.00  0.00     0.012 A 
HETATM   29  C   UNL     1     -40.692  53.051 -51.571  1.00  0.00     0.043 A 
HETATM   30  C   UNL     1     -39.973  52.300 -52.490  1.00  0.00     0.116 A 
HETATM   31  F   UNL     1     -38.925  51.576 -52.077  1.00  0.00    -0.206 F 
HETATM   32  C   UNL     1     -40.323  52.293 -53.832  1.00  0.00     0.043 A 
HETATM   33  C   UNL     1     -41.415  53.049 -54.265  1.00  0.00     0.012 A 
ENDBRANCH   6  27
TORSDOF 5
ENDMDL
MODEL 2
REMARK VINA RESULT:      -8.8      5.721      7.361
REMARK  5 active torsions:
REMARK  status: ('A' for Active; 'I' for Inactive)
REMARK    1  A    between atoms: C_3  and  O_4 
REMARK    2  A    between atoms: C_6  and  N_7 
REMARK       I    between atoms: N_7  and  C_8 
REMARK    3  A    between atoms: C_8  and  C_9 
REMARK    4  A    between atoms: C_14  and  C_15 
REMARK    5  A    between atoms: C_23  and  C_24 
ROOT
HETATM    1  C   UNL     1     -42.047  58.495 -51.392  1.00  0.00     0.148 A 
HETATM    2  N   UNL     1     -43.104  57.649 -51.380  1.00  0.00    -0.165 NA
HETATM    3  N   UNL     1     -42.694  56.628 -52.156  1.00  0.00    -0.240 N 
HETATM    4  C   UNL     1     -41.473  56.826 -52.735  1.00  0.00     0.123 A 
HETATM    5  N   UNL     1     -40.941  55.940 -53.603  1.00  0.00    -0.366 N 
HETATM    6  C   UNL     1     -41.570  54.659 -53.900  1.00  0.00     0.118 C 
HETATM    7  C   UNL     1     -43.091  54.725 -53.664  1.00  0.00     0.066 C 
HETATM    8  C   UNL     1     -43.517  55.453 -52.375  1.00  0.00     0.221 C 
HETATM    9  C   UNL     1     -41.013  58.016 -52.241  1.00  0.00     0.089 A 
HETATM   10  H   UNL     1     -39.986  56.047 -53.940  1.00  0.00     0.161 HD
ENDROOT
BRANCH   1  11
HETATM   11  C   UNL     1     -42.027  59.745 -50.609  1.00  0.00     0.276 C 
HETATM   12  N   UNL     1     -43.293  60.274 -50.451  1.00  0.00    -0.322 N 
HETATM   13  H   UNL     1     -44.017  59.736 -50.922  1.00  0.00     0.169 HD
HETATM   14  O   UNL     1     -40.978  60.210 -50.181  1.00  0.00    -0.266 OA
BRANCH  12  15
HETATM   15  C   UNL     1     -43.676  61.425 -49.741  1.00  0.00     0.037 A 
HETATM   16  C   UNL     1     -44.476  61.404 -48.596  1.00  0.00     0.066 A 
HETATM   17  C   UNL     1     -44.818  62.599 -47.964  1.00  0.00     0.067 A 
HETATM   18  C   UNL     1     -44.369  63.823 -48.448  1.00  0.00     0.036 A 
HETATM   19  C   UNL     1     -43.568  63.851 -49.587  1.00  0.00     0.005 A 
HETATM   20  C   UNL     1     -43.227  62.658 -50.232  1.00  0.00     0.029 A 
BRANCH  17  21
HETATM   21  O   UNL     1     -45.613  62.526 -46.858  1.00  0.00    -0.361 OA
HETATM   22  H   UNL     1     -45.569  61.625 -46.499  1.00  0.00     0.217 HD
ENDBRANCH  17  21
ENDBRANCH  12  15
ENDBRANCH   1  11
BRANCH   8  23
HETATM   23  C   UNL     1     -43.509  54.574 -51.145  1.00  0.00     0.409 C 
HETATM   24  F   UNL     1     -43.534  53.256 -51.413  1.00  0.00    -0.169 F 
HETATM   25  F   UNL     1     -42.425  54.808 -50.366  1.00  0.00    -0.169 F 
HETATM   26  F   UNL     1     -44.592  54.846 -50.372  1.00  0.00    -0.169 F 
ENDBRANCH   8  23
BRANCH   6  27
HETATM   27  C   UNL     1     -40.860  53.490 -53.237  1.00  0.00    -0.035 A 
HETATM   28  C   UNL     1     -40.343  53.551 -51.930  1.00  0.00     0.012 A 
HETATM   29  C   UNL     1     -39.673  52.461 -51.370  1.00  0.00     0.043 A 
HETATM   30  C   UNL     1     -39.505  51.303 -52.116  1.00  0.00     0.116 A 
HETATM   31  F   UNL     1     -38.855  50.260 -51.582  1.00  0.00    -0.206 F 
HETATM   32  C   UNL     1     -39.997  51.214 -53.410  1.00  0.00     0.043 A 
HETATM   33  C   UNL     1     -40.673  52.301 -53.969  1.00  0.00     0.012 A 
ENDBRANCH   6  27
TORSDOF 5
ENDMDL
MODEL 3
REMARK VINA RESULT:      -8.7      5.512      9.052
REMARK  5 active torsions:
REMARK  status: ('A' for Active; 'I' for Inactive)
REMARK    1  A    between atoms: C_3  and  O_4 
REMARK    2  A    between atoms: C_6  and  N_7 
REMARK       I    between atoms: N_7  and  C_8 
REMARK    3  A    between atoms: C_8  and  C_9 
REMARK    4  A    between atoms: C_14  and  C_15 
REMARK    5  A    between atoms: C_23  and  C_24 
ROOT
HETATM    1  C   UNL     1     -42.259  55.605 -52.422  1.00  0.00     0.148 A 
HETATM    2  N   UNL     1     -41.202  56.447 -52.354  1.00  0.00    -0.165 NA
HETATM    3  N   UNL     1     -41.769  57.666 -52.452  1.00  0.00    -0.240 N 
HETATM    4  C   UNL     1     -43.116  57.635 -52.674  1.00  0.00     0.123 A 
HETATM    5  N   UNL     1     -43.833  58.761 -52.873  1.00  0.00    -0.366 N 
HETATM    6  C   UNL     1     -43.252  60.092 -52.755  1.00  0.00     0.118 C 
HETATM    7  C   UNL     1     -41.736  60.057 -53.029  1.00  0.00     0.066 C 
HETATM    8  C   UNL     1     -40.985  58.884 -52.371  1.00  0.00     0.221 C 
HETATM    9  C   UNL     1     -43.472  56.315 -52.634  1.00  0.00     0.089 A 
HETATM   10  H   UNL     1     -44.850  58.731 -52.927  1.00  0.00     0.161 HD
ENDROOT
BRANCH   1  11
HETATM   11  C   UNL     1     -42.113  54.142 -52.290  1.00  0.00     0.276 C 
HETATM   12  N   UNL     1     -40.966  53.683 -52.907  1.00  0.00    -0.322 N 
HETATM   13  H   UNL     1     -40.435  54.416 -53.369  1.00  0.00     0.169 HD
HETATM   14  O   UNL     1     -42.949  53.472 -51.697  1.00  0.00    -0.266 OA
BRANCH  12  15
HETATM   15  C   UNL     1     -40.472  52.368 -52.962  1.00  0.00     0.037 A 
HETATM   16  C   UNL     1     -39.983  51.672 -51.854  1.00  0.00     0.066 A 
HETATM   17  C   UNL     1     -39.498  50.374 -52.005  1.00  0.00     0.067 A 
HETATM   18  C   UNL     1     -39.500  49.745 -53.246  1.00  0.00     0.036 A 
HETATM   19  C   UNL     1     -39.991  50.431 -54.354  1.00  0.00     0.005 A 
HETATM   20  C   UNL     1     -40.470  51.737 -54.213  1.00  0.00     0.029 A 
BRANCH  17  21
HETATM   21  O   UNL     1     -39.018  49.742 -50.895  1.00  0.00    -0.361 OA
HETATM   22  H   UNL     1     -38.540  50.388 -50.349  1.00  0.00     0.217 HD
ENDBRANCH  17  21
ENDBRANCH  12  15
ENDBRANCH   1  11
BRANCH   8  23
HETATM   23  C   UNL     1     -40.575  59.145 -50.940  1.00  0.00     0.409 C 
HETATM   24  F   UNL     1     -39.399  58.590 -50.596  1.00  0.00    -0.169 F 
HETATM   25  F   UNL     1     -40.489  60.471 -50.676  1.00  0.00    -0.169 F 
HETATM   26  F   UNL     1     -41.513  58.654 -50.089  1.00  0.00    -0.169 F 
ENDBRANCH   8  23
BRANCH   6  27
HETATM   27  C   UNL     1     -43.664  60.800 -51.475  1.00  0.00    -0.035 A 
HETATM   28  C   UNL     1     -43.186  62.074 -51.118  1.00  0.00     0.012 A 
HETATM   29  C   UNL     1     -43.571  62.675 -49.917  1.00  0.00     0.043 A 
HETATM   30  C   UNL     1     -44.430  62.005 -49.059  1.00  0.00     0.116 A 
HETATM   31  F   UNL     1     -44.793  62.578 -47.904  1.00  0.00    -0.206 F 
HETATM   32  C   UNL     1     -44.915  60.745 -49.380  1.00  0.00     0.043 A 
HETATM   33  C   UNL     1     -44.535  60.145 -50.583  1.00  0.00     0.012 A 
ENDBRANCH   6  27
TORSDOF 5
ENDMDL
MODEL 4
REMARK VINA RESULT:      -8.6      1.110      1.593
REMARK  5 active torsions:
REMARK  status: ('A' for Active; 'I' for Inactive)
REMARK    1  A    between atoms: C_3  and  O_4 
REMARK    2  A    between atoms: C_6  and  N_7 
REMARK       I    between atoms: N_7  and  C_8 
REMARK    3  A    between atoms: C_8  and  C_9 
REMARK    4  A    between atoms: C_14  and  C_15 
REMARK    5  A    between atoms: C_23  and  C_24 
ROOT
HETATM    1  C   UNL     1     -43.268  58.287 -56.480  1.00  0.00     0.148 A 
HETATM    2  N   UNL     1     -42.913  58.620 -55.217  1.00  0.00    -0.165 NA
HETATM    3  N   UNL     1     -43.019  57.456 -54.547  1.00  0.00    -0.240 N 
HETATM    4  C   UNL     1     -43.511  56.427 -55.297  1.00  0.00     0.123 A 
HETATM    5  N   UNL     1     -43.755  55.210 -54.768  1.00  0.00    -0.366 N 
HETATM    6  C   UNL     1     -43.406  54.868 -53.395  1.00  0.00     0.118 C 
HETATM    7  C   UNL     1     -43.367  56.126 -52.507  1.00  0.00     0.066 C 
HETATM    8  C   UNL     1     -42.674  57.347 -53.142  1.00  0.00     0.221 C 
HETATM    9  C   UNL     1     -43.660  56.923 -56.563  1.00  0.00     0.089 A 
HETATM   10  H   UNL     1     -44.017  54.424 -55.361  1.00  0.00     0.161 HD
ENDROOT
BRANCH   1  11
HETATM   11  C   UNL     1     -43.236  59.258 -57.591  1.00  0.00     0.276 C 
HETATM   12  N   UNL     1     -41.968  59.766 -57.795  1.00  0.00    -0.322 N 
HETATM   13  H   UNL     1     -41.281  59.413 -57.133  1.00  0.00     0.169 HD
HETATM   14  O   UNL     1     -44.251  59.540 -58.216  1.00  0.00    -0.266 OA
BRANCH  12  15
HETATM   15  C   UNL     1     -41.541  60.677 -58.775  1.00  0.00     0.037 A 
HETATM   16  C   UNL     1     -41.786  60.525 -60.141  1.00  0.00     0.066 A 
HETATM   17  C   UNL     1     -41.311  61.474 -61.045  1.00  0.00     0.067 A 
HETATM   18  C   UNL     1     -40.597  62.587 -60.611  1.00  0.00     0.036 A 
HETATM   19  C   UNL     1     -40.352  62.747 -59.249  1.00  0.00     0.005 A 
HETATM   20  C   UNL     1     -40.818  61.795 -58.337  1.00  0.00     0.029 A 
BRANCH  17  21
HETATM   21  O   UNL     1     -41.565  61.272 -62.370  1.00  0.00    -0.361 OA
HETATM   22  H   UNL     1     -40.958  61.821 -62.893  1.00  0.00     0.217 HD
ENDBRANCH  17  21
ENDBRANCH  12  15
ENDBRANCH   1  11
BRANCH   8  23
HETATM   23  C   UNL     1     -41.172  57.355 -52.972  1.00  0.00     0.409 C 
HETATM   24  F   UNL     1     -40.619  58.580 -53.043  1.00  0.00    -0.169 F 
HETATM   25  F   UNL     1     -40.797  56.811 -51.789  1.00  0.00    -0.169 F 
HETATM   26  F   UNL     1     -40.589  56.596 -53.936  1.00  0.00    -0.169 F 
ENDBRANCH   8  23
BRANCH   6  27
HETATM   27  C   UNL     1     -42.180  53.973 -53.307  1.00  0.00    -0.035 A 
HETATM   28  C   UNL     1     -41.600  53.358 -54.431  1.00  0.00     0.012 A 
HETATM   29  C   UNL     1     -40.490  52.520 -54.300  1.00  0.00     0.043 A 
HETATM   30  C   UNL     1     -39.956  52.283 -53.042  1.00  0.00     0.116 A 
HETATM   31  F   UNL     1     -38.896  51.474 -52.915  1.00  0.00    -0.206 F 
HETATM   32  C   UNL     1     -40.508  52.870 -51.913  1.00  0.00     0.043 A 
HETATM   33  C   UNL     1     -41.615  53.712 -52.043  1.00  0.00     0.012 A 
ENDBRANCH   6  27
TORSDOF 5
ENDMDL
MODEL 5
REMARK VINA RESULT:      -8.6      3.691      8.797
REMARK  5 active torsions:
REMARK  status: ('A' for Active; 'I' for Inactive)
REMARK    1  A    between atoms: C_3  and  O_4 
REMARK    2  A    between atoms: C_6  and  N_7 
REMARK       I    between atoms: N_7  and  C_8 
REMARK    3  A    between atoms: C_8  and  C_9 
REMARK    4  A    between atoms: C_14  and  C_15 
REMARK    5  A    between atoms: C_23  and  C_24 
ROOT
HETATM    1  C   UNL     1     -43.189  56.268 -55.968  1.00  0.00     0.148 A 
HETATM    2  N   UNL     1     -43.243  56.043 -57.302  1.00  0.00    -0.165 NA
HETATM    3  N   UNL     1     -43.414  57.276 -57.819  1.00  0.00    -0.240 N 
HETATM    4  C   UNL     1     -43.565  58.256 -56.880  1.00  0.00     0.123 A 
HETATM    5  N   UNL     1     -43.822  59.536 -57.218  1.00  0.00    -0.366 N 
HETATM    6  C   UNL     1     -43.843  59.993 -58.602  1.00  0.00     0.118 C 
HETATM    7  C   UNL     1     -44.187  58.835 -59.557  1.00  0.00     0.066 C 
HETATM    8  C   UNL     1     -43.472  57.505 -59.250  1.00  0.00     0.221 C 
HETATM    9  C   UNL     1     -43.400  57.642 -55.668  1.00  0.00     0.089 A 
HETATM   10  H   UNL     1     -43.823  60.273 -56.514  1.00  0.00     0.161 HD
ENDROOT
BRANCH   1  11
HETATM   11  C   UNL     1     -42.944  55.187 -54.995  1.00  0.00     0.276 C 
HETATM   12  N   UNL     1     -41.600  54.894 -54.879  1.00  0.00    -0.322 N 
HETATM   13  H   UNL     1     -41.012  55.445 -55.499  1.00  0.00     0.169 HD
HETATM   14  O   UNL     1     -43.869  54.650 -54.397  1.00  0.00    -0.266 OA
BRANCH  12  15
HETATM   15  C   UNL     1     -40.981  53.958 -54.033  1.00  0.00     0.037 A 
HETATM   16  C   UNL     1     -40.481  52.728 -54.465  1.00  0.00     0.066 A 
HETATM   17  C   UNL     1     -39.895  51.854 -53.551  1.00  0.00     0.067 A 
HETATM   18  C   UNL     1     -39.787  52.187 -52.205  1.00  0.00     0.036 A 
HETATM   19  C   UNL     1     -40.280  53.414 -51.767  1.00  0.00     0.005 A 
HETATM   20  C   UNL     1     -40.878  54.293 -52.676  1.00  0.00     0.029 A 
BRANCH  17  21
HETATM   21  O   UNL     1     -39.435  50.658 -54.021  1.00  0.00    -0.361 OA
HETATM   22  H   UNL     1     -39.158  50.111 -53.268  1.00  0.00     0.217 HD
ENDBRANCH  17  21
ENDBRANCH  12  15
ENDBRANCH   1  11
BRANCH   8  23
HETATM   23  C   UNL     1     -42.089  57.401 -59.852  1.00  0.00     0.409 C 
HETATM   24  F   UNL     1     -41.725  56.147 -60.175  1.00  0.00    -0.169 F 
HETATM   25  F   UNL     1     -41.968  58.157 -60.969  1.00  0.00    -0.169 F 
HETATM   26  F   UNL     1     -41.163  57.874 -58.977  1.00  0.00    -0.169 F 
ENDBRANCH   8  23
BRANCH   6  27
HETATM   27  C   UNL     1     -42.607  60.796 -58.973  1.00  0.00    -0.035 A 
HETATM   28  C   UNL     1     -41.614  61.147 -58.040  1.00  0.00     0.012 A 
HETATM   29  C   UNL     1     -40.508  61.911 -58.419  1.00  0.00     0.043 A 
HETATM   30  C   UNL     1     -40.390  62.339 -59.734  1.00  0.00     0.116 A 
HETATM   31  F   UNL     1     -39.334  63.078 -60.096  1.00  0.00    -0.206 F 
HETATM   32  C   UNL     1     -41.355  62.015 -60.677  1.00  0.00     0.043 A 
HETATM   33  C   UNL     1     -42.458  61.246 -60.299  1.00  0.00     0.012 A 
ENDBRANCH   6  27
TORSDOF 5
ENDMDL
MODEL 6
REMARK VINA RESULT:      -8.5      5.389      7.687
REMARK  5 active torsions:
REMARK  status: ('A' for Active; 'I' for Inactive)
REMARK    1  A    between atoms: C_3  and  O_4 
REMARK    2  A    between atoms: C_6  and  N_7 
REMARK       I    between atoms: N_7  and  C_8 
REMARK    3  A    between atoms: C_8  and  C_9 
REMARK    4  A    between atoms: C_14  and  C_15 
REMARK    5  A    between atoms: C_23  and  C_24 
ROOT
HETATM    1  C   UNL     1     -44.065  58.088 -51.687  1.00  0.00     0.148 A 
HETATM    2  N   UNL     1     -44.435  57.548 -52.872  1.00  0.00    -0.165 NA
HETATM    3  N   UNL     1     -43.307  56.957 -53.311  1.00  0.00    -0.240 N 
HETATM    4  C   UNL     1     -42.220  57.175 -52.514  1.00  0.00     0.123 A 
HETATM    5  N   UNL     1     -40.992  56.722 -52.841  1.00  0.00    -0.366 N 
HETATM    6  C   UNL     1     -40.752  55.874 -54.001  1.00  0.00     0.118 C 
HETATM    7  C   UNL     1     -41.828  56.102 -55.080  1.00  0.00     0.066 C 
HETATM    8  C   UNL     1     -43.270  56.201 -54.548  1.00  0.00     0.221 C 
HETATM    9  C   UNL     1     -42.680  57.883 -51.437  1.00  0.00     0.089 A 
HETATM   10  H   UNL     1     -40.215  56.796 -52.185  1.00  0.00     0.161 HD
ENDROOT
BRANCH   1  11
HETATM   11  C   UNL     1     -45.017  58.793 -50.808  1.00  0.00     0.276 C 
HETATM   12  N   UNL     1     -44.491  59.972 -50.319  1.00  0.00    -0.322 N 
HETATM   13  H   UNL     1     -43.534  60.142 -50.618  1.00  0.00     0.169 HD
HETATM   14  O   UNL     1     -46.127  58.330 -50.575  1.00  0.00    -0.266 OA
BRANCH  12  15
HETATM   15  C   UNL     1     -45.107  60.924 -49.489  1.00  0.00     0.037 A 
HETATM   16  C   UNL     1     -44.813  61.082 -48.133  1.00  0.00     0.066 A 
HETATM   17  C   UNL     1     -45.485  62.045 -47.381  1.00  0.00     0.067 A 
HETATM   18  C   UNL     1     -46.447  62.867 -47.960  1.00  0.00     0.036 A 
HETATM   19  C   UNL     1     -46.742  62.717 -49.313  1.00  0.00     0.005 A 
HETATM   20  C   UNL     1     -46.079  61.748 -50.072  1.00  0.00     0.029 A 
BRANCH  17  21
HETATM   21  O   UNL     1     -45.172  62.150 -46.058  1.00  0.00    -0.361 OA
HETATM   22  H   UNL     1     -45.188  61.264 -45.660  1.00  0.00     0.217 HD
ENDBRANCH  17  21
ENDBRANCH  12  15
ENDBRANCH   1  11
BRANCH   8  23
HETATM   23  C   UNL     1     -43.946  54.862 -54.360  1.00  0.00     0.409 C 
HETATM   24  F   UNL     1     -45.289  54.910 -54.435  1.00  0.00    -0.169 F 
HETATM   25  F   UNL     1     -43.523  53.952 -55.271  1.00  0.00    -0.169 F 
HETATM   26  F   UNL     1     -43.631  54.347 -53.143  1.00  0.00    -0.169 F 
ENDBRANCH   8  23
BRANCH   6  27
HETATM   27  C   UNL     1     -40.506  54.422 -53.626  1.00  0.00    -0.035 A 
HETATM   28  C   UNL     1     -40.445  53.976 -52.293  1.00  0.00     0.012 A 
HETATM   29  C   UNL     1     -40.188  52.637 -51.993  1.00  0.00     0.043 A 
HETATM   30  C   UNL     1     -39.982  51.731 -53.024  1.00  0.00     0.116 A 
HETATM   31  F   UNL     1     -39.728  50.448 -52.737  1.00  0.00    -0.206 F 
HETATM   32  C   UNL     1     -40.029  52.140 -54.349  1.00  0.00     0.043 A 
HETATM   33  C   UNL     1     -40.291  53.478 -54.650  1.00  0.00     0.012 A 
ENDBRANCH   6  27
TORSDOF 5
ENDMDL
MODEL 7
REMARK VINA RESULT:      -8.4      4.780      8.863
REMARK  5 active torsions:
REMARK  status: ('A' for Active; 'I' for Inactive)
REMARK    1  A    between atoms: C_3  and  O_4 
REMARK    2  A    between atoms: C_6  and  N_7 
REMARK       I    between atoms: N_7  and  C_8 
REMARK    3  A    between atoms: C_8  and  C_9 
REMARK    4  A    between atoms: C_14  and  C_15 
REMARK    5  A    between atoms: C_23  and  C_24 
ROOT
HETATM    1  C   UNL     1     -41.010  55.806 -53.385  1.00  0.00     0.148 A 
HETATM    2  N   UNL     1     -41.722  56.011 -52.252  1.00  0.00    -0.165 NA
HETATM    3  N   UNL     1     -41.973  57.334 -52.277  1.00  0.00    -0.240 N 
HETATM    4  C   UNL     1     -41.379  57.993 -53.316  1.00  0.00     0.123 A 
HETATM    5  N   UNL     1     -41.461  59.332 -53.453  1.00  0.00    -0.366 N 
HETATM    6  C   UNL     1     -42.279  60.162 -52.578  1.00  0.00     0.118 C 
HETATM    7  C   UNL     1     -42.467  59.492 -51.204  1.00  0.00     0.066 C 
HETATM    8  C   UNL     1     -42.772  57.982 -51.254  1.00  0.00     0.221 C 
HETATM    9  C   UNL     1     -40.766  57.028 -54.069  1.00  0.00     0.089 A 
HETATM   10  H   UNL     1     -41.107  59.795 -54.289  1.00  0.00     0.161 HD
ENDROOT
BRANCH   1  11
HETATM   11  C   UNL     1     -40.565  54.464 -53.806  1.00  0.00     0.276 C 
HETATM   12  N   UNL     1     -40.516  53.582 -52.745  1.00  0.00    -0.322 N 
HETATM   13  H   UNL     1     -40.763  54.007 -51.855  1.00  0.00     0.169 HD
HETATM   14  O   UNL     1     -40.282  54.227 -54.973  1.00  0.00    -0.266 OA
BRANCH  12  15
HETATM   15  C   UNL     1     -40.178  52.218 -52.759  1.00  0.00     0.037 A 
HETATM   16  C   UNL     1     -40.194  51.423 -53.907  1.00  0.00     0.066 A 
HETATM   17  C   UNL     1     -39.857  50.073 -53.824  1.00  0.00     0.067 A 
HETATM   18  C   UNL     1     -39.492  49.495 -52.612  1.00  0.00     0.036 A 
HETATM   19  C   UNL     1     -39.470  50.283 -51.464  1.00  0.00     0.005 A 
HETATM   20  C   UNL     1     -39.816  51.636 -51.536  1.00  0.00     0.029 A 
BRANCH  17  21
HETATM   21  O   UNL     1     -39.901  49.336 -54.972  1.00  0.00    -0.361 OA
HETATM   22  H   UNL     1     -39.126  48.752 -54.999  1.00  0.00     0.217 HD
ENDBRANCH  17  21
ENDBRANCH  12  15
ENDBRANCH   1  11
BRANCH   8  23
HETATM   23  C   UNL     1     -44.235  57.660 -51.453  1.00  0.00     0.409 C 
HETATM   24  F   UNL     1     -44.593  57.508 -52.741  1.00  0.00    -0.169 F 
HETATM   25  F   UNL     1     -44.595  56.530 -50.798  1.00  0.00    -0.169 F 
HETATM   26  F   UNL     1     -45.006  58.653 -50.937  1.00  0.00    -0.169 F 
ENDBRANCH   8  23
BRANCH   6  27
HETATM   27  C   UNL     1     -43.556  60.640 -53.249  1.00  0.00    -0.035 A 
HETATM   28  C   UNL     1     -44.495  61.467 -52.605  1.00  0.00     0.012 A 
HETATM   29  C   UNL     1     -45.670  61.859 -53.251  1.00  0.00     0.043 A 
HETATM   30  C   UNL     1     -45.920  61.421 -54.543  1.00  0.00     0.116 A 
HETATM   31  F   UNL     1     -47.051  61.790 -55.160  1.00  0.00    -0.206 F 
HETATM   32  C   UNL     1     -45.017  60.599 -55.203  1.00  0.00     0.043 A 
HETATM   33  C   UNL     1     -43.840  60.211 -54.560  1.00  0.00     0.012 A 
ENDBRANCH   6  27
TORSDOF 5
ENDMDL
MODEL 8
REMARK VINA RESULT:      -8.3      1.813      2.268
REMARK  5 active torsions:
REMARK  status: ('A' for Active; 'I' for Inactive)
REMARK    1  A    between atoms: C_3  and  O_4 
REMARK    2  A    between atoms: C_6  and  N_7 
REMARK       I    between atoms: N_7  and  C_8 
REMARK    3  A    between atoms: C_8  and  C_9 
REMARK    4  A    between atoms: C_14  and  C_15 
REMARK    5  A    between atoms: C_23  and  C_24 
ROOT
HETATM    1  C   UNL     1     -43.491  58.154 -55.383  1.00  0.00     0.148 A 
HETATM    2  N   UNL     1     -43.080  58.525 -54.148  1.00  0.00    -0.165 NA
HETATM    3  N   UNL     1     -43.141  57.379 -53.442  1.00  0.00    -0.240 N 
HETATM    4  C   UNL     1     -43.657  56.324 -54.139  1.00  0.00     0.123 A 
HETATM    5  N   UNL     1     -43.861  55.120 -53.566  1.00  0.00    -0.366 N 
HETATM    6  C   UNL     1     -43.443  54.820 -52.203  1.00  0.00     0.118 C 
HETATM    7  C   UNL     1     -43.376  56.102 -51.353  1.00  0.00     0.066 C 
HETATM    8  C   UNL     1     -42.728  57.312 -52.053  1.00  0.00     0.221 C 
HETATM    9  C   UNL     1     -43.872  56.784 -55.410  1.00  0.00     0.089 A 
HETATM   10  H   UNL     1     -44.143  54.316 -54.124  1.00  0.00     0.161 HD
ENDROOT
BRANCH   1  11
HETATM   11  C   UNL     1     -43.524  59.093 -56.520  1.00  0.00     0.276 C 
HETATM   12  N   UNL     1     -42.271  59.279 -57.070  1.00  0.00    -0.322 N 
HETATM   13  H   UNL     1     -41.538  58.766 -56.587  1.00  0.00     0.169 HD
HETATM   14  O   UNL     1     -44.571  59.618 -56.880  1.00  0.00    -0.266 OA
BRANCH  12  15
HETATM   15  C   UNL     1     -41.913  60.065 -58.179  1.00  0.00     0.037 A 
HETATM   16  C   UNL     1     -41.280  61.306 -58.082  1.00  0.00     0.066 A 
HETATM   17  C   UNL     1     -40.975  62.024 -59.238  1.00  0.00     0.067 A 
HETATM   18  C   UNL     1     -41.282  61.522 -60.499  1.00  0.00     0.036 A 
HETATM   19  C   UNL     1     -41.909  60.283 -60.603  1.00  0.00     0.005 A 
HETATM   20  C   UNL     1     -42.227  59.560 -59.448  1.00  0.00     0.029 A 
BRANCH  17  21
HETATM   21  O   UNL     1     -40.370  63.238 -59.090  1.00  0.00    -0.361 OA
HETATM   22  H   UNL     1     -40.954  63.819 -58.576  1.00  0.00     0.217 HD
ENDBRANCH  17  21
ENDBRANCH  12  15
ENDBRANCH   1  11
BRANCH   8  23
HETATM   23  C   UNL     1     -41.220  57.340 -51.955  1.00  0.00     0.409 C 
HETATM   24  F   UNL     1     -40.731  56.744 -50.852  1.00  0.00    -0.169 F 
HETATM   25  F   UNL     1     -40.635  56.750 -53.026  1.00  0.00    -0.169 F 
HETATM   26  F   UNL     1     -40.777  58.624 -51.946  1.00  0.00    -0.169 F 
ENDBRANCH   8  23
BRANCH   6  27
HETATM   27  C   UNL     1     -42.205  53.940 -52.150  1.00  0.00    -0.035 A 
HETATM   28  C   UNL     1     -41.578  53.573 -50.945  1.00  0.00     0.012 A 
HETATM   29  C   UNL     1     -40.425  52.785 -50.945  1.00  0.00     0.043 A 
HETATM   30  C   UNL     1     -39.883  52.364 -52.151  1.00  0.00     0.116 A 
HETATM   31  F   UNL     1     -38.772  51.615 -52.152  1.00  0.00    -0.206 F 
HETATM   32  C   UNL     1     -40.474  52.714 -53.357  1.00  0.00     0.043 A 
HETATM   33  C   UNL     1     -41.630  53.497 -53.358  1.00  0.00     0.012 A 
ENDBRANCH   6  27
TORSDOF 5
ENDMDL
MODEL 9
REMARK VINA RESULT:      -8.3      4.771      9.072
REMARK  5 active torsions:
REMARK  status: ('A' for Active; 'I' for Inactive)
REMARK    1  A    between atoms: C_3  and  O_4 
REMARK    2  A    between atoms: C_6  and  N_7 
REMARK       I    between atoms: N_7  and  C_8 
REMARK    3  A    between atoms: C_8  and  C_9 
REMARK    4  A    between atoms: C_14  and  C_15 
REMARK    5  A    between atoms: C_23  and  C_24 
ROOT
HETATM    1  C   UNL     1     -41.729  55.580 -52.377  1.00  0.00     0.148 A 
HETATM    2  N   UNL     1     -42.520  56.385 -51.629  1.00  0.00    -0.165 NA
HETATM    3  N   UNL     1     -42.369  57.593 -52.206  1.00  0.00    -0.240 N 
HETATM    4  C   UNL     1     -41.453  57.613 -53.219  1.00  0.00     0.123 A 
HETATM    5  N   UNL     1     -41.119  58.754 -53.858  1.00  0.00    -0.366 N 
HETATM    6  C   UNL     1     -41.788  60.022 -53.598  1.00  0.00     0.118 C 
HETATM    7  C   UNL     1     -42.378  60.052 -52.175  1.00  0.00     0.066 C 
HETATM    8  C   UNL     1     -43.096  58.759 -51.743  1.00  0.00     0.221 C 
HETATM    9  C   UNL     1     -41.036  56.319 -53.374  1.00  0.00     0.089 A 
HETATM   10  H   UNL     1     -40.519  58.737 -54.681  1.00  0.00     0.161 HD
ENDROOT
BRANCH   1  11
HETATM   11  C   UNL     1     -41.633  54.127 -52.139  1.00  0.00     0.276 C 
HETATM   12  N   UNL     1     -40.673  53.538 -52.939  1.00  0.00    -0.322 N 
HETATM   13  H   UNL     1     -40.219  54.190 -53.572  1.00  0.00     0.169 HD
HETATM   14  O   UNL     1     -42.352  53.569 -51.320  1.00  0.00    -0.266 OA
BRANCH  12  15
HETATM   15  C   UNL     1     -40.272  52.191 -52.972  1.00  0.00     0.037 A 
HETATM   16  C   UNL     1     -39.803  51.490 -51.858  1.00  0.00     0.066 A 
HETATM   17  C   UNL     1     -39.412  50.158 -51.987  1.00  0.00     0.067 A 
HETATM   18  C   UNL     1     -39.488  49.502 -53.211  1.00  0.00     0.036 A 
HETATM   19  C   UNL     1     -39.958  50.193 -54.325  1.00  0.00     0.005 A 
HETATM   20  C   UNL     1     -40.344  51.532 -54.206  1.00  0.00     0.029 A 
BRANCH  17  21
HETATM   21  O   UNL     1     -38.948  49.522 -50.873  1.00  0.00    -0.361 OA
HETATM   22  H   UNL     1     -39.224  50.023 -50.088  1.00  0.00     0.217 HD
ENDBRANCH  17  21
ENDBRANCH  12  15
ENDBRANCH   1  11
BRANCH   8  23
HETATM   23  C   UNL     1     -44.539  58.684 -52.185  1.00  0.00     0.409 C 
HETATM   24  F   UNL     1     -44.721  58.052 -53.359  1.00  0.00    -0.169 F 
HETATM   25  F   UNL     1     -45.315  58.061 -51.266  1.00  0.00    -0.169 F 
HETATM   26  F   UNL     1     -45.051  59.935 -52.322  1.00  0.00    -0.169 F 
ENDBRANCH   8  23
BRANCH   6  27
HETATM   27  C   UNL     1     -42.749  60.416 -54.708  1.00  0.00    -0.035 A 
HETATM   28  C   UNL     1     -43.457  61.631 -54.712  1.00  0.00     0.012 A 
HETATM   29  C   UNL     1     -44.352  61.940 -55.739  1.00  0.00     0.043 A 
HETATM   30  C   UNL     1     -44.554  61.031 -56.768  1.00  0.00     0.116 A 
HETATM   31  F   UNL     1     -45.417  61.322 -57.749  1.00  0.00    -0.206 F 
HETATM   32  C   UNL     1     -43.875  59.821 -56.790  1.00  0.00     0.043 A 
HETATM   33  C   UNL     1     -42.976  59.514 -55.766  1.00  0.00     0.012 A 
ENDBRANCH   6  27
TORSDOF 5
ENDMDL
MODEL 10
REMARK VINA RESULT:      -8.2      1.958      2.588
REMARK  5 active torsions:
REMARK  status: ('A' for Active; 'I' for Inactive)
REMARK    1  A    between atoms: C_3  and  O_4 
REMARK    2  A    between atoms: C_6  and  N_7 
REMARK       I    between atoms: N_7  and  C_8 
REMARK    3  A    between atoms: C_8  and  C_9 
REMARK    4  A    between atoms: C_14  and  C_15 
REMARK    5  A    between atoms: C_23  and  C_24 
ROOT
HETATM    1  C   UNL     1     -43.564  58.227 -55.198  1.00  0.00     0.148 A 
HETATM    2  N   UNL     1     -43.123  58.585 -53.968  1.00  0.00    -0.165 NA
HETATM    3  N   UNL     1     -43.148  57.428 -53.280  1.00  0.00    -0.240 N 
HETATM    4  C   UNL     1     -43.669  56.377 -53.979  1.00  0.00     0.123 A 
HETATM    5  N   UNL     1     -43.840  55.161 -53.420  1.00  0.00    -0.366 N 
HETATM    6  C   UNL     1     -43.380  54.845 -52.073  1.00  0.00     0.118 C 
HETATM    7  C   UNL     1     -43.307  56.115 -51.205  1.00  0.00     0.066 C 
HETATM    8  C   UNL     1     -42.696  57.345 -51.904  1.00  0.00     0.221 C 
HETATM    9  C   UNL     1     -43.926  56.853 -55.236  1.00  0.00     0.089 A 
HETATM   10  H   UNL     1     -44.126  54.361 -53.983  1.00  0.00     0.161 HD
ENDROOT
BRANCH   1  11
HETATM   11  C   UNL     1     -43.641  59.184 -56.318  1.00  0.00     0.276 C 
HETATM   12  N   UNL     1     -43.339  58.587 -57.526  1.00  0.00    -0.322 N 
HETATM   13  H   UNL     1     -43.087  57.606 -57.440  1.00  0.00     0.169 HD
HETATM   14  O   UNL     1     -43.938  60.357 -56.131  1.00  0.00    -0.266 OA
BRANCH  12  15
HETATM   15  C   UNL     1     -43.343  59.162 -58.808  1.00  0.00     0.037 A 
HETATM   16  C   UNL     1     -44.462  59.201 -59.642  1.00  0.00     0.066 A 
HETATM   17  C   UNL     1     -44.369  59.780 -60.907  1.00  0.00     0.067 A 
HETATM   18  C   UNL     1     -43.176  60.335 -61.358  1.00  0.00     0.036 A 
HETATM   19  C   UNL     1     -42.057  60.304 -60.531  1.00  0.00     0.005 A 
HETATM   20  C   UNL     1     -42.139  59.716 -59.264  1.00  0.00     0.029 A 
BRANCH  17  21
HETATM   21  O   UNL     1     -45.488  59.781 -61.689  1.00  0.00    -0.361 OA
HETATM   22  H   UNL     1     -46.157  60.352 -61.278  1.00  0.00     0.217 HD
ENDBRANCH  17  21
ENDBRANCH  12  15
ENDBRANCH   1  11
BRANCH   8  23
HETATM   23  C   UNL     1     -41.186  57.393 -51.848  1.00  0.00     0.409 C 
HETATM   24  F   UNL     1     -40.676  58.638 -51.875  1.00  0.00    -0.169 F 
HETATM   25  F   UNL     1     -40.704  56.783 -50.738  1.00  0.00    -0.169 F 
HETATM   26  F   UNL     1     -40.658  56.721 -52.904  1.00  0.00    -0.169 F 
ENDBRANCH   8  23
BRANCH   6  27
HETATM   27  C   UNL     1     -42.128  53.982 -52.069  1.00  0.00    -0.035 A 
HETATM   28  C   UNL     1     -41.554  53.462 -53.243  1.00  0.00     0.012 A 
HETATM   29  C   UNL     1     -40.419  52.651 -53.190  1.00  0.00     0.043 A 
HETATM   30  C   UNL     1     -39.853  52.344 -51.961  1.00  0.00     0.116 A 
HETATM   31  F   UNL     1     -38.769  51.559 -51.908  1.00  0.00    -0.206 F 
HETATM   32  C   UNL     1     -40.399  52.836 -50.784  1.00  0.00     0.043 A 
HETATM   33  C   UNL     1     -41.531  53.652 -50.837  1.00  0.00     0.012 A 
ENDBRANCH   6  27
TORSDOF 5
ENDMDL
