MODEL 1
REMARK VINA RESULT:      -8.9      0.000      0.000
REMARK  8 active torsions:
REMARK  status: ('A' for Active; 'I' for Inactive)
REMARK    1  A    between atoms: C_5  and  C_6 
REMARK       I    between atoms: C_6  and  N_7 
REMARK    2  A    between atoms: N_7  and  N_8 
REMARK       I    between atoms: N_8  and  C_9 
REMARK    3  A    between atoms: C_9  and  C_10 
REMARK    4  A    between atoms: C_10  and  S_11 
REMARK    5  A    between atoms: S_11  and  C_12 
REMARK    6  A    between atoms: N_13  and  C_14 
REMARK    7  A    between atoms: C_21  and  C_22 
REMARK    8  A    between atoms: C_22  and  N_23 
ROOT
HETATM    1  C   UNL     1     -42.545  59.587 -54.514  1.00  0.00     0.196 A 
HETATM    2  N   UNL     1     -42.820  60.015 -53.228  1.00  0.00    -0.274 N 
HETATM    3  C   UNL     1     -41.686  59.640 -52.513  1.00  0.00     0.166 A 
HETATM    4  N   UNL     1     -40.765  59.180 -53.340  1.00  0.00    -0.131 NA
HETATM    5  N   UNL     1     -41.314  59.132 -54.591  1.00  0.00    -0.122 NA
ENDROOT
BRANCH   1   6
HETATM    6  S   UNL     1     -43.660  59.625 -55.833  1.00  0.00    -0.080 SA
BRANCH   6   7
HETATM    7  C   UNL     1     -43.095  58.215 -56.824  1.00  0.00     0.187 C 
BRANCH   7   8
HETATM    8  C   UNL     1     -42.978  56.896 -56.061  1.00  0.00     0.245 C 
HETATM    9  N   UNL     1     -41.727  56.314 -56.225  1.00  0.00    -0.267 N 
HETATM   10  H   UNL     1     -41.218  56.469 -57.098  1.00  0.00     0.190 HD
HETATM   11  O   UNL     1     -43.849  56.394 -55.347  1.00  0.00    -0.271 OA
BRANCH   9  12
HETATM   12  N   UNL     1     -41.511  55.055 -55.648  1.00  0.00    -0.263 N 
HETATM   13  C   UNL     1     -40.866  55.008 -54.425  1.00  0.00     0.270 C 
HETATM   14  O   UNL     1     -40.569  56.013 -53.790  1.00  0.00    -0.266 OA
HETATM   15  H   UNL     1     -41.465  54.270 -56.287  1.00  0.00     0.190 HD
BRANCH  13  16
HETATM   16  C   UNL     1     -40.518  53.644 -53.941  1.00  0.00     0.033 A 
HETATM   17  C   UNL     1     -40.529  52.538 -54.802  1.00  0.00     0.017 A 
HETATM   18  C   UNL     1     -40.204  51.270 -54.315  1.00  0.00     0.007 A 
HETATM   19  C   UNL     1     -39.862  51.093 -52.969  1.00  0.00    -0.062 A 
HETATM   20  C   UNL     1     -39.572  49.720 -52.435  1.00  0.00     0.048 C 
HETATM   21  C   UNL     1     -39.878  52.198 -52.108  1.00  0.00     0.007 A 
HETATM   22  C   UNL     1     -40.204  53.469 -52.590  1.00  0.00     0.017 A 
ENDBRANCH  13  16
ENDBRANCH   9  12
ENDBRANCH   7   8
ENDBRANCH   6   7
ENDBRANCH   1   6
BRANCH   2  23
HETATM   23  C   UNL     1     -43.995  60.605 -52.694  1.00  0.00     0.043 A 
HETATM   24  C   UNL     1     -44.032  61.969 -52.371  1.00  0.00     0.033 A 
HETATM   25  C   UNL     1     -45.196  62.530 -51.840  1.00  0.00     0.044 A 
HETATM   26  C   UNL     1     -46.313  61.732 -51.638  1.00  0.00     0.116 A 
HETATM   27  F   UNL     1     -47.427  62.271 -51.130  1.00  0.00    -0.206 F 
HETATM   28  C   UNL     1     -46.293  60.380 -51.958  1.00  0.00     0.044 A 
HETATM   29  C   UNL     1     -45.133  59.809 -52.489  1.00  0.00     0.033 A 
ENDBRANCH   2  23
BRANCH   3  30
HETATM   30  C   UNL     1     -41.605  59.505 -51.021  1.00  0.00     0.255 C 
HETATM   31  C   UNL     1     -40.155  59.737 -50.580  1.00  0.00     0.049 C 
BRANCH  30  32
HETATM   32  N   UNL     1     -42.063  58.095 -50.549  1.00  0.00    -0.060 N 
HETATM   33  H   UNL     1     -42.490  58.256 -49.623  1.00  0.00     0.280 HD
HETATM   34  C   UNL     1     -43.080  57.460 -51.469  1.00  0.00     0.236 C 
HETATM   35  C   UNL     1     -43.551  56.126 -50.906  1.00  0.00     0.028 C 
HETATM   36  C   UNL     1     -42.392  55.178 -50.641  1.00  0.00     0.003 C 
HETATM   37  C   UNL     1     -41.361  55.838 -49.740  1.00  0.00     0.028 C 
HETATM   38  C   UNL     1     -40.880  57.165 -50.309  1.00  0.00     0.236 C 
ENDBRANCH  30  32
ENDBRANCH   3  30
TORSDOF 8
ENDMDL
MODEL 2
REMARK VINA RESULT:      -8.4      3.303      5.803
REMARK  8 active torsions:
REMARK  status: ('A' for Active; 'I' for Inactive)
REMARK    1  A    between atoms: C_5  and  C_6 
REMARK       I    between atoms: C_6  and  N_7 
REMARK    2  A    between atoms: N_7  and  N_8 
REMARK       I    between atoms: N_8  and  C_9 
REMARK    3  A    between atoms: C_9  and  C_10 
REMARK    4  A    between atoms: C_10  and  S_11 
REMARK    5  A    between atoms: S_11  and  C_12 
REMARK    6  A    between atoms: N_13  and  C_14 
REMARK    7  A    between atoms: C_21  and  C_22 
REMARK    8  A    between atoms: C_22  and  N_23 
ROOT
HETATM    1  C   UNL     1     -43.675  59.291 -54.795  1.00  0.00     0.196 A 
HETATM    2  N   UNL     1     -43.947  59.710 -56.085  1.00  0.00    -0.274 N 
HETATM    3  C   UNL     1     -45.047  58.941 -56.449  1.00  0.00     0.166 A 
HETATM    4  N   UNL     1     -45.479  58.252 -55.409  1.00  0.00    -0.131 NA
HETATM    5  N   UNL     1     -44.605  58.461 -54.378  1.00  0.00    -0.122 NA
ENDROOT
BRANCH   1   6
HETATM    6  S   UNL     1     -42.301  59.772 -53.863  1.00  0.00    -0.080 SA
BRANCH   6   7
HETATM    7  C   UNL     1     -42.671  59.012 -52.258  1.00  0.00     0.187 C 
BRANCH   7   8
HETATM    8  C   UNL     1     -41.937  57.701 -51.982  1.00  0.00     0.245 C 
HETATM    9  N   UNL     1     -42.383  56.676 -52.807  1.00  0.00    -0.267 N 
HETATM   10  H   UNL     1     -43.353  56.683 -53.128  1.00  0.00     0.190 HD
HETATM   11  O   UNL     1     -41.031  57.539 -51.162  1.00  0.00    -0.271 OA
BRANCH   9  12
HETATM   12  N   UNL     1     -41.854  55.394 -52.601  1.00  0.00    -0.263 N 
HETATM   13  C   UNL     1     -40.917  54.929 -53.507  1.00  0.00     0.270 C 
HETATM   14  O   UNL     1     -40.465  55.622 -54.412  1.00  0.00    -0.266 OA
HETATM   15  H   UNL     1     -42.434  54.747 -52.081  1.00  0.00     0.190 HD
BRANCH  13  16
HETATM   16  C   UNL     1     -40.516  53.507 -53.334  1.00  0.00     0.033 A 
HETATM   17  C   UNL     1     -40.483  52.619 -54.419  1.00  0.00     0.017 A 
HETATM   18  C   UNL     1     -40.109  51.288 -54.222  1.00  0.00     0.007 A 
HETATM   19  C   UNL     1     -39.761  50.831 -52.945  1.00  0.00    -0.062 A 
HETATM   20  C   UNL     1     -39.417  49.385 -52.726  1.00  0.00     0.048 C 
HETATM   21  C   UNL     1     -39.820  51.716 -51.862  1.00  0.00     0.007 A 
HETATM   22  C   UNL     1     -40.196  53.048 -52.053  1.00  0.00     0.017 A 
ENDBRANCH  13  16
ENDBRANCH   9  12
ENDBRANCH   7   8
ENDBRANCH   6   7
ENDBRANCH   1   6
BRANCH   2  23
HETATM   23  C   UNL     1     -43.245  60.622 -56.915  1.00  0.00     0.043 A 
HETATM   24  C   UNL     1     -43.751  61.907 -57.161  1.00  0.00     0.033 A 
HETATM   25  C   UNL     1     -43.049  62.788 -57.987  1.00  0.00     0.044 A 
HETATM   26  C   UNL     1     -41.849  62.387 -58.558  1.00  0.00     0.116 A 
HETATM   27  F   UNL     1     -41.178  63.233 -59.348  1.00  0.00    -0.206 F 
HETATM   28  C   UNL     1     -41.332  61.119 -58.319  1.00  0.00     0.044 A 
HETATM   29  C   UNL     1     -42.028  60.230 -57.495  1.00  0.00     0.033 A 
ENDBRANCH   2  23
BRANCH   3  30
HETATM   30  C   UNL     1     -45.511  58.700 -57.856  1.00  0.00     0.255 C 
HETATM   31  C   UNL     1     -47.025  58.935 -57.926  1.00  0.00     0.049 C 
BRANCH  30  32
HETATM   32  N   UNL     1     -45.199  57.248 -58.320  1.00  0.00    -0.060 N 
HETATM   33  H   UNL     1     -45.603  56.646 -57.585  1.00  0.00     0.280 HD
HETATM   34  C   UNL     1     -45.821  56.901 -59.653  1.00  0.00     0.236 C 
HETATM   35  C   UNL     1     -45.553  55.445 -60.006  1.00  0.00     0.028 C 
HETATM   36  C   UNL     1     -44.067  55.122 -60.001  1.00  0.00     0.003 C 
HETATM   37  C   UNL     1     -43.446  55.502 -58.667  1.00  0.00     0.028 C 
HETATM   38  C   UNL     1     -43.703  56.962 -58.320  1.00  0.00     0.236 C 
ENDBRANCH  30  32
ENDBRANCH   3  30
TORSDOF 8
ENDMDL
MODEL 3
REMARK VINA RESULT:      -8.3      3.754      7.295
REMARK  8 active torsions:
REMARK  status: ('A' for Active; 'I' for Inactive)
REMARK    1  A    between atoms: C_5  and  C_6 
REMARK       I    between atoms: C_6  and  N_7 
REMARK    2  A    between atoms: N_7  and  N_8 
REMARK       I    between atoms: N_8  and  C_9 
REMARK    3  A    between atoms: C_9  and  C_10 
REMARK    4  A    between atoms: C_10  and  S_11 
REMARK    5  A    between atoms: S_11  and  C_12 
REMARK    6  A    between atoms: N_13  and  C_14 
REMARK    7  A    between atoms: C_21  and  C_22 
REMARK    8  A    between atoms: C_22  and  N_23 
ROOT
HETATM    1  C   UNL     1     -43.618  56.406 -53.522  1.00  0.00     0.196 A 
HETATM    2  N   UNL     1     -42.244  56.415 -53.364  1.00  0.00    -0.274 N 
HETATM    3  C   UNL     1     -41.835  55.263 -54.028  1.00  0.00     0.166 A 
HETATM    4  N   UNL     1     -42.861  54.716 -54.653  1.00  0.00    -0.131 NA
HETATM    5  N   UNL     1     -43.981  55.426 -54.319  1.00  0.00    -0.122 NA
ENDROOT
BRANCH   1   6
HETATM    6  S   UNL     1     -44.712  57.510 -52.767  1.00  0.00    -0.080 SA
BRANCH   6   7
HETATM    7  C   UNL     1     -44.433  59.016 -53.738  1.00  0.00     0.187 C 
BRANCH   7   8
HETATM    8  C   UNL     1     -45.287  59.139 -54.998  1.00  0.00     0.245 C 
HETATM    9  N   UNL     1     -45.673  57.895 -55.483  1.00  0.00    -0.267 N 
HETATM   10  H   UNL     1     -45.059  57.092 -55.336  1.00  0.00     0.190 HD
HETATM   11  O   UNL     1     -45.644  60.192 -55.530  1.00  0.00    -0.271 OA
BRANCH   9  12
HETATM   12  N   UNL     1     -46.392  57.857 -56.687  1.00  0.00    -0.263 N 
HETATM   13  C   UNL     1     -45.688  57.611 -57.852  1.00  0.00     0.270 C 
HETATM   14  O   UNL     1     -44.495  57.329 -57.861  1.00  0.00    -0.266 OA
HETATM   15  H   UNL     1     -47.258  58.382 -56.708  1.00  0.00     0.190 HD
BRANCH  13  16
HETATM   16  C   UNL     1     -46.471  57.746 -59.110  1.00  0.00     0.033 A 
HETATM   17  C   UNL     1     -46.976  58.986 -59.527  1.00  0.00     0.017 A 
HETATM   18  C   UNL     1     -47.714  59.078 -60.709  1.00  0.00     0.007 A 
HETATM   19  C   UNL     1     -47.951  57.939 -61.487  1.00  0.00    -0.062 A 
HETATM   20  C   UNL     1     -48.795  58.030 -62.726  1.00  0.00     0.048 C 
HETATM   21  C   UNL     1     -47.466  56.699 -61.053  1.00  0.00     0.007 A 
HETATM   22  C   UNL     1     -46.728  56.601 -59.869  1.00  0.00     0.017 A 
ENDBRANCH  13  16
ENDBRANCH   9  12
ENDBRANCH   7   8
ENDBRANCH   6   7
ENDBRANCH   1   6
BRANCH   2  23
HETATM   23  C   UNL     1     -41.416  57.304 -52.631  1.00  0.00     0.043 A 
HETATM   24  C   UNL     1     -41.405  57.286 -51.229  1.00  0.00     0.033 A 
HETATM   25  C   UNL     1     -40.588  58.174 -50.525  1.00  0.00     0.044 A 
HETATM   26  C   UNL     1     -39.786  59.069 -51.220  1.00  0.00     0.116 A 
HETATM   27  F   UNL     1     -39.004  59.918 -50.544  1.00  0.00    -0.206 F 
HETATM   28  C   UNL     1     -39.782  59.095 -52.610  1.00  0.00     0.044 A 
HETATM   29  C   UNL     1     -40.597  58.211 -53.322  1.00  0.00     0.033 A 
ENDBRANCH   2  23
BRANCH   3  30
HETATM   30  C   UNL     1     -40.512  54.578 -53.844  1.00  0.00     0.255 C 
HETATM   31  C   UNL     1     -39.989  54.134 -55.215  1.00  0.00     0.049 C 
BRANCH  30  32
HETATM   32  N   UNL     1     -40.637  53.335 -52.918  1.00  0.00    -0.060 N 
HETATM   33  H   UNL     1     -41.643  53.103 -52.924  1.00  0.00     0.280 HD
HETATM   34  C   UNL     1     -39.844  52.144 -53.408  1.00  0.00     0.236 C 
HETATM   35  C   UNL     1     -40.079  50.938 -52.509  1.00  0.00     0.028 C 
HETATM   36  C   UNL     1     -39.758  51.242 -51.054  1.00  0.00     0.003 C 
HETATM   37  C   UNL     1     -40.537  52.457 -50.581  1.00  0.00     0.028 C 
HETATM   38  C   UNL     1     -40.292  53.667 -51.471  1.00  0.00     0.236 C 
ENDBRANCH  30  32
ENDBRANCH   3  30
TORSDOF 8
ENDMDL
MODEL 4
REMARK VINA RESULT:      -8.2      4.423      8.563
REMARK  8 active torsions:
REMARK  status: ('A' for Active; 'I' for Inactive)
REMARK    1  A    between atoms: C_5  and  C_6 
REMARK       I    between atoms: C_6  and  N_7 
REMARK    2  A    between atoms: N_7  and  N_8 
REMARK       I    between atoms: N_8  and  C_9 
REMARK    3  A    between atoms: C_9  and  C_10 
REMARK    4  A    between atoms: C_10  and  S_11 
REMARK    5  A    between atoms: S_11  and  C_12 
REMARK    6  A    between atoms: N_13  and  C_14 
REMARK    7  A    between atoms: C_21  and  C_22 
REMARK    8  A    between atoms: C_22  and  N_23 
ROOT
HETATM    1  C   UNL     1     -42.514  58.224 -52.273  1.00  0.00     0.196 A 
HETATM    2  N   UNL     1     -43.000  57.193 -53.056  1.00  0.00    -0.274 N 
HETATM    3  C   UNL     1     -43.069  56.121 -52.172  1.00  0.00     0.166 A 
HETATM    4  N   UNL     1     -42.800  56.531 -50.946  1.00  0.00    -0.131 NA
HETATM    5  N   UNL     1     -42.435  57.847 -51.016  1.00  0.00    -0.122 NA
ENDROOT
BRANCH   1   6
HETATM    6  S   UNL     1     -42.055  59.784 -52.858  1.00  0.00    -0.080 SA
BRANCH   6   7
HETATM    7  C   UNL     1     -43.398  60.820 -52.216  1.00  0.00     0.187 C 
BRANCH   7   8
HETATM    8  C   UNL     1     -43.194  61.331 -50.791  1.00  0.00     0.245 C 
HETATM    9  N   UNL     1     -43.850  60.537 -49.858  1.00  0.00    -0.267 N 
HETATM   10  H   UNL     1     -44.711  60.059 -50.131  1.00  0.00     0.190 HD
HETATM   11  O   UNL     1     -42.509  62.302 -50.463  1.00  0.00    -0.271 OA
BRANCH   9  12
HETATM   12  N   UNL     1     -43.817  60.942 -48.516  1.00  0.00    -0.263 N 
HETATM   13  C   UNL     1     -45.013  61.297 -47.919  1.00  0.00     0.270 C 
HETATM   14  O   UNL     1     -46.097  61.178 -48.478  1.00  0.00    -0.266 OA
HETATM   15  H   UNL     1     -42.941  61.328 -48.186  1.00  0.00     0.190 HD
BRANCH  13  16
HETATM   16  C   UNL     1     -44.896  61.874 -46.552  1.00  0.00     0.033 A 
HETATM   17  C   UNL     1     -44.471  61.097 -45.465  1.00  0.00     0.017 A 
HETATM   18  C   UNL     1     -44.378  61.666 -44.193  1.00  0.00     0.007 A 
HETATM   19  C   UNL     1     -44.704  63.013 -43.994  1.00  0.00    -0.062 A 
HETATM   20  C   UNL     1     -44.661  63.607 -42.615  1.00  0.00     0.048 C 
HETATM   21  C   UNL     1     -45.153  63.777 -45.078  1.00  0.00     0.007 A 
HETATM   22  C   UNL     1     -45.249  63.212 -46.353  1.00  0.00     0.017 A 
ENDBRANCH  13  16
ENDBRANCH   9  12
ENDBRANCH   7   8
ENDBRANCH   6   7
ENDBRANCH   1   6
BRANCH   2  23
HETATM   23  C   UNL     1     -43.281  57.157 -54.447  1.00  0.00     0.043 A 
HETATM   24  C   UNL     1     -42.351  56.630 -55.355  1.00  0.00     0.033 A 
HETATM   25  C   UNL     1     -42.644  56.610 -56.721  1.00  0.00     0.044 A 
HETATM   26  C   UNL     1     -43.857  57.111 -57.171  1.00  0.00     0.116 A 
HETATM   27  F   UNL     1     -44.136  57.090 -58.480  1.00  0.00    -0.206 F 
HETATM   28  C   UNL     1     -44.791  57.631 -56.283  1.00  0.00     0.044 A 
HETATM   29  C   UNL     1     -44.507  57.656 -54.915  1.00  0.00     0.033 A 
ENDBRANCH   2  23
BRANCH   3  30
HETATM   30  C   UNL     1     -43.153  54.675 -52.565  1.00  0.00     0.255 C 
HETATM   31  C   UNL     1     -43.856  53.897 -51.446  1.00  0.00     0.049 C 
BRANCH  30  32
HETATM   32  N   UNL     1     -41.741  54.064 -52.801  1.00  0.00    -0.060 N 
HETATM   33  H   UNL     1     -41.128  54.878 -52.963  1.00  0.00     0.280 HD
HETATM   34  C   UNL     1     -41.228  53.276 -51.617  1.00  0.00     0.236 C 
HETATM   35  C   UNL     1     -39.812  52.781 -51.878  1.00  0.00     0.028 C 
HETATM   36  C   UNL     1     -39.720  51.963 -53.156  1.00  0.00     0.003 C 
HETATM   37  C   UNL     1     -40.266  52.754 -54.333  1.00  0.00     0.028 C 
HETATM   38  C   UNL     1     -41.687  53.237 -54.078  1.00  0.00     0.236 C 
ENDBRANCH  30  32
ENDBRANCH   3  30
TORSDOF 8
ENDMDL
MODEL 5
REMARK VINA RESULT:      -8.1      4.052      7.315
REMARK  8 active torsions:
REMARK  status: ('A' for Active; 'I' for Inactive)
REMARK    1  A    between atoms: C_5  and  C_6 
REMARK       I    between atoms: C_6  and  N_7 
REMARK    2  A    between atoms: N_7  and  N_8 
REMARK       I    between atoms: N_8  and  C_9 
REMARK    3  A    between atoms: C_9  and  C_10 
REMARK    4  A    between atoms: C_10  and  S_11 
REMARK    5  A    between atoms: S_11  and  C_12 
REMARK    6  A    between atoms: N_13  and  C_14 
REMARK    7  A    between atoms: C_21  and  C_22 
REMARK    8  A    between atoms: C_22  and  N_23 
ROOT
HETATM    1  C   UNL     1     -42.391  59.418 -57.071  1.00  0.00     0.196 A 
HETATM    2  N   UNL     1     -42.619  58.991 -58.366  1.00  0.00    -0.274 N 
HETATM    3  C   UNL     1     -42.006  59.969 -59.142  1.00  0.00     0.166 A 
HETATM    4  N   UNL     1     -41.341  60.806 -58.367  1.00  0.00    -0.131 NA
HETATM    5  N   UNL     1     -41.599  60.468 -57.068  1.00  0.00    -0.122 NA
ENDROOT
BRANCH   1   6
HETATM    6  S   UNL     1     -43.062  58.694 -55.652  1.00  0.00    -0.080 SA
BRANCH   6   7
HETATM    7  C   UNL     1     -41.873  59.214 -54.385  1.00  0.00     0.187 C 
BRANCH   7   8
HETATM    8  C   UNL     1     -41.145  58.074 -53.676  1.00  0.00     0.245 C 
HETATM    9  N   UNL     1     -41.696  56.837 -53.987  1.00  0.00    -0.267 N 
HETATM   10  H   UNL     1     -42.694  56.777 -54.201  1.00  0.00     0.190 HD
HETATM   11  O   UNL     1     -40.163  58.190 -52.939  1.00  0.00    -0.271 OA
BRANCH   9  12
HETATM   12  N   UNL     1     -41.178  55.708 -53.337  1.00  0.00    -0.263 N 
HETATM   13  C   UNL     1     -40.797  54.631 -54.118  1.00  0.00     0.270 C 
HETATM   14  O   UNL     1     -40.801  54.663 -55.343  1.00  0.00    -0.266 OA
HETATM   15  H   UNL     1     -41.467  55.572 -52.376  1.00  0.00     0.190 HD
BRANCH  13  16
HETATM   16  C   UNL     1     -40.412  53.406 -53.368  1.00  0.00     0.033 A 
HETATM   17  C   UNL     1     -40.105  52.209 -54.030  1.00  0.00     0.017 A 
HETATM   18  C   UNL     1     -39.755  51.073 -53.297  1.00  0.00     0.007 A 
HETATM   19  C   UNL     1     -39.702  51.121 -51.898  1.00  0.00    -0.062 A 
HETATM   20  C   UNL     1     -39.384  49.883 -51.109  1.00  0.00     0.048 C 
HETATM   21  C   UNL     1     -40.035  52.312 -51.241  1.00  0.00     0.007 A 
HETATM   22  C   UNL     1     -40.388  53.451 -51.970  1.00  0.00     0.017 A 
ENDBRANCH  13  16
ENDBRANCH   9  12
ENDBRANCH   7   8
ENDBRANCH   6   7
ENDBRANCH   1   6
BRANCH   2  23
HETATM   23  C   UNL     1     -43.374  57.887 -58.843  1.00  0.00     0.043 A 
HETATM   24  C   UNL     1     -44.773  57.951 -58.919  1.00  0.00     0.033 A 
HETATM   25  C   UNL     1     -45.498  56.852 -59.384  1.00  0.00     0.044 A 
HETATM   26  C   UNL     1     -44.826  55.701 -59.774  1.00  0.00     0.116 A 
HETATM   27  F   UNL     1     -45.523  54.649 -60.220  1.00  0.00    -0.206 F 
HETATM   28  C   UNL     1     -43.440  55.625 -59.710  1.00  0.00     0.044 A 
HETATM   29  C   UNL     1     -42.707  56.719 -59.244  1.00  0.00     0.033 A 
ENDBRANCH   2  23
BRANCH   3  30
HETATM   30  C   UNL     1     -42.275  60.218 -60.597  1.00  0.00     0.255 C 
HETATM   31  C   UNL     1     -41.416  61.400 -61.064  1.00  0.00     0.049 C 
BRANCH  30  32
HETATM   32  N   UNL     1     -43.774  60.545 -60.853  1.00  0.00    -0.060 N 
HETATM   33  H   UNL     1     -44.273  59.666 -60.645  1.00  0.00     0.280 HD
HETATM   34  C   UNL     1     -44.305  61.646 -59.963  1.00  0.00     0.236 C 
HETATM   35  C   UNL     1     -45.794  61.855 -60.201  1.00  0.00     0.028 C 
HETATM   36  C   UNL     1     -46.102  62.142 -61.662  1.00  0.00     0.003 C 
HETATM   37  C   UNL     1     -45.539  61.045 -62.550  1.00  0.00     0.028 C 
HETATM   38  C   UNL     1     -44.047  60.845 -62.321  1.00  0.00     0.236 C 
ENDBRANCH  30  32
ENDBRANCH   3  30
TORSDOF 8
ENDMDL
MODEL 6
REMARK VINA RESULT:      -8.0      2.712      5.312
REMARK  8 active torsions:
REMARK  status: ('A' for Active; 'I' for Inactive)
REMARK    1  A    between atoms: C_5  and  C_6 
REMARK       I    between atoms: C_6  and  N_7 
REMARK    2  A    between atoms: N_7  and  N_8 
REMARK       I    between atoms: N_8  and  C_9 
REMARK    3  A    between atoms: C_9  and  C_10 
REMARK    4  A    between atoms: C_10  and  S_11 
REMARK    5  A    between atoms: S_11  and  C_12 
REMARK    6  A    between atoms: N_13  and  C_14 
REMARK    7  A    between atoms: C_21  and  C_22 
REMARK    8  A    between atoms: C_22  and  N_23 
ROOT
HETATM    1  C   UNL     1     -43.278  61.015 -52.395  1.00  0.00     0.196 A 
HETATM    2  N   UNL     1     -43.398  60.528 -53.684  1.00  0.00    -0.274 N 
HETATM    3  C   UNL     1     -43.536  61.679 -54.453  1.00  0.00     0.166 A 
HETATM    4  N   UNL     1     -43.352  62.748 -53.701  1.00  0.00    -0.131 NA
HETATM    5  N   UNL     1     -43.208  62.328 -52.407  1.00  0.00    -0.122 NA
ENDROOT
BRANCH   1   6
HETATM    6  S   UNL     1     -43.244  60.046 -50.965  1.00  0.00    -0.080 SA
BRANCH   6   7
HETATM    7  C   UNL     1     -41.461  59.818 -50.726  1.00  0.00     0.187 C 
BRANCH   7   8
HETATM    8  C   UNL     1     -40.842  58.677 -51.531  1.00  0.00     0.245 C 
HETATM    9  N   UNL     1     -41.527  57.483 -51.344  1.00  0.00    -0.267 N 
HETATM   10  H   UNL     1     -41.989  57.310 -50.449  1.00  0.00     0.190 HD
HETATM   11  O   UNL     1     -39.877  58.770 -52.293  1.00  0.00    -0.271 OA
BRANCH   9  12
HETATM   12  N   UNL     1     -41.014  56.332 -51.959  1.00  0.00    -0.263 N 
HETATM   13  C   UNL     1     -41.862  55.250 -52.114  1.00  0.00     0.270 C 
HETATM   14  O   UNL     1     -43.054  55.293 -51.831  1.00  0.00    -0.266 OA
HETATM   15  H   UNL     1     -40.012  56.197 -51.893  1.00  0.00     0.190 HD
BRANCH  13  16
HETATM   16  C   UNL     1     -41.222  54.006 -52.619  1.00  0.00     0.033 A 
HETATM   17  C   UNL     1     -41.378  53.591 -53.949  1.00  0.00     0.017 A 
HETATM   18  C   UNL     1     -40.769  52.413 -54.390  1.00  0.00     0.007 A 
HETATM   19  C   UNL     1     -39.997  51.643 -53.512  1.00  0.00    -0.062 A 
HETATM   20  C   UNL     1     -39.394  50.347 -53.972  1.00  0.00     0.048 C 
HETATM   21  C   UNL     1     -39.866  52.049 -52.178  1.00  0.00     0.007 A 
HETATM   22  C   UNL     1     -40.475  53.225 -51.732  1.00  0.00     0.017 A 
ENDBRANCH  13  16
ENDBRANCH   9  12
ENDBRANCH   7   8
ENDBRANCH   6   7
ENDBRANCH   1   6
BRANCH   2  23
HETATM   23  C   UNL     1     -43.470  59.189 -54.150  1.00  0.00     0.043 A 
HETATM   24  C   UNL     1     -44.658  58.452 -54.042  1.00  0.00     0.033 A 
HETATM   25  C   UNL     1     -44.706  57.134 -54.500  1.00  0.00     0.044 A 
HETATM   26  C   UNL     1     -43.575  56.561 -55.065  1.00  0.00     0.116 A 
HETATM   27  F   UNL     1     -43.624  55.298 -55.505  1.00  0.00    -0.206 F 
HETATM   28  C   UNL     1     -42.392  57.281 -55.185  1.00  0.00     0.044 A 
HETATM   29  C   UNL     1     -42.334  58.600 -54.728  1.00  0.00     0.033 A 
ENDBRANCH   2  23
BRANCH   3  30
HETATM   30  C   UNL     1     -44.085  61.730 -55.849  1.00  0.00     0.255 C 
HETATM   31  C   UNL     1     -45.607  61.560 -55.789  1.00  0.00     0.049 C 
BRANCH  30  32
HETATM   32  N   UNL     1     -43.481  60.608 -56.742  1.00  0.00    -0.060 N 
HETATM   33  H   UNL     1     -43.070  59.936 -56.075  1.00  0.00     0.280 HD
HETATM   34  C   UNL     1     -44.513  59.904 -57.593  1.00  0.00     0.236 C 
HETATM   35  C   UNL     1     -43.875  58.763 -58.374  1.00  0.00     0.028 C 
HETATM   36  C   UNL     1     -42.705  59.237 -59.221  1.00  0.00     0.003 C 
HETATM   37  C   UNL     1     -41.688  59.969 -58.360  1.00  0.00     0.028 C 
HETATM   38  C   UNL     1     -42.324  61.118 -57.590  1.00  0.00     0.236 C 
ENDBRANCH  30  32
ENDBRANCH   3  30
TORSDOF 8
ENDMDL
MODEL 7
REMARK VINA RESULT:      -8.0      3.081      4.408
REMARK  8 active torsions:
REMARK  status: ('A' for Active; 'I' for Inactive)
REMARK    1  A    between atoms: C_5  and  C_6 
REMARK       I    between atoms: C_6  and  N_7 
REMARK    2  A    between atoms: N_7  and  N_8 
REMARK       I    between atoms: N_8  and  C_9 
REMARK    3  A    between atoms: C_9  and  C_10 
REMARK    4  A    between atoms: C_10  and  S_11 
REMARK    5  A    between atoms: S_11  and  C_12 
REMARK    6  A    between atoms: N_13  and  C_14 
REMARK    7  A    between atoms: C_21  and  C_22 
REMARK    8  A    between atoms: C_22  and  N_23 
ROOT
HETATM    1  C   UNL     1     -42.834  59.348 -58.612  1.00  0.00     0.196 A 
HETATM    2  N   UNL     1     -43.831  59.874 -57.810  1.00  0.00    -0.274 N 
HETATM    3  C   UNL     1     -43.171  60.160 -56.619  1.00  0.00     0.166 A 
HETATM    4  N   UNL     1     -41.873  59.968 -56.767  1.00  0.00    -0.131 NA
HETATM    5  N   UNL     1     -41.668  59.443 -58.012  1.00  0.00    -0.122 NA
ENDROOT
BRANCH   1   6
HETATM    6  S   UNL     1     -43.079  58.648 -60.173  1.00  0.00    -0.080 SA
BRANCH   6   7
HETATM    7  C   UNL     1     -44.103  57.208 -59.765  1.00  0.00     0.187 C 
BRANCH   7   8
HETATM    8  C   UNL     1     -43.412  56.145 -58.913  1.00  0.00     0.245 C 
HETATM    9  N   UNL     1     -43.955  56.073 -57.637  1.00  0.00    -0.267 N 
HETATM   10  H   UNL     1     -44.347  56.917 -57.215  1.00  0.00     0.190 HD
HETATM   11  O   UNL     1     -42.505  55.398 -59.286  1.00  0.00    -0.271 OA
BRANCH   9  12
HETATM   12  N   UNL     1     -43.358  55.196 -56.721  1.00  0.00    -0.263 N 
HETATM   13  C   UNL     1     -42.563  55.742 -55.728  1.00  0.00     0.270 C 
HETATM   14  O   UNL     1     -42.444  56.950 -55.560  1.00  0.00    -0.266 OA
HETATM   15  H   UNL     1     -43.203  54.248 -57.042  1.00  0.00     0.190 HD
BRANCH  13  16
HETATM   16  C   UNL     1     -41.825  54.759 -54.890  1.00  0.00     0.033 A 
HETATM   17  C   UNL     1     -40.706  54.072 -55.382  1.00  0.00     0.017 A 
HETATM   18  C   UNL     1     -40.040  53.149 -54.574  1.00  0.00     0.007 A 
HETATM   19  C   UNL     1     -40.479  52.905 -53.267  1.00  0.00    -0.062 A 
HETATM   20  C   UNL     1     -39.798  51.869 -52.419  1.00  0.00     0.048 C 
HETATM   21  C   UNL     1     -41.613  53.575 -52.789  1.00  0.00     0.007 A 
HETATM   22  C   UNL     1     -42.285  54.497 -53.596  1.00  0.00     0.017 A 
ENDBRANCH  13  16
ENDBRANCH   9  12
ENDBRANCH   7   8
ENDBRANCH   6   7
ENDBRANCH   1   6
BRANCH   2  23
HETATM   23  C   UNL     1     -45.221  60.016 -58.058  1.00  0.00     0.043 A 
HETATM   24  C   UNL     1     -46.133  59.044 -57.621  1.00  0.00     0.033 A 
HETATM   25  C   UNL     1     -47.497  59.199 -57.881  1.00  0.00     0.044 A 
HETATM   26  C   UNL     1     -47.942  60.318 -58.570  1.00  0.00     0.116 A 
HETATM   27  F   UNL     1     -49.249  60.465 -58.818  1.00  0.00    -0.206 F 
HETATM   28  C   UNL     1     -47.051  61.293 -59.005  1.00  0.00     0.044 A 
HETATM   29  C   UNL     1     -45.685  61.146 -58.750  1.00  0.00     0.033 A 
ENDBRANCH   2  23
BRANCH   3  30
HETATM   30  C   UNL     1     -43.833  60.378 -55.290  1.00  0.00     0.255 C 
HETATM   31  C   UNL     1     -43.350  61.711 -54.708  1.00  0.00     0.049 C 
BRANCH  30  32
HETATM   32  N   UNL     1     -43.499  59.234 -54.291  1.00  0.00    -0.060 N 
HETATM   33  H   UNL     1     -43.142  58.466 -54.882  1.00  0.00     0.280 HD
HETATM   34  C   UNL     1     -42.446  59.618 -53.276  1.00  0.00     0.236 C 
HETATM   35  C   UNL     1     -42.101  58.431 -52.387  1.00  0.00     0.028 C 
HETATM   36  C   UNL     1     -43.331  57.856 -51.702  1.00  0.00     0.003 C 
HETATM   37  C   UNL     1     -44.394  57.502 -52.729  1.00  0.00     0.028 C 
HETATM   38  C   UNL     1     -44.748  58.692 -53.609  1.00  0.00     0.236 C 
ENDBRANCH  30  32
ENDBRANCH   3  30
TORSDOF 8
ENDMDL
MODEL 8
REMARK VINA RESULT:      -7.9      1.370      2.069
REMARK  8 active torsions:
REMARK  status: ('A' for Active; 'I' for Inactive)
REMARK    1  A    between atoms: C_5  and  C_6 
REMARK       I    between atoms: C_6  and  N_7 
REMARK    2  A    between atoms: N_7  and  N_8 
REMARK       I    between atoms: N_8  and  C_9 
REMARK    3  A    between atoms: C_9  and  C_10 
REMARK    4  A    between atoms: C_10  and  S_11 
REMARK    5  A    between atoms: S_11  and  C_12 
REMARK    6  A    between atoms: N_13  and  C_14 
REMARK    7  A    between atoms: C_21  and  C_22 
REMARK    8  A    between atoms: C_22  and  N_23 
ROOT
HETATM    1  C   UNL     1     -42.436  60.639 -55.024  1.00  0.00     0.196 A 
HETATM    2  N   UNL     1     -42.972  60.813 -53.762  1.00  0.00    -0.274 N 
HETATM    3  C   UNL     1     -42.199  59.977 -52.964  1.00  0.00     0.166 A 
HETATM    4  N   UNL     1     -41.198  59.482 -53.668  1.00  0.00    -0.131 NA
HETATM    5  N   UNL     1     -41.360  59.885 -54.964  1.00  0.00    -0.122 NA
ENDROOT
BRANCH   1   6
HETATM    6  S   UNL     1     -43.089  61.298 -56.482  1.00  0.00    -0.080 SA
BRANCH   6   7
HETATM    7  C   UNL     1     -43.857  59.834 -57.228  1.00  0.00     0.187 C 
BRANCH   7   8
HETATM    8  C   UNL     1     -43.012  58.562 -57.169  1.00  0.00     0.245 C 
HETATM    9  N   UNL     1     -43.212  57.864 -55.984  1.00  0.00    -0.267 N 
HETATM   10  H   UNL     1     -43.449  58.383 -55.136  1.00  0.00     0.190 HD
HETATM   11  O   UNL     1     -42.262  58.151 -58.057  1.00  0.00    -0.271 OA
BRANCH   9  12
HETATM   12  N   UNL     1     -42.434  56.720 -55.761  1.00  0.00    -0.263 N 
HETATM   13  C   UNL     1     -42.907  55.782 -54.860  1.00  0.00     0.270 C 
HETATM   14  O   UNL     1     -44.011  55.865 -54.333  1.00  0.00    -0.266 OA
HETATM   15  H   UNL     1     -41.440  56.811 -55.936  1.00  0.00     0.190 HD
BRANCH  13  16
HETATM   16  C   UNL     1     -41.967  54.675 -54.540  1.00  0.00     0.033 A 
HETATM   17  C   UNL     1     -40.820  54.443 -55.312  1.00  0.00     0.017 A 
HETATM   18  C   UNL     1     -39.961  53.390 -54.990  1.00  0.00     0.007 A 
HETATM   19  C   UNL     1     -40.234  52.562 -53.894  1.00  0.00    -0.062 A 
HETATM   20  C   UNL     1     -39.342  51.395 -53.586  1.00  0.00     0.048 C 
HETATM   21  C   UNL     1     -41.395  52.783 -53.142  1.00  0.00     0.007 A 
HETATM   22  C   UNL     1     -42.259  53.834 -53.462  1.00  0.00     0.017 A 
ENDBRANCH  13  16
ENDBRANCH   9  12
ENDBRANCH   7   8
ENDBRANCH   6   7
ENDBRANCH   1   6
BRANCH   2  23
HETATM   23  C   UNL     1     -44.099  61.569 -53.346  1.00  0.00     0.043 A 
HETATM   24  C   UNL     1     -45.401  61.091 -53.547  1.00  0.00     0.033 A 
HETATM   25  C   UNL     1     -46.497  61.853 -53.137  1.00  0.00     0.044 A 
HETATM   26  C   UNL     1     -46.289  63.083 -52.527  1.00  0.00     0.116 A 
HETATM   27  F   UNL     1     -47.340  63.812 -52.134  1.00  0.00    -0.206 F 
HETATM   28  C   UNL     1     -45.004  63.568 -52.316  1.00  0.00     0.044 A 
HETATM   29  C   UNL     1     -43.902  62.813 -52.724  1.00  0.00     0.033 A 
ENDBRANCH   2  23
BRANCH   3  30
HETATM   30  C   UNL     1     -42.582  59.479 -51.601  1.00  0.00     0.255 C 
HETATM   31  C   UNL     1     -41.711  60.183 -50.553  1.00  0.00     0.049 C 
BRANCH  30  32
HETATM   32  N   UNL     1     -42.384  57.941 -51.478  1.00  0.00    -0.060 N 
HETATM   33  H   UNL     1     -42.259  57.615 -52.449  1.00  0.00     0.280 HD
HETATM   34  C   UNL     1     -41.172  57.559 -50.659  1.00  0.00     0.236 C 
HETATM   35  C   UNL     1     -40.985  56.048 -50.652  1.00  0.00     0.028 C 
HETATM   36  C   UNL     1     -42.226  55.324 -50.154  1.00  0.00     0.003 C 
HETATM   37  C   UNL     1     -43.443  55.737 -50.964  1.00  0.00     0.028 C 
HETATM   38  C   UNL     1     -43.638  57.247 -50.960  1.00  0.00     0.236 C 
ENDBRANCH  30  32
ENDBRANCH   3  30
TORSDOF 8
ENDMDL
MODEL 9
REMARK VINA RESULT:      -7.9      3.000      5.733
REMARK  8 active torsions:
REMARK  status: ('A' for Active; 'I' for Inactive)
REMARK    1  A    between atoms: C_5  and  C_6 
REMARK       I    between atoms: C_6  and  N_7 
REMARK    2  A    between atoms: N_7  and  N_8 
REMARK       I    between atoms: N_8  and  C_9 
REMARK    3  A    between atoms: C_9  and  C_10 
REMARK    4  A    between atoms: C_10  and  S_11 
REMARK    5  A    between atoms: S_11  and  C_12 
REMARK    6  A    between atoms: N_13  and  C_14 
REMARK    7  A    between atoms: C_21  and  C_22 
REMARK    8  A    between atoms: C_22  and  N_23 
ROOT
HETATM    1  C   UNL     1     -44.416  60.750 -54.109  1.00  0.00     0.196 A 
HETATM    2  N   UNL     1     -43.541  59.887 -54.742  1.00  0.00    -0.274 N 
HETATM    3  C   UNL     1     -42.871  60.709 -55.643  1.00  0.00     0.166 A 
HETATM    4  N   UNL     1     -43.211  61.968 -55.440  1.00  0.00    -0.131 NA
HETATM    5  N   UNL     1     -44.193  61.988 -54.489  1.00  0.00    -0.122 NA
ENDROOT
BRANCH   1   6
HETATM    6  S   UNL     1     -45.643  60.275 -52.989  1.00  0.00    -0.080 SA
BRANCH   6   7
HETATM    7  C   UNL     1     -44.674  60.022 -51.477  1.00  0.00     0.187 C 
BRANCH   7   8
HETATM    8  C   UNL     1     -44.437  58.560 -51.099  1.00  0.00     0.245 C 
HETATM    9  N   UNL     1     -43.087  58.286 -50.919  1.00  0.00    -0.267 N 
HETATM   10  H   UNL     1     -42.396  58.812 -51.458  1.00  0.00     0.190 HD
HETATM   11  O   UNL     1     -45.311  57.707 -50.930  1.00  0.00    -0.271 OA
BRANCH   9  12
HETATM   12  N   UNL     1     -42.720  56.960 -50.652  1.00  0.00    -0.263 N 
HETATM   13  C   UNL     1     -41.370  56.656 -50.623  1.00  0.00     0.270 C 
HETATM   14  O   UNL     1     -40.495  57.509 -50.720  1.00  0.00    -0.266 OA
HETATM   15  H   UNL     1     -43.403  56.249 -50.886  1.00  0.00     0.190 HD
BRANCH  13  16
HETATM   16  C   UNL     1     -41.045  55.210 -50.501  1.00  0.00     0.033 A 
HETATM   17  C   UNL     1     -40.827  54.411 -51.632  1.00  0.00     0.017 A 
HETATM   18  C   UNL     1     -40.531  53.054 -51.484  1.00  0.00     0.007 A 
HETATM   19  C   UNL     1     -40.446  52.482 -50.209  1.00  0.00    -0.062 A 
HETATM   20  C   UNL     1     -40.187  51.011 -50.054  1.00  0.00     0.048 C 
HETATM   21  C   UNL     1     -40.690  53.279 -49.084  1.00  0.00     0.007 A 
HETATM   22  C   UNL     1     -40.989  54.637 -49.227  1.00  0.00     0.017 A 
ENDBRANCH  13  16
ENDBRANCH   9  12
ENDBRANCH   7   8
ENDBRANCH   6   7
ENDBRANCH   1   6
BRANCH   2  23
HETATM   23  C   UNL     1     -43.392  58.481 -54.614  1.00  0.00     0.043 A 
HETATM   24  C   UNL     1     -44.495  57.625 -54.750  1.00  0.00     0.033 A 
HETATM   25  C   UNL     1     -44.330  56.245 -54.613  1.00  0.00     0.044 A 
HETATM   26  C   UNL     1     -43.069  55.727 -54.347  1.00  0.00     0.116 A 
HETATM   27  F   UNL     1     -42.913  54.405 -54.217  1.00  0.00    -0.206 F 
HETATM   28  C   UNL     1     -41.966  56.562 -54.216  1.00  0.00     0.044 A 
HETATM   29  C   UNL     1     -42.122  57.944 -54.349  1.00  0.00     0.033 A 
ENDBRANCH   2  23
BRANCH   3  30
HETATM   30  C   UNL     1     -42.102  60.238 -56.842  1.00  0.00     0.255 C 
HETATM   31  C   UNL     1     -41.700  61.456 -57.683  1.00  0.00     0.049 C 
BRANCH  30  32
HETATM   32  N   UNL     1     -42.946  59.270 -57.719  1.00  0.00    -0.060 N 
HETATM   33  H   UNL     1     -43.710  58.956 -57.100  1.00  0.00     0.280 HD
HETATM   34  C   UNL     1     -43.533  59.934 -58.944  1.00  0.00     0.236 C 
HETATM   35  C   UNL     1     -44.418  58.959 -59.709  1.00  0.00     0.028 C 
HETATM   36  C   UNL     1     -43.673  57.688 -60.085  1.00  0.00     0.003 C 
HETATM   37  C   UNL     1     -43.062  57.046 -58.850  1.00  0.00     0.028 C 
HETATM   38  C   UNL     1     -42.167  58.016 -58.093  1.00  0.00     0.236 C 
ENDBRANCH  30  32
ENDBRANCH   3  30
TORSDOF 8
ENDMDL
MODEL 10
REMARK VINA RESULT:      -7.8      2.742      5.231
REMARK  8 active torsions:
REMARK  status: ('A' for Active; 'I' for Inactive)
REMARK    1  A    between atoms: C_5  and  C_6 
REMARK       I    between atoms: C_6  and  N_7 
REMARK    2  A    between atoms: N_7  and  N_8 
REMARK       I    between atoms: N_8  and  C_9 
REMARK    3  A    between atoms: C_9  and  C_10 
REMARK    4  A    between atoms: C_10  and  S_11 
REMARK    5  A    between atoms: S_11  and  C_12 
REMARK    6  A    between atoms: N_13  and  C_14 
REMARK    7  A    between atoms: C_21  and  C_22 
REMARK    8  A    between atoms: C_22  and  N_23 
ROOT
HETATM    1  C   UNL     1     -43.287  60.036 -54.084  1.00  0.00     0.196 A 
HETATM    2  N   UNL     1     -43.507  59.710 -55.410  1.00  0.00    -0.274 N 
HETATM    3  C   UNL     1     -42.222  59.565 -55.924  1.00  0.00     0.166 A 
HETATM    4  N   UNL     1     -41.336  59.642 -54.949  1.00  0.00    -0.131 NA
HETATM    5  N   UNL     1     -42.006  59.955 -53.799  1.00  0.00    -0.122 NA
ENDROOT
BRANCH   1   6
HETATM    6  S   UNL     1     -44.513  60.503 -52.959  1.00  0.00    -0.080 SA
BRANCH   6   7
HETATM    7  C   UNL     1     -44.355  59.212 -51.696  1.00  0.00     0.187 C 
BRANCH   7   8
HETATM    8  C   UNL     1     -44.114  57.804 -52.239  1.00  0.00     0.245 C 
HETATM    9  N   UNL     1     -42.893  57.291 -51.819  1.00  0.00    -0.267 N 
HETATM   10  H   UNL     1     -42.117  57.933 -51.648  1.00  0.00     0.190 HD
HETATM   11  O   UNL     1     -44.897  57.155 -52.937  1.00  0.00    -0.271 OA
BRANCH   9  12
HETATM   12  N   UNL     1     -42.506  56.038 -52.315  1.00  0.00    -0.263 N 
HETATM   13  C   UNL     1     -41.470  55.382 -51.674  1.00  0.00     0.270 C 
HETATM   14  O   UNL     1     -40.953  55.801 -50.645  1.00  0.00    -0.266 OA
HETATM   15  H   UNL     1     -42.700  55.863 -53.293  1.00  0.00     0.190 HD
BRANCH  13  16
HETATM   16  C   UNL     1     -40.994  54.140 -52.340  1.00  0.00     0.033 A 
HETATM   17  C   UNL     1     -41.310  53.860 -53.677  1.00  0.00     0.017 A 
HETATM   18  C   UNL     1     -40.854  52.681 -54.271  1.00  0.00     0.007 A 
HETATM   19  C   UNL     1     -40.076  51.774 -53.541  1.00  0.00    -0.062 A 
HETATM   20  C   UNL     1     -39.637  50.480 -54.164  1.00  0.00     0.048 C 
HETATM   21  C   UNL     1     -39.785  52.047 -52.199  1.00  0.00     0.007 A 
HETATM   22  C   UNL     1     -40.241  53.224 -51.599  1.00  0.00     0.017 A 
ENDBRANCH  13  16
ENDBRANCH   9  12
ENDBRANCH   7   8
ENDBRANCH   6   7
ENDBRANCH   1   6
BRANCH   2  23
HETATM   23  C   UNL     1     -44.721  59.628 -56.140  1.00  0.00     0.043 A 
HETATM   24  C   UNL     1     -45.310  60.776 -56.688  1.00  0.00     0.033 A 
HETATM   25  C   UNL     1     -46.509  60.675 -57.398  1.00  0.00     0.044 A 
HETATM   26  C   UNL     1     -47.110  59.434 -57.560  1.00  0.00     0.116 A 
HETATM   27  F   UNL     1     -48.258  59.340 -58.241  1.00  0.00    -0.206 F 
HETATM   28  C   UNL     1     -46.535  58.286 -57.028  1.00  0.00     0.044 A 
HETATM   29  C   UNL     1     -45.336  58.378 -56.315  1.00  0.00     0.033 A 
ENDBRANCH   2  23
BRANCH   3  30
HETATM   30  C   UNL     1     -41.861  59.600 -57.380  1.00  0.00     0.255 C 
HETATM   31  C   UNL     1     -41.868  61.058 -57.858  1.00  0.00     0.049 C 
BRANCH  30  32
HETATM   32  N   UNL     1     -42.864  58.778 -58.238  1.00  0.00    -0.060 N 
HETATM   33  H   UNL     1     -43.744  58.794 -57.699  1.00  0.00     0.280 HD
HETATM   34  C   UNL     1     -43.104  59.371 -59.608  1.00  0.00     0.236 C 
HETATM   35  C   UNL     1     -44.158  58.571 -60.361  1.00  0.00     0.028 C 
HETATM   36  C   UNL     1     -43.791  57.100 -60.464  1.00  0.00     0.003 C 
HETATM   37  C   UNL     1     -43.524  56.521 -59.084  1.00  0.00     0.028 C 
HETATM   38  C   UNL     1     -42.460  57.312 -58.337  1.00  0.00     0.236 C 
ENDBRANCH  30  32
ENDBRANCH   3  30
TORSDOF 8
ENDMDL
