MODEL 1
REMARK VINA RESULT:      -8.4      0.000      0.000
REMARK  2 active torsions:
REMARK  status: ('A' for Active; 'I' for Inactive)
REMARK    1  A    between atoms: C_6  and  N_7 
REMARK    2  A    between atoms: N_7  and  C_8 
ROOT
HETATM    1  C   UNL     1     -40.923  54.730 -48.424  1.00  0.00     0.093 C 
HETATM    2  C   UNL     1     -40.673  53.961 -49.684  1.00  0.00     0.125 A 
HETATM    3  N   UNL     1     -40.349  52.671 -49.561  1.00  0.00    -0.226 NA
HETATM    4  C   UNL     1     -40.168  52.062 -50.741  1.00  0.00     0.114 A 
HETATM    5  C   UNL     1     -40.294  52.641 -52.004  1.00  0.00     0.053 A 
HETATM    6  C   UNL     1     -40.634  54.012 -52.030  1.00  0.00     0.143 A 
HETATM    7  N   UNL     1     -40.820  54.635 -50.840  1.00  0.00    -0.215 NA
HETATM    8  S   UNL     1     -39.727  50.399 -50.794  1.00  0.00    -0.073 SA
HETATM    9  C   UNL     1     -39.703  50.440 -52.463  1.00  0.00    -0.008 A 
HETATM   10  C   UNL     1     -40.025  51.657 -53.000  1.00  0.00    -0.028 A 
HETATM   11  C   UNL     1     -39.976  51.600 -54.484  1.00  0.00     0.041 C 
HETATM   12  C   UNL     1     -39.904  50.067 -54.766  1.00  0.00     0.010 C 
HETATM   13  C   UNL     1     -39.388  49.392 -53.460  1.00  0.00     0.047 C 
ENDROOT
BRANCH   6  14
HETATM   14  N   UNL     1     -40.797  54.700 -53.241  1.00  0.00    -0.340 N 
HETATM   15  H   UNL     1     -40.236  54.327 -53.991  1.00  0.00     0.167 HD
BRANCH  14  16
HETATM   16  C   UNL     1     -41.515  55.859 -53.589  1.00  0.00     0.036 A 
HETATM   17  C   UNL     1     -40.825  57.086 -53.612  1.00  0.00     0.069 A 
HETATM   18  C   UNL     1     -41.507  58.231 -53.970  1.00  0.00     0.107 A 
HETATM   19  C   UNL     1     -42.837  58.205 -54.312  1.00  0.00     0.105 A 
HETATM   20  O   UNL     1     -40.981  59.484 -54.032  1.00  0.00    -0.323 OA
HETATM   21  O   UNL     1     -43.318  59.435 -54.628  1.00  0.00    -0.323 OA
HETATM   22  C   UNL     1     -43.550  57.030 -54.317  1.00  0.00     0.042 A 
HETATM   23  C   UNL     1     -42.136  60.242 -54.450  1.00  0.00     0.352 A 
HETATM   24  C   UNL     1     -42.877  55.853 -53.958  1.00  0.00     0.032 A 
ENDBRANCH  14  16
ENDBRANCH   6  14
TORSDOF 2
ENDMDL
MODEL 2
REMARK VINA RESULT:      -8.2      3.865      5.111
REMARK  2 active torsions:
REMARK  status: ('A' for Active; 'I' for Inactive)
REMARK    1  A    between atoms: C_6  and  N_7 
REMARK    2  A    between atoms: N_7  and  C_8 
ROOT
HETATM    1  C   UNL     1     -44.790  58.320 -52.501  1.00  0.00     0.093 C 
HETATM    2  C   UNL     1     -43.799  57.283 -52.932  1.00  0.00     0.125 A 
HETATM    3  N   UNL     1     -43.528  56.299 -52.071  1.00  0.00    -0.226 NA
HETATM    4  C   UNL     1     -42.650  55.409 -52.554  1.00  0.00     0.114 A 
HETATM    5  C   UNL     1     -42.047  55.432 -53.811  1.00  0.00     0.053 A 
HETATM    6  C   UNL     1     -42.393  56.517 -54.647  1.00  0.00     0.143 A 
HETATM    7  N   UNL     1     -43.281  57.422 -54.167  1.00  0.00    -0.215 NA
HETATM    8  S   UNL     1     -42.158  54.072 -51.586  1.00  0.00    -0.073 SA
HETATM    9  C   UNL     1     -41.162  53.530 -52.810  1.00  0.00    -0.008 A 
HETATM   10  C   UNL     1     -41.182  54.306 -53.937  1.00  0.00    -0.028 A 
HETATM   11  C   UNL     1     -40.268  53.750 -54.969  1.00  0.00     0.041 C 
HETATM   12  C   UNL     1     -39.947  52.328 -54.412  1.00  0.00     0.010 C 
HETATM   13  C   UNL     1     -40.255  52.361 -52.885  1.00  0.00     0.047 C 
ENDROOT
BRANCH   6  14
HETATM   14  N   UNL     1     -41.856  56.643 -55.937  1.00  0.00    -0.340 N 
HETATM   15  H   UNL     1     -40.871  56.859 -55.941  1.00  0.00     0.167 HD
BRANCH  14  16
HETATM   16  C   UNL     1     -42.438  56.619 -57.218  1.00  0.00     0.036 A 
HETATM   17  C   UNL     1     -43.111  55.450 -57.620  1.00  0.00     0.069 A 
HETATM   18  C   UNL     1     -43.706  55.415 -58.865  1.00  0.00     0.107 A 
HETATM   19  C   UNL     1     -43.665  56.490 -59.718  1.00  0.00     0.105 A 
HETATM   20  O   UNL     1     -44.383  54.360 -59.393  1.00  0.00    -0.323 OA
HETATM   21  O   UNL     1     -44.306  56.250 -60.890  1.00  0.00    -0.323 OA
HETATM   22  C   UNL     1     -43.030  57.658 -59.366  1.00  0.00     0.042 A 
HETATM   23  C   UNL     1     -44.760  54.897 -60.679  1.00  0.00     0.352 A 
HETATM   24  C   UNL     1     -42.420  57.717 -58.104  1.00  0.00     0.032 A 
ENDBRANCH  14  16
ENDBRANCH   6  14
TORSDOF 2
ENDMDL
MODEL 3
REMARK VINA RESULT:      -8.1      3.064      3.775
REMARK  2 active torsions:
REMARK  status: ('A' for Active; 'I' for Inactive)
REMARK    1  A    between atoms: C_6  and  N_7 
REMARK    2  A    between atoms: N_7  and  C_8 
ROOT
HETATM    1  C   UNL     1     -44.364  56.971 -50.964  1.00  0.00     0.093 C 
HETATM    2  C   UNL     1     -43.447  55.967 -51.593  1.00  0.00     0.125 A 
HETATM    3  N   UNL     1     -42.657  55.265 -50.777  1.00  0.00    -0.226 NA
HETATM    4  C   UNL     1     -41.891  54.378 -51.428  1.00  0.00     0.114 A 
HETATM    5  C   UNL     1     -41.870  54.147 -52.803  1.00  0.00     0.053 A 
HETATM    6  C   UNL     1     -42.738  54.945 -53.582  1.00  0.00     0.143 A 
HETATM    7  N   UNL     1     -43.517  55.844 -52.931  1.00  0.00    -0.215 NA
HETATM    8  S   UNL     1     -40.789  53.386 -50.553  1.00  0.00    -0.073 SA
HETATM    9  C   UNL     1     -40.289  52.659 -51.970  1.00  0.00    -0.008 A 
HETATM   10  C   UNL     1     -40.923  53.121 -53.092  1.00  0.00    -0.028 A 
HETATM   11  C   UNL     1     -40.416  52.422 -54.301  1.00  0.00     0.041 C 
HETATM   12  C   UNL     1     -39.616  51.227 -53.696  1.00  0.00     0.010 C 
HETATM   13  C   UNL     1     -39.276  51.610 -52.225  1.00  0.00     0.047 C 
ENDROOT
BRANCH   6  14
HETATM   14  N   UNL     1     -42.810  54.797 -54.975  1.00  0.00    -0.340 N 
HETATM   15  H   UNL     1     -42.860  53.835 -55.273  1.00  0.00     0.167 HD
BRANCH  14  16
HETATM   16  C   UNL     1     -42.734  55.719 -56.036  1.00  0.00     0.036 A 
HETATM   17  C   UNL     1     -43.080  55.276 -57.326  1.00  0.00     0.069 A 
HETATM   18  C   UNL     1     -43.031  56.170 -58.376  1.00  0.00     0.107 A 
HETATM   19  C   UNL     1     -42.661  57.480 -58.195  1.00  0.00     0.105 A 
HETATM   20  O   UNL     1     -43.329  55.890 -59.674  1.00  0.00    -0.323 OA
HETATM   21  O   UNL     1     -42.675  58.190 -59.353  1.00  0.00    -0.323 OA
HETATM   22  C   UNL     1     -42.326  57.963 -56.952  1.00  0.00     0.042 A 
HETATM   23  C   UNL     1     -43.100  57.177 -60.287  1.00  0.00     0.352 A 
HETATM   24  C   UNL     1     -42.371  57.072 -55.870  1.00  0.00     0.032 A 
ENDBRANCH  14  16
ENDBRANCH   6  14
TORSDOF 2
ENDMDL
MODEL 4
REMARK VINA RESULT:      -8.0      3.878      6.788
REMARK  2 active torsions:
REMARK  status: ('A' for Active; 'I' for Inactive)
REMARK    1  A    between atoms: C_6  and  N_7 
REMARK    2  A    between atoms: N_7  and  C_8 
ROOT
HETATM    1  C   UNL     1     -40.153  59.562 -50.451  1.00  0.00     0.093 C 
HETATM    2  C   UNL     1     -40.808  58.885 -51.615  1.00  0.00     0.125 A 
HETATM    3  N   UNL     1     -40.961  59.600 -52.732  1.00  0.00    -0.226 NA
HETATM    4  C   UNL     1     -41.535  58.904 -53.724  1.00  0.00     0.114 A 
HETATM    5  C   UNL     1     -41.947  57.572 -53.676  1.00  0.00     0.053 A 
HETATM    6  C   UNL     1     -41.747  56.903 -52.448  1.00  0.00     0.143 A 
HETATM    7  N   UNL     1     -41.167  57.600 -51.440  1.00  0.00    -0.215 NA
HETATM    8  S   UNL     1     -41.835  59.656 -55.243  1.00  0.00    -0.073 SA
HETATM    9  C   UNL     1     -42.500  58.243 -55.832  1.00  0.00    -0.008 A 
HETATM   10  C   UNL     1     -42.502  57.207 -54.937  1.00  0.00    -0.028 A 
HETATM   11  C   UNL     1     -43.112  55.996 -55.544  1.00  0.00     0.041 C 
HETATM   12  C   UNL     1     -43.170  56.365 -57.060  1.00  0.00     0.010 C 
HETATM   13  C   UNL     1     -43.093  57.918 -57.149  1.00  0.00     0.047 C 
ENDROOT
BRANCH   6  14
HETATM   14  N   UNL     1     -42.114  55.559 -52.282  1.00  0.00    -0.340 N 
HETATM   15  H   UNL     1     -43.094  55.434 -52.080  1.00  0.00     0.167 HD
BRANCH  14  16
HETATM   16  C   UNL     1     -41.370  54.365 -52.251  1.00  0.00     0.036 A 
HETATM   17  C   UNL     1     -41.278  53.609 -53.435  1.00  0.00     0.069 A 
HETATM   18  C   UNL     1     -40.535  52.446 -53.429  1.00  0.00     0.107 A 
HETATM   19  C   UNL     1     -39.881  52.010 -52.304  1.00  0.00     0.105 A 
HETATM   20  O   UNL     1     -40.359  51.610 -54.488  1.00  0.00    -0.323 OA
HETATM   21  O   UNL     1     -39.212  50.846 -52.509  1.00  0.00    -0.323 OA
HETATM   22  C   UNL     1     -39.930  52.719 -51.128  1.00  0.00     0.042 A 
HETATM   23  C   UNL     1     -39.519  50.597 -53.896  1.00  0.00     0.352 A 
HETATM   24  C   UNL     1     -40.677  53.907 -51.111  1.00  0.00     0.032 A 
ENDBRANCH  14  16
ENDBRANCH   6  14
TORSDOF 2
ENDMDL
MODEL 5
REMARK VINA RESULT:      -7.9      2.780      4.626
REMARK  2 active torsions:
REMARK  status: ('A' for Active; 'I' for Inactive)
REMARK    1  A    between atoms: C_6  and  N_7 
REMARK    2  A    between atoms: N_7  and  C_8 
ROOT
HETATM    1  C   UNL     1     -39.516  50.274 -54.356  1.00  0.00     0.093 C 
HETATM    2  C   UNL     1     -40.129  51.477 -53.706  1.00  0.00     0.125 A 
HETATM    3  N   UNL     1     -39.669  51.821 -52.500  1.00  0.00    -0.226 NA
HETATM    4  C   UNL     1     -40.260  52.921 -52.010  1.00  0.00     0.114 A 
HETATM    5  C   UNL     1     -41.248  53.683 -52.634  1.00  0.00     0.053 A 
HETATM    6  C   UNL     1     -41.672  53.232 -53.904  1.00  0.00     0.143 A 
HETATM    7  N   UNL     1     -41.079  52.122 -54.407  1.00  0.00    -0.215 NA
HETATM    8  S   UNL     1     -39.817  53.518 -50.458  1.00  0.00    -0.073 SA
HETATM    9  C   UNL     1     -40.914  54.767 -50.605  1.00  0.00    -0.008 A 
HETATM   10  C   UNL     1     -41.606  54.770 -51.785  1.00  0.00    -0.028 A 
HETATM   11  C   UNL     1     -42.558  55.911 -51.827  1.00  0.00     0.041 C 
HETATM   12  C   UNL     1     -42.089  56.792 -50.627  1.00  0.00     0.010 C 
HETATM   13  C   UNL     1     -41.273  55.865 -49.678  1.00  0.00     0.047 C 
ENDROOT
BRANCH   6  14
HETATM   14  N   UNL     1     -42.655  53.922 -54.631  1.00  0.00    -0.340 N 
HETATM   15  H   UNL     1     -43.573  53.514 -54.548  1.00  0.00     0.167 HD
BRANCH  14  16
HETATM   16  C   UNL     1     -42.593  55.009 -55.522  1.00  0.00     0.036 A 
HETATM   17  C   UNL     1     -43.094  54.829 -56.825  1.00  0.00     0.069 A 
HETATM   18  C   UNL     1     -43.061  55.890 -57.707  1.00  0.00     0.107 A 
HETATM   19  C   UNL     1     -42.559  57.116 -57.346  1.00  0.00     0.105 A 
HETATM   20  O   UNL     1     -43.500  55.869 -58.994  1.00  0.00    -0.323 OA
HETATM   21  O   UNL     1     -42.615  58.020 -58.358  1.00  0.00    -0.323 OA
HETATM   22  C   UNL     1     -42.070  57.345 -56.082  1.00  0.00     0.042 A 
HETATM   23  C   UNL     1     -43.213  57.223 -59.401  1.00  0.00     0.352 A 
HETATM   24  C   UNL     1     -42.095  56.281 -55.168  1.00  0.00     0.032 A 
ENDBRANCH  14  16
ENDBRANCH   6  14
TORSDOF 2
ENDMDL
MODEL 6
REMARK VINA RESULT:      -7.7      4.094      7.740
REMARK  2 active torsions:
REMARK  status: ('A' for Active; 'I' for Inactive)
REMARK    1  A    between atoms: C_6  and  N_7 
REMARK    2  A    between atoms: N_7  and  C_8 
ROOT
HETATM    1  C   UNL     1     -43.061  55.800 -59.673  1.00  0.00     0.093 C 
HETATM    2  C   UNL     1     -42.893  56.340 -58.286  1.00  0.00     0.125 A 
HETATM    3  N   UNL     1     -42.655  57.648 -58.163  1.00  0.00    -0.226 NA
HETATM    4  C   UNL     1     -42.543  58.042 -56.886  1.00  0.00     0.114 A 
HETATM    5  C   UNL     1     -42.659  57.235 -55.753  1.00  0.00     0.053 A 
HETATM    6  C   UNL     1     -42.905  55.864 -55.988  1.00  0.00     0.143 A 
HETATM    7  N   UNL     1     -43.021  55.458 -57.277  1.00  0.00    -0.215 NA
HETATM    8  S   UNL     1     -42.218  59.692 -56.518  1.00  0.00    -0.073 SA
HETATM    9  C   UNL     1     -42.230  59.349 -54.884  1.00  0.00    -0.008 A 
HETATM   10  C   UNL     1     -42.481  58.036 -54.588  1.00  0.00    -0.028 A 
HETATM   11  C   UNL     1     -42.471  57.823 -53.117  1.00  0.00     0.041 C 
HETATM   12  C   UNL     1     -42.510  59.281 -52.560  1.00  0.00     0.010 C 
HETATM   13  C   UNL     1     -42.011  60.214 -53.703  1.00  0.00     0.047 C 
ENDROOT
BRANCH   6  14
HETATM   14  N   UNL     1     -43.049  54.957 -54.928  1.00  0.00    -0.340 N 
HETATM   15  H   UNL     1     -44.002  54.861 -54.611  1.00  0.00     0.167 HD
BRANCH  14  16
HETATM   16  C   UNL     1     -42.119  54.230 -54.163  1.00  0.00     0.036 A 
HETATM   17  C   UNL     1     -42.291  54.193 -52.766  1.00  0.00     0.069 A 
HETATM   18  C   UNL     1     -41.400  53.469 -52.001  1.00  0.00     0.107 A 
HETATM   19  C   UNL     1     -40.355  52.779 -52.565  1.00  0.00     0.105 A 
HETATM   20  O   UNL     1     -41.432  53.344 -50.647  1.00  0.00    -0.323 OA
HETATM   21  O   UNL     1     -39.596  52.135 -51.640  1.00  0.00    -0.323 OA
HETATM   22  C   UNL     1     -40.152  52.774 -53.924  1.00  0.00     0.042 A 
HETATM   23  C   UNL     1     -40.284  52.497 -50.425  1.00  0.00     0.352 A 
HETATM   24  C   UNL     1     -41.047  53.502 -54.722  1.00  0.00     0.032 A 
ENDBRANCH  14  16
ENDBRANCH   6  14
TORSDOF 2
ENDMDL
MODEL 7
REMARK VINA RESULT:      -7.7      4.446      7.335
REMARK  2 active torsions:
REMARK  status: ('A' for Active; 'I' for Inactive)
REMARK    1  A    between atoms: C_6  and  N_7 
REMARK    2  A    between atoms: N_7  and  C_8 
ROOT
HETATM    1  C   UNL     1     -41.420  59.759 -53.253  1.00  0.00     0.093 C 
HETATM    2  C   UNL     1     -41.818  58.937 -54.441  1.00  0.00     0.125 A 
HETATM    3  N   UNL     1     -41.979  59.577 -55.602  1.00  0.00    -0.226 NA
HETATM    4  C   UNL     1     -42.311  58.757 -56.609  1.00  0.00     0.114 A 
HETATM    5  C   UNL     1     -42.482  57.375 -56.535  1.00  0.00     0.053 A 
HETATM    6  C   UNL     1     -42.296  56.792 -55.261  1.00  0.00     0.143 A 
HETATM    7  N   UNL     1     -41.958  57.614 -54.238  1.00  0.00    -0.215 NA
HETATM    8  S   UNL     1     -42.580  59.394 -58.186  1.00  0.00    -0.073 SA
HETATM    9  C   UNL     1     -42.917  57.865 -58.765  1.00  0.00    -0.008 A 
HETATM   10  C   UNL     1     -42.828  56.875 -57.824  1.00  0.00    -0.028 A 
HETATM   11  C   UNL     1     -43.145  55.554 -58.427  1.00  0.00     0.041 C 
HETATM   12  C   UNL     1     -43.109  55.859 -59.957  1.00  0.00     0.010 C 
HETATM   13  C   UNL     1     -43.301  57.396 -60.116  1.00  0.00     0.047 C 
ENDROOT
BRANCH   6  14
HETATM   14  N   UNL     1     -42.433  55.410 -55.065  1.00  0.00    -0.340 N 
HETATM   15  H   UNL     1     -43.272  55.029 -55.475  1.00  0.00     0.167 HD
BRANCH  14  16
HETATM   16  C   UNL     1     -41.680  54.472 -54.334  1.00  0.00     0.036 A 
HETATM   17  C   UNL     1     -41.887  54.392 -52.944  1.00  0.00     0.069 A 
HETATM   18  C   UNL     1     -41.172  53.464 -52.214  1.00  0.00     0.107 A 
HETATM   19  C   UNL     1     -40.271  52.615 -52.806  1.00  0.00     0.105 A 
HETATM   20  O   UNL     1     -41.259  53.273 -50.870  1.00  0.00    -0.323 OA
HETATM   21  O   UNL     1     -39.674  51.784 -51.913  1.00  0.00    -0.323 OA
HETATM   22  C   UNL     1     -40.043  52.646 -54.161  1.00  0.00     0.042 A 
HETATM   23  C   UNL     1     -40.304  52.206 -50.686  1.00  0.00     0.352 A 
HETATM   24  C   UNL     1     -40.760  53.580 -54.924  1.00  0.00     0.032 A 
ENDBRANCH  14  16
ENDBRANCH   6  14
TORSDOF 2
ENDMDL
MODEL 8
REMARK VINA RESULT:      -7.6      3.494      5.670
REMARK  2 active torsions:
REMARK  status: ('A' for Active; 'I' for Inactive)
REMARK    1  A    between atoms: C_6  and  N_7 
REMARK    2  A    between atoms: N_7  and  C_8 
ROOT
HETATM    1  C   UNL     1     -40.332  51.926 -54.132  1.00  0.00     0.093 C 
HETATM    2  C   UNL     1     -41.269  53.072 -53.905  1.00  0.00     0.125 A 
HETATM    3  N   UNL     1     -41.436  53.487 -52.647  1.00  0.00    -0.226 NA
HETATM    4  C   UNL     1     -42.272  54.530 -52.547  1.00  0.00     0.114 A 
HETATM    5  C   UNL     1     -42.929  55.174 -53.596  1.00  0.00     0.053 A 
HETATM    6  C   UNL     1     -42.692  54.657 -54.889  1.00  0.00     0.143 A 
HETATM    7  N   UNL     1     -41.846  53.604 -54.999  1.00  0.00    -0.215 NA
HETATM    8  S   UNL     1     -42.633  55.200 -51.003  1.00  0.00    -0.073 SA
HETATM    9  C   UNL     1     -43.642  56.328 -51.707  1.00  0.00    -0.008 A 
HETATM   10  C   UNL     1     -43.720  56.237 -53.071  1.00  0.00    -0.028 A 
HETATM   11  C   UNL     1     -44.639  57.274 -53.610  1.00  0.00     0.041 C 
HETATM   12  C   UNL     1     -44.839  58.222 -52.386  1.00  0.00     0.010 C 
HETATM   13  C   UNL     1     -44.470  57.402 -51.114  1.00  0.00     0.047 C 
ENDROOT
BRANCH   6  14
HETATM   14  N   UNL     1     -43.289  55.228 -56.023  1.00  0.00    -0.340 N 
HETATM   15  H   UNL     1     -44.111  54.733 -56.333  1.00  0.00     0.167 HD
BRANCH  14  16
HETATM   16  C   UNL     1     -42.917  56.296 -56.861  1.00  0.00     0.036 A 
HETATM   17  C   UNL     1     -42.937  56.086 -58.252  1.00  0.00     0.069 A 
HETATM   18  C   UNL     1     -42.594  57.127 -59.091  1.00  0.00     0.107 A 
HETATM   19  C   UNL     1     -42.242  58.362 -58.606  1.00  0.00     0.105 A 
HETATM   20  O   UNL     1     -42.561  57.075 -60.450  1.00  0.00    -0.323 OA
HETATM   21  O   UNL     1     -41.939  59.243 -59.594  1.00  0.00    -0.323 OA
HETATM   22  C   UNL     1     -42.219  58.619 -57.256  1.00  0.00     0.042 A 
HETATM   23  C   UNL     1     -42.143  58.421 -60.761  1.00  0.00     0.352 A 
HETATM   24  C   UNL     1     -42.566  57.577 -56.384  1.00  0.00     0.032 A 
ENDBRANCH  14  16
ENDBRANCH   6  14
TORSDOF 2
ENDMDL
MODEL 9
REMARK VINA RESULT:      -7.5     14.597     16.161
REMARK  2 active torsions:
REMARK  status: ('A' for Active; 'I' for Inactive)
REMARK    1  A    between atoms: C_6  and  N_7 
REMARK    2  A    between atoms: N_7  and  C_8 
ROOT
HETATM    1  C   UNL     1     -38.133  41.198 -52.507  1.00  0.00     0.093 C 
HETATM    2  C   UNL     1     -36.865  41.016 -53.282  1.00  0.00     0.125 A 
HETATM    3  N   UNL     1     -35.877  40.340 -52.691  1.00  0.00    -0.226 NA
HETATM    4  C   UNL     1     -34.794  40.209 -53.469  1.00  0.00     0.114 A 
HETATM    5  C   UNL     1     -34.640  40.690 -54.769  1.00  0.00     0.053 A 
HETATM    6  C   UNL     1     -35.739  41.399 -55.305  1.00  0.00     0.143 A 
HETATM    7  N   UNL     1     -36.839  41.535 -54.524  1.00  0.00    -0.215 NA
HETATM    8  S   UNL     1     -33.404  39.381 -52.880  1.00  0.00    -0.073 SA
HETATM    9  C   UNL     1     -32.608  39.653 -54.322  1.00  0.00    -0.008 A 
HETATM   10  C   UNL     1     -33.345  40.338 -55.250  1.00  0.00    -0.028 A 
HETATM   11  C   UNL     1     -32.559  40.536 -56.495  1.00  0.00     0.041 C 
HETATM   12  C   UNL     1     -31.352  39.566 -56.296  1.00  0.00     0.010 C 
HETATM   13  C   UNL     1     -31.244  39.289 -54.767  1.00  0.00     0.047 C 
ENDROOT
BRANCH   6  14
HETATM   14  N   UNL     1     -35.704  41.923 -56.606  1.00  0.00    -0.340 N 
HETATM   15  H   UNL     1     -35.285  42.839 -56.656  1.00  0.00     0.167 HD
BRANCH  14  16
HETATM   16  C   UNL     1     -36.218  41.464 -57.832  1.00  0.00     0.036 A 
HETATM   17  C   UNL     1     -35.971  40.127 -58.197  1.00  0.00     0.069 A 
HETATM   18  C   UNL     1     -36.484  39.653 -59.387  1.00  0.00     0.107 A 
HETATM   19  C   UNL     1     -37.234  40.446 -60.220  1.00  0.00     0.105 A 
HETATM   20  O   UNL     1     -36.325  38.393 -59.876  1.00  0.00    -0.323 OA
HETATM   21  O   UNL     1     -37.641  39.791 -61.337  1.00  0.00    -0.323 OA
HETATM   22  C   UNL     1     -37.514  41.754 -59.901  1.00  0.00     0.042 A 
HETATM   23  C   UNL     1     -37.061  38.489 -61.114  1.00  0.00     0.352 A 
HETATM   24  C   UNL     1     -37.004  42.257 -58.695  1.00  0.00     0.032 A 
ENDBRANCH  14  16
ENDBRANCH   6  14
TORSDOF 2
ENDMDL
MODEL 10
REMARK VINA RESULT:      -7.5      3.961      6.244
REMARK  2 active torsions:
REMARK  status: ('A' for Active; 'I' for Inactive)
REMARK    1  A    between atoms: C_6  and  N_7 
REMARK    2  A    between atoms: N_7  and  C_8 
ROOT
HETATM    1  C   UNL     1     -40.285  52.310 -54.342  1.00  0.00     0.093 C 
HETATM    2  C   UNL     1     -41.118  53.530 -54.096  1.00  0.00     0.125 A 
HETATM    3  N   UNL     1     -41.720  53.631 -52.908  1.00  0.00    -0.226 NA
HETATM    4  C   UNL     1     -42.422  54.765 -52.773  1.00  0.00     0.114 A 
HETATM    5  C   UNL     1     -42.554  55.781 -53.720  1.00  0.00     0.053 A 
HETATM    6  C   UNL     1     -41.885  55.577 -54.948  1.00  0.00     0.143 A 
HETATM    7  N   UNL     1     -41.171  54.433 -55.092  1.00  0.00    -0.215 NA
HETATM    8  S   UNL     1     -43.286  55.075 -51.317  1.00  0.00    -0.073 SA
HETATM    9  C   UNL     1     -43.826  56.532 -51.926  1.00  0.00    -0.008 A 
HETATM   10  C   UNL     1     -43.378  56.814 -53.188  1.00  0.00    -0.028 A 
HETATM   11  C   UNL     1     -43.909  58.124 -53.649  1.00  0.00     0.041 C 
HETATM   12  C   UNL     1     -44.475  58.745 -52.333  1.00  0.00     0.010 C 
HETATM   13  C   UNL     1     -44.711  57.566 -51.342  1.00  0.00     0.047 C 
ENDROOT
BRANCH   6  14
HETATM   14  N   UNL     1     -41.937  56.533 -55.974  1.00  0.00    -0.340 N 
HETATM   15  H   UNL     1     -41.568  57.431 -55.702  1.00  0.00     0.167 HD
BRANCH  14  16
HETATM   16  C   UNL     1     -42.485  56.511 -57.270  1.00  0.00     0.036 A 
HETATM   17  C   UNL     1     -43.206  55.369 -57.667  1.00  0.00     0.069 A 
HETATM   18  C   UNL     1     -43.768  55.337 -58.927  1.00  0.00     0.107 A 
HETATM   19  C   UNL     1     -43.648  56.390 -59.800  1.00  0.00     0.105 A 
HETATM   20  O   UNL     1     -44.484  54.307 -59.453  1.00  0.00    -0.323 OA
HETATM   21  O   UNL     1     -44.270  56.157 -60.985  1.00  0.00    -0.323 OA
HETATM   22  C   UNL     1     -42.965  57.531 -59.454  1.00  0.00     0.042 A 
HETATM   23  C   UNL     1     -44.798  54.835 -60.759  1.00  0.00     0.352 A 
HETATM   24  C   UNL     1     -42.387  57.587 -58.177  1.00  0.00     0.032 A 
ENDBRANCH  14  16
ENDBRANCH   6  14
TORSDOF 2
ENDMDL
