MODEL 1
REMARK VINA RESULT:      -8.5      0.000      0.000
REMARK  3 active torsions:
REMARK  status: ('A' for Active; 'I' for Inactive)
REMARK    1  A    between atoms: C_5  and  N_6 
REMARK       I    between atoms: N_6  and  C_7 
REMARK    2  A    between atoms: C_7  and  C_8 
REMARK    3  A    between atoms: C_8  and  C_9 
ROOT
HETATM    1  C   UNL     1     -42.532  55.750 -51.171  1.00  0.00     0.286 C 
HETATM    2  N   UNL     1     -41.155  56.393 -51.040  1.00  0.00    -0.056 N 
HETATM    3  H   UNL     1     -40.982  56.454 -50.012  1.00  0.00     0.278 HD
HETATM    4  H   UNL     1     -40.421  55.778 -51.409  1.00  0.00     0.278 HD
HETATM    5  C   UNL     1     -41.043  57.784 -51.597  1.00  0.00     0.209 C 
HETATM    6  C   UNL     1     -42.172  58.669 -51.013  1.00  0.00     0.115 C 
HETATM    7  N   UNL     1     -43.490  58.044 -51.097  1.00  0.00    -0.353 N 
HETATM    8  C   UNL     1     -43.696  56.709 -50.845  1.00  0.00     0.249 C 
HETATM    9  O   UNL     1     -44.801  56.318 -50.487  1.00  0.00    -0.271 OA
HETATM   10  C   UNL     1     -41.039  57.734 -53.127  1.00  0.00     0.035 C 
HETATM   11  C   UNL     1     -41.018  59.140 -53.720  1.00  0.00     0.002 C 
HETATM   12  C   UNL     1     -42.181  59.981 -53.197  1.00  0.00     0.002 C 
HETATM   13  C   UNL     1     -42.182  60.054 -51.670  1.00  0.00     0.027 C 
HETATM   14  H   UNL     1     -44.295  58.607 -50.828  1.00  0.00     0.163 HD
ENDROOT
BRANCH   1  15
HETATM   15  C   UNL     1     -42.636  54.452 -50.353  1.00  0.00     0.146 C 
BRANCH  15  16
HETATM   16  C   UNL     1     -41.374  54.185 -49.576  1.00  0.00     0.224 C 
HETATM   17  N   UNL     1     -40.384  53.375 -50.027  1.00  0.00    -0.327 N 
HETATM   18  H   UNL     1     -39.625  53.316 -49.354  1.00  0.00     0.169 HD
HETATM   19  O   UNL     1     -41.199  54.796 -48.511  1.00  0.00    -0.273 OA
BRANCH  17  20
HETATM   20  C   UNL     1     -40.188  52.603 -51.191  1.00  0.00     0.034 A 
HETATM   21  C   UNL     1     -40.307  53.048 -52.506  1.00  0.00     0.030 A 
HETATM   22  C   UNL     1     -40.107  52.168 -53.580  1.00  0.00     0.009 A 
HETATM   23  C   UNL     1     -39.761  50.833 -53.362  1.00  0.00    -0.062 A 
HETATM   24  C   UNL     1     -39.583  49.881 -54.507  1.00  0.00     0.048 C 
HETATM   25  C   UNL     1     -39.629  50.384 -52.048  1.00  0.00     0.009 A 
HETATM   26  C   UNL     1     -39.838  51.260 -50.978  1.00  0.00     0.030 A 
ENDBRANCH  17  20
ENDBRANCH  15  16
ENDBRANCH   1  15
TORSDOF 3
ENDMDL
MODEL 2
REMARK VINA RESULT:      -8.0      1.336      1.573
REMARK  3 active torsions:
REMARK  status: ('A' for Active; 'I' for Inactive)
REMARK    1  A    between atoms: C_5  and  N_6 
REMARK       I    between atoms: N_6  and  C_7 
REMARK    2  A    between atoms: C_7  and  C_8 
REMARK    3  A    between atoms: C_8  and  C_9 
ROOT
HETATM    1  C   UNL     1     -42.457  55.644 -51.215  1.00  0.00     0.286 C 
HETATM    2  N   UNL     1     -42.767  56.983 -50.553  1.00  0.00    -0.056 N 
HETATM    3  H   UNL     1     -43.633  56.814 -49.994  1.00  0.00     0.278 HD
HETATM    4  H   UNL     1     -42.043  57.238 -49.872  1.00  0.00     0.278 HD
HETATM    5  C   UNL     1     -43.058  58.113 -51.500  1.00  0.00     0.209 C 
HETATM    6  C   UNL     1     -44.153  57.679 -52.505  1.00  0.00     0.115 C 
HETATM    7  N   UNL     1     -43.885  56.378 -53.115  1.00  0.00    -0.353 N 
HETATM    8  C   UNL     1     -43.383  55.315 -52.405  1.00  0.00     0.249 C 
HETATM    9  O   UNL     1     -43.587  54.170 -52.792  1.00  0.00    -0.271 OA
HETATM   10  C   UNL     1     -41.763  58.576 -52.172  1.00  0.00     0.035 C 
HETATM   11  C   UNL     1     -42.043  59.662 -53.207  1.00  0.00     0.002 C 
HETATM   12  C   UNL     1     -43.066  59.195 -54.240  1.00  0.00     0.002 C 
HETATM   13  C   UNL     1     -44.371  58.750 -53.579  1.00  0.00     0.027 C 
HETATM   14  H   UNL     1     -44.506  56.072 -53.863  1.00  0.00     0.163 HD
ENDROOT
BRANCH   1  15
HETATM   15  C   UNL     1     -42.432  54.495 -50.194  1.00  0.00     0.146 C 
BRANCH  15  16
HETATM   16  C   UNL     1     -41.065  54.325 -49.586  1.00  0.00     0.224 C 
HETATM   17  N   UNL     1     -40.101  53.546 -50.136  1.00  0.00    -0.327 N 
HETATM   18  H   UNL     1     -39.257  53.555 -49.569  1.00  0.00     0.169 HD
HETATM   19  O   UNL     1     -40.784  54.991 -48.577  1.00  0.00    -0.273 OA
BRANCH  17  20
HETATM   20  C   UNL     1     -40.020  52.734 -51.286  1.00  0.00     0.034 A 
HETATM   21  C   UNL     1     -40.223  53.144 -52.601  1.00  0.00     0.030 A 
HETATM   22  C   UNL     1     -40.134  52.227 -53.659  1.00  0.00     0.009 A 
HETATM   23  C   UNL     1     -39.817  50.888 -53.425  1.00  0.00    -0.062 A 
HETATM   24  C   UNL     1     -39.758  49.896 -54.549  1.00  0.00     0.048 C 
HETATM   25  C   UNL     1     -39.601  50.473 -52.111  1.00  0.00     0.009 A 
HETATM   26  C   UNL     1     -39.699  51.387 -51.057  1.00  0.00     0.030 A 
ENDBRANCH  17  20
ENDBRANCH  15  16
ENDBRANCH   1  15
TORSDOF 3
ENDMDL
MODEL 3
REMARK VINA RESULT:      -7.8      2.157      3.026
REMARK  3 active torsions:
REMARK  status: ('A' for Active; 'I' for Inactive)
REMARK    1  A    between atoms: C_5  and  N_6 
REMARK       I    between atoms: N_6  and  C_7 
REMARK    2  A    between atoms: C_7  and  C_8 
REMARK    3  A    between atoms: C_8  and  C_9 
ROOT
HETATM    1  C   UNL     1     -42.805  55.969 -52.993  1.00  0.00     0.286 C 
HETATM    2  N   UNL     1     -41.618  56.793 -53.482  1.00  0.00    -0.056 N 
HETATM    3  H   UNL     1     -40.797  56.153 -53.410  1.00  0.00     0.278 HD
HETATM    4  H   UNL     1     -41.708  57.019 -54.480  1.00  0.00     0.278 HD
HETATM    5  C   UNL     1     -41.308  58.015 -52.665  1.00  0.00     0.209 C 
HETATM    6  C   UNL     1     -41.185  57.623 -51.171  1.00  0.00     0.115 C 
HETATM    7  N   UNL     1     -42.298  56.799 -50.704  1.00  0.00    -0.353 N 
HETATM    8  C   UNL     1     -42.845  55.792 -51.461  1.00  0.00     0.249 C 
HETATM    9  O   UNL     1     -43.429  54.864 -50.913  1.00  0.00    -0.271 OA
HETATM   10  C   UNL     1     -42.357  59.098 -52.925  1.00  0.00     0.035 C 
HETATM   11  C   UNL     1     -42.117  60.317 -52.038  1.00  0.00     0.002 C 
HETATM   12  C   UNL     1     -42.076  59.930 -50.562  1.00  0.00     0.002 C 
HETATM   13  C   UNL     1     -41.016  58.864 -50.288  1.00  0.00     0.027 C 
HETATM   14  H   UNL     1     -42.340  56.588 -49.708  1.00  0.00     0.163 HD
ENDROOT
BRANCH   1  15
HETATM   15  C   UNL     1     -42.895  54.614 -53.713  1.00  0.00     0.146 C 
BRANCH  15  16
HETATM   16  C   UNL     1     -41.881  54.509 -54.822  1.00  0.00     0.224 C 
HETATM   17  N   UNL     1     -40.873  53.601 -54.820  1.00  0.00    -0.327 N 
HETATM   18  H   UNL     1     -40.292  53.699 -55.648  1.00  0.00     0.169 HD
HETATM   19  O   UNL     1     -42.022  55.234 -55.818  1.00  0.00    -0.273 OA
BRANCH  17  20
HETATM   20  C   UNL     1     -40.455  52.586 -53.935  1.00  0.00     0.034 A 
HETATM   21  C   UNL     1     -40.215  51.254 -54.263  1.00  0.00     0.030 A 
HETATM   22  C   UNL     1     -39.822  50.334 -53.278  1.00  0.00     0.009 A 
HETATM   23  C   UNL     1     -39.640  50.733 -51.953  1.00  0.00    -0.062 A 
HETATM   24  C   UNL     1     -39.257  49.745 -50.892  1.00  0.00     0.048 C 
HETATM   25  C   UNL     1     -39.867  52.068 -51.621  1.00  0.00     0.009 A 
HETATM   26  C   UNL     1     -40.267  52.981 -52.601  1.00  0.00     0.030 A 
ENDBRANCH  17  20
ENDBRANCH  15  16
ENDBRANCH   1  15
TORSDOF 3
ENDMDL
MODEL 4
REMARK VINA RESULT:      -7.6      4.347      5.305
REMARK  3 active torsions:
REMARK  status: ('A' for Active; 'I' for Inactive)
REMARK    1  A    between atoms: C_5  and  N_6 
REMARK       I    between atoms: N_6  and  C_7 
REMARK    2  A    between atoms: C_7  and  C_8 
REMARK    3  A    between atoms: C_8  and  C_9 
ROOT
HETATM    1  C   UNL     1     -43.003  56.620 -55.673  1.00  0.00     0.286 C 
HETATM    2  N   UNL     1     -43.633  57.858 -56.304  1.00  0.00    -0.056 N 
HETATM    3  H   UNL     1     -44.650  57.785 -56.085  1.00  0.00     0.278 HD
HETATM    4  H   UNL     1     -43.310  58.716 -55.842  1.00  0.00     0.278 HD
HETATM    5  C   UNL     1     -43.502  57.952 -57.798  1.00  0.00     0.209 C 
HETATM    6  C   UNL     1     -43.999  56.636 -58.446  1.00  0.00     0.115 C 
HETATM    7  N   UNL     1     -43.431  55.443 -57.822  1.00  0.00    -0.353 N 
HETATM    8  C   UNL     1     -43.268  55.321 -56.463  1.00  0.00     0.249 C 
HETATM    9  O   UNL     1     -43.228  54.210 -55.949  1.00  0.00    -0.271 OA
HETATM   10  C   UNL     1     -42.062  58.310 -58.174  1.00  0.00     0.035 C 
HETATM   11  C   UNL     1     -41.880  58.322 -59.689  1.00  0.00     0.002 C 
HETATM   12  C   UNL     1     -42.299  56.991 -60.310  1.00  0.00     0.002 C 
HETATM   13  C   UNL     1     -43.743  56.635 -59.958  1.00  0.00     0.027 C 
HETATM   14  H   UNL     1     -43.630  54.544 -58.259  1.00  0.00     0.163 HD
ENDROOT
BRANCH   1  15
HETATM   15  C   UNL     1     -43.403  56.465 -54.197  1.00  0.00     0.146 C 
BRANCH  15  16
HETATM   16  C   UNL     1     -42.301  56.919 -53.276  1.00  0.00     0.224 C 
HETATM   17  N   UNL     1     -41.234  56.144 -52.959  1.00  0.00    -0.327 N 
HETATM   18  H   UNL     1     -40.611  56.625 -52.316  1.00  0.00     0.169 HD
HETATM   19  O   UNL     1     -42.334  58.083 -52.849  1.00  0.00    -0.273 OA
BRANCH  17  20
HETATM   20  C   UNL     1     -40.817  54.842 -53.306  1.00  0.00     0.034 A 
HETATM   21  C   UNL     1     -40.333  54.435 -54.547  1.00  0.00     0.030 A 
HETATM   22  C   UNL     1     -39.970  53.098 -54.770  1.00  0.00     0.009 A 
HETATM   23  C   UNL     1     -40.064  52.148 -53.752  1.00  0.00    -0.062 A 
HETATM   24  C   UNL     1     -39.713  50.710 -53.998  1.00  0.00     0.048 C 
HETATM   25  C   UNL     1     -40.537  52.551 -52.504  1.00  0.00     0.009 A 
HETATM   26  C   UNL     1     -40.906  53.882 -52.286  1.00  0.00     0.030 A 
ENDBRANCH  17  20
ENDBRANCH  15  16
ENDBRANCH   1  15
TORSDOF 3
ENDMDL
MODEL 5
REMARK VINA RESULT:      -7.6     14.666     17.038
REMARK  3 active torsions:
REMARK  status: ('A' for Active; 'I' for Inactive)
REMARK    1  A    between atoms: C_5  and  N_6 
REMARK       I    between atoms: N_6  and  C_7 
REMARK    2  A    between atoms: C_7  and  C_8 
REMARK    3  A    between atoms: C_8  and  C_9 
ROOT
HETATM    1  C   UNL     1     -34.540  40.893 -53.537  1.00  0.00     0.286 C 
HETATM    2  N   UNL     1     -34.433  41.731 -52.267  1.00  0.00    -0.056 N 
HETATM    3  H   UNL     1     -33.902  42.584 -52.550  1.00  0.00     0.278 HD
HETATM    4  H   UNL     1     -35.355  42.065 -51.964  1.00  0.00     0.278 HD
HETATM    5  C   UNL     1     -33.680  41.087 -51.138  1.00  0.00     0.209 C 
HETATM    6  C   UNL     1     -32.301  40.598 -51.646  1.00  0.00     0.115 C 
HETATM    7  N   UNL     1     -32.389  39.829 -52.885  1.00  0.00    -0.353 N 
HETATM    8  C   UNL     1     -33.228  40.175 -53.916  1.00  0.00     0.249 C 
HETATM    9  O   UNL     1     -32.972  39.816 -55.060  1.00  0.00    -0.271 OA
HETATM   10  C   UNL     1     -34.526  39.976 -50.512  1.00  0.00     0.035 C 
HETATM   11  C   UNL     1     -33.748  39.244 -49.422  1.00  0.00     0.002 C 
HETATM   12  C   UNL     1     -32.426  38.698 -49.953  1.00  0.00     0.002 C 
HETATM   13  C   UNL     1     -31.563  39.804 -50.562  1.00  0.00     0.027 C 
HETATM   14  H   UNL     1     -31.536  39.386 -53.225  1.00  0.00     0.163 HD
ENDROOT
BRANCH   1  15
HETATM   15  C   UNL     1     -35.087  41.713 -54.717  1.00  0.00     0.146 C 
BRANCH  15  16
HETATM   16  C   UNL     1     -36.535  42.074 -54.516  1.00  0.00     0.224 C 
HETATM   17  N   UNL     1     -37.471  41.954 -55.490  1.00  0.00    -0.327 N 
HETATM   18  H   UNL     1     -38.382  42.260 -55.160  1.00  0.00     0.169 HD
HETATM   19  O   UNL     1     -36.901  42.424 -53.384  1.00  0.00    -0.273 OA
BRANCH  17  20
HETATM   20  C   UNL     1     -37.454  41.523 -56.833  1.00  0.00     0.034 A 
HETATM   21  C   UNL     1     -36.945  42.231 -57.920  1.00  0.00     0.030 A 
HETATM   22  C   UNL     1     -37.010  41.697 -59.215  1.00  0.00     0.009 A 
HETATM   23  C   UNL     1     -37.563  40.436 -59.447  1.00  0.00    -0.062 A 
HETATM   24  C   UNL     1     -37.668  39.879 -60.835  1.00  0.00     0.048 C 
HETATM   25  C   UNL     1     -38.063  39.718 -58.362  1.00  0.00     0.009 A 
HETATM   26  C   UNL     1     -38.006  40.256 -57.072  1.00  0.00     0.030 A 
ENDBRANCH  17  20
ENDBRANCH  15  16
ENDBRANCH   1  15
TORSDOF 3
ENDMDL
MODEL 6
REMARK VINA RESULT:      -7.5      4.504      5.441
REMARK  3 active torsions:
REMARK  status: ('A' for Active; 'I' for Inactive)
REMARK    1  A    between atoms: C_5  and  N_6 
REMARK       I    between atoms: N_6  and  C_7 
REMARK    2  A    between atoms: C_7  and  C_8 
REMARK    3  A    between atoms: C_8  and  C_9 
ROOT
HETATM    1  C   UNL     1     -43.609  56.663 -55.760  1.00  0.00     0.286 C 
HETATM    2  N   UNL     1     -42.391  56.699 -56.677  1.00  0.00    -0.056 N 
HETATM    3  H   UNL     1     -41.784  57.454 -56.291  1.00  0.00     0.278 HD
HETATM    4  H   UNL     1     -41.842  55.834 -56.601  1.00  0.00     0.278 HD
HETATM    5  C   UNL     1     -42.679  57.045 -58.111  1.00  0.00     0.209 C 
HETATM    6  C   UNL     1     -43.509  58.351 -58.172  1.00  0.00     0.115 C 
HETATM    7  N   UNL     1     -44.656  58.342 -57.267  1.00  0.00    -0.353 N 
HETATM    8  C   UNL     1     -44.594  57.827 -55.995  1.00  0.00     0.249 C 
HETATM    9  O   UNL     1     -45.376  58.220 -55.137  1.00  0.00    -0.271 OA
HETATM   10  C   UNL     1     -43.355  55.861 -58.808  1.00  0.00     0.035 C 
HETATM   11  C   UNL     1     -43.742  56.219 -60.240  1.00  0.00     0.002 C 
HETATM   12  C   UNL     1     -44.625  57.463 -60.284  1.00  0.00     0.002 C 
HETATM   13  C   UNL     1     -43.950  58.657 -59.608  1.00  0.00     0.027 C 
HETATM   14  H   UNL     1     -45.308  59.123 -57.326  1.00  0.00     0.163 HD
ENDROOT
BRANCH   1  15
HETATM   15  C   UNL     1     -43.206  56.564 -54.280  1.00  0.00     0.146 C 
BRANCH  15  16
HETATM   16  C   UNL     1     -41.809  57.076 -54.051  1.00  0.00     0.224 C 
HETATM   17  N   UNL     1     -40.750  56.262 -53.820  1.00  0.00    -0.327 N 
HETATM   18  H   UNL     1     -39.899  56.800 -53.679  1.00  0.00     0.169 HD
HETATM   19  O   UNL     1     -41.606  58.295 -54.157  1.00  0.00    -0.273 OA
BRANCH  17  20
HETATM   20  C   UNL     1     -40.577  54.865 -53.719  1.00  0.00     0.034 A 
HETATM   21  C   UNL     1     -40.622  54.112 -52.548  1.00  0.00     0.030 A 
HETATM   22  C   UNL     1     -40.410  52.725 -52.580  1.00  0.00     0.009 A 
HETATM   23  C   UNL     1     -40.173  52.063 -53.785  1.00  0.00    -0.062 A 
HETATM   24  C   UNL     1     -39.909  50.586 -53.819  1.00  0.00     0.048 C 
HETATM   25  C   UNL     1     -40.138  52.809 -54.963  1.00  0.00     0.009 A 
HETATM   26  C   UNL     1     -40.340  54.193 -54.927  1.00  0.00     0.030 A 
ENDBRANCH  17  20
ENDBRANCH  15  16
ENDBRANCH   1  15
TORSDOF 3
ENDMDL
MODEL 7
REMARK VINA RESULT:      -7.5     14.667     17.486
REMARK  3 active torsions:
REMARK  status: ('A' for Active; 'I' for Inactive)
REMARK    1  A    between atoms: C_5  and  N_6 
REMARK       I    between atoms: N_6  and  C_7 
REMARK    2  A    between atoms: C_7  and  C_8 
REMARK    3  A    between atoms: C_8  and  C_9 
ROOT
HETATM    1  C   UNL     1     -34.673  39.922 -53.938  1.00  0.00     0.286 C 
HETATM    2  N   UNL     1     -33.659  40.909 -54.507  1.00  0.00    -0.056 N 
HETATM    3  H   UNL     1     -34.224  41.584 -55.068  1.00  0.00     0.278 HD
HETATM    4  H   UNL     1     -33.222  41.464 -53.763  1.00  0.00     0.278 HD
HETATM    5  C   UNL     1     -32.631  40.312 -55.426  1.00  0.00     0.209 C 
HETATM    6  C   UNL     1     -33.339  39.484 -56.528  1.00  0.00     0.115 C 
HETATM    7  N   UNL     1     -34.341  38.564 -55.995  1.00  0.00    -0.353 N 
HETATM    8  C   UNL     1     -35.195  38.906 -54.975  1.00  0.00     0.249 C 
HETATM    9  O   UNL     1     -36.271  38.329 -54.859  1.00  0.00    -0.271 OA
HETATM   10  C   UNL     1     -31.614  39.505 -54.617  1.00  0.00     0.035 C 
HETATM   11  C   UNL     1     -30.611  38.811 -55.536  1.00  0.00     0.002 C 
HETATM   12  C   UNL     1     -31.316  37.936 -56.569  1.00  0.00     0.002 C 
HETATM   13  C   UNL     1     -32.320  38.738 -57.397  1.00  0.00     0.027 C 
HETATM   14  H   UNL     1     -34.775  37.912 -56.648  1.00  0.00     0.163 HD
ENDROOT
BRANCH   1  15
HETATM   15  C   UNL     1     -35.833  40.640 -53.229  1.00  0.00     0.146 C 
BRANCH  15  16
HETATM   16  C   UNL     1     -35.900  42.094 -53.613  1.00  0.00     0.224 C 
HETATM   17  N   UNL     1     -36.348  42.522 -54.820  1.00  0.00    -0.327 N 
HETATM   18  H   UNL     1     -36.304  43.535 -54.887  1.00  0.00     0.169 HD
HETATM   19  O   UNL     1     -35.606  42.942 -52.757  1.00  0.00    -0.273 OA
BRANCH  17  20
HETATM   20  C   UNL     1     -36.835  41.883 -55.979  1.00  0.00     0.034 A 
HETATM   21  C   UNL     1     -38.022  41.162 -56.086  1.00  0.00     0.030 A 
HETATM   22  C   UNL     1     -38.383  40.553 -57.298  1.00  0.00     0.009 A 
HETATM   23  C   UNL     1     -37.577  40.673 -58.431  1.00  0.00    -0.062 A 
HETATM   24  C   UNL     1     -37.941  39.993 -59.717  1.00  0.00     0.048 C 
HETATM   25  C   UNL     1     -36.394  41.404 -58.334  1.00  0.00     0.009 A 
HETATM   26  C   UNL     1     -36.031  42.003 -57.123  1.00  0.00     0.030 A 
ENDBRANCH  17  20
ENDBRANCH  15  16
ENDBRANCH   1  15
TORSDOF 3
ENDMDL
MODEL 8
REMARK VINA RESULT:      -7.5      4.841      5.826
REMARK  3 active torsions:
REMARK  status: ('A' for Active; 'I' for Inactive)
REMARK    1  A    between atoms: C_5  and  N_6 
REMARK       I    between atoms: N_6  and  C_7 
REMARK    2  A    between atoms: C_7  and  C_8 
REMARK    3  A    between atoms: C_8  and  C_9 
ROOT
HETATM    1  C   UNL     1     -43.537  56.906 -56.045  1.00  0.00     0.286 C 
HETATM    2  N   UNL     1     -42.439  56.366 -56.956  1.00  0.00    -0.056 N 
HETATM    3  H   UNL     1     -41.676  57.075 -56.909  1.00  0.00     0.278 HD
HETATM    4  H   UNL     1     -42.037  55.499 -56.580  1.00  0.00     0.278 HD
HETATM    5  C   UNL     1     -42.823  56.215 -58.401  1.00  0.00     0.209 C 
HETATM    6  C   UNL     1     -43.426  57.545 -58.919  1.00  0.00     0.115 C 
HETATM    7  N   UNL     1     -44.450  58.091 -58.032  1.00  0.00    -0.353 N 
HETATM    8  C   UNL     1     -44.334  58.074 -56.664  1.00  0.00     0.249 C 
HETATM    9  O   UNL     1     -44.940  58.898 -55.988  1.00  0.00    -0.271 OA
HETATM   10  C   UNL     1     -43.760  55.016 -58.570  1.00  0.00     0.035 C 
HETATM   11  C   UNL     1     -44.238  54.896 -60.014  1.00  0.00     0.002 C 
HETATM   12  C   UNL     1     -44.901  56.186 -60.490  1.00  0.00     0.002 C 
HETATM   13  C   UNL     1     -43.966  57.387 -60.345  1.00  0.00     0.027 C 
HETATM   14  H   UNL     1     -44.965  58.909 -58.357  1.00  0.00     0.163 HD
ENDROOT
BRANCH   1  15
HETATM   15  C   UNL     1     -42.995  57.276 -54.655  1.00  0.00     0.146 C 
BRANCH  15  16
HETATM   16  C   UNL     1     -43.818  56.654 -53.558  1.00  0.00     0.224 C 
HETATM   17  N   UNL     1     -43.536  55.443 -53.017  1.00  0.00    -0.327 N 
HETATM   18  H   UNL     1     -44.214  55.196 -52.301  1.00  0.00     0.169 HD
HETATM   19  O   UNL     1     -44.749  57.316 -53.074  1.00  0.00    -0.273 OA
BRANCH  17  20
HETATM   20  C   UNL     1     -42.541  54.467 -53.235  1.00  0.00     0.034 A 
HETATM   21  C   UNL     1     -42.335  53.749 -54.411  1.00  0.00     0.030 A 
HETATM   22  C   UNL     1     -41.319  52.785 -54.492  1.00  0.00     0.009 A 
HETATM   23  C   UNL     1     -40.476  52.537 -53.408  1.00  0.00    -0.062 A 
HETATM   24  C   UNL     1     -39.413  51.480 -53.479  1.00  0.00     0.048 C 
HETATM   25  C   UNL     1     -40.669  53.260 -52.232  1.00  0.00     0.009 A 
HETATM   26  C   UNL     1     -41.689  54.214 -52.150  1.00  0.00     0.030 A 
ENDBRANCH  17  20
ENDBRANCH  15  16
ENDBRANCH   1  15
TORSDOF 3
ENDMDL
MODEL 9
REMARK VINA RESULT:      -7.4      2.498      4.689
REMARK  3 active torsions:
REMARK  status: ('A' for Active; 'I' for Inactive)
REMARK    1  A    between atoms: C_5  and  N_6 
REMARK       I    between atoms: N_6  and  C_7 
REMARK    2  A    between atoms: C_7  and  C_8 
REMARK    3  A    between atoms: C_8  and  C_9 
ROOT
HETATM    1  C   UNL     1     -42.858  56.287 -52.237  1.00  0.00     0.286 C 
HETATM    2  N   UNL     1     -43.344  54.969 -51.643  1.00  0.00    -0.056 N 
HETATM    3  H   UNL     1     -44.221  55.210 -51.132  1.00  0.00     0.278 HD
HETATM    4  H   UNL     1     -43.623  54.310 -52.379  1.00  0.00     0.278 HD
HETATM    5  C   UNL     1     -42.410  54.330 -50.655  1.00  0.00     0.209 C 
HETATM    6  C   UNL     1     -42.017  55.363 -49.569  1.00  0.00     0.115 C 
HETATM    7  N   UNL     1     -41.589  56.643 -50.128  1.00  0.00    -0.353 N 
HETATM    8  C   UNL     1     -42.213  57.231 -51.201  1.00  0.00     0.249 C 
HETATM    9  O   UNL     1     -42.145  58.445 -51.357  1.00  0.00    -0.271 OA
HETATM   10  C   UNL     1     -41.207  53.728 -51.386  1.00  0.00     0.035 C 
HETATM   11  C   UNL     1     -40.198  53.153 -50.396  1.00  0.00     0.002 C 
HETATM   12  C   UNL     1     -39.757  54.202 -49.378  1.00  0.00     0.002 C 
HETATM   13  C   UNL     1     -40.950  54.794 -48.627  1.00  0.00     0.027 C 
HETATM   14  H   UNL     1     -41.217  57.337 -49.481  1.00  0.00     0.163 HD
ENDROOT
BRANCH   1  15
HETATM   15  C   UNL     1     -43.967  57.001 -53.026  1.00  0.00     0.146 C 
BRANCH  15  16
HETATM   16  C   UNL     1     -43.497  57.403 -54.400  1.00  0.00     0.224 C 
HETATM   17  N   UNL     1     -42.717  56.611 -55.176  1.00  0.00    -0.327 N 
HETATM   18  H   UNL     1     -42.499  57.066 -56.059  1.00  0.00     0.169 HD
HETATM   19  O   UNL     1     -43.908  58.474 -54.872  1.00  0.00    -0.273 OA
BRANCH  17  20
HETATM   20  C   UNL     1     -42.141  55.333 -55.025  1.00  0.00     0.034 A 
HETATM   21  C   UNL     1     -42.824  54.119 -55.000  1.00  0.00     0.030 A 
HETATM   22  C   UNL     1     -42.131  52.912 -54.820  1.00  0.00     0.009 A 
HETATM   23  C   UNL     1     -40.742  52.893 -54.685  1.00  0.00    -0.062 A 
HETATM   24  C   UNL     1     -40.003  51.608 -54.454  1.00  0.00     0.048 C 
HETATM   25  C   UNL     1     -40.051  54.104 -54.721  1.00  0.00     0.009 A 
HETATM   26  C   UNL     1     -40.744  55.307 -54.891  1.00  0.00     0.030 A 
ENDBRANCH  17  20
ENDBRANCH  15  16
ENDBRANCH   1  15
TORSDOF 3
ENDMDL
MODEL 10
REMARK VINA RESULT:      -7.4      6.716      7.875
REMARK  3 active torsions:
REMARK  status: ('A' for Active; 'I' for Inactive)
REMARK    1  A    between atoms: C_5  and  N_6 
REMARK       I    between atoms: N_6  and  C_7 
REMARK    2  A    between atoms: C_7  and  C_8 
REMARK    3  A    between atoms: C_8  and  C_9 
ROOT
HETATM    1  C   UNL     1     -44.154  57.164 -58.723  1.00  0.00     0.286 C 
HETATM    2  N   UNL     1     -45.524  57.138 -58.053  1.00  0.00    -0.056 N 
HETATM    3  H   UNL     1     -45.653  56.151 -57.740  1.00  0.00     0.278 HD
HETATM    4  H   UNL     1     -45.530  57.704 -57.197  1.00  0.00     0.278 HD
HETATM    5  C   UNL     1     -46.680  57.479 -58.950  1.00  0.00     0.209 C 
HETATM    6  C   UNL     1     -46.625  56.602 -60.226  1.00  0.00     0.115 C 
HETATM    7  N   UNL     1     -45.304  56.588 -60.851  1.00  0.00    -0.353 N 
HETATM    8  C   UNL     1     -44.139  56.522 -60.126  1.00  0.00     0.249 C 
HETATM    9  O   UNL     1     -43.123  56.070 -60.641  1.00  0.00    -0.271 OA
HETATM   10  C   UNL     1     -46.688  58.981 -59.244  1.00  0.00     0.035 C 
HETATM   11  C   UNL     1     -47.798  59.340 -60.227  1.00  0.00     0.002 C 
HETATM   12  C   UNL     1     -47.688  58.525 -61.514  1.00  0.00     0.002 C 
HETATM   13  C   UNL     1     -47.701  57.023 -61.232  1.00  0.00     0.027 C 
HETATM   14  H   UNL     1     -45.215  56.117 -61.751  1.00  0.00     0.163 HD
ENDROOT
BRANCH   1  15
HETATM   15  C   UNL     1     -43.067  56.555 -57.822  1.00  0.00     0.146 C 
BRANCH  15  16
HETATM   16  C   UNL     1     -42.986  57.265 -56.496  1.00  0.00     0.224 C 
HETATM   17  N   UNL     1     -42.517  56.676 -55.368  1.00  0.00    -0.327 N 
HETATM   18  H   UNL     1     -42.556  57.316 -54.579  1.00  0.00     0.169 HD
HETATM   19  O   UNL     1     -43.290  58.467 -56.454  1.00  0.00    -0.273 OA
BRANCH  17  20
HETATM   20  C   UNL     1     -42.015  55.396 -55.053  1.00  0.00     0.034 A 
HETATM   21  C   UNL     1     -42.770  54.275 -54.715  1.00  0.00     0.030 A 
HETATM   22  C   UNL     1     -42.144  53.059 -54.401  1.00  0.00     0.009 A 
HETATM   23  C   UNL     1     -40.754  52.935 -54.440  1.00  0.00    -0.062 A 
HETATM   24  C   UNL     1     -40.080  51.648 -54.068  1.00  0.00     0.048 C 
HETATM   25  C   UNL     1     -39.994  54.050 -54.789  1.00  0.00     0.009 A 
HETATM   26  C   UNL     1     -40.619  55.264 -55.093  1.00  0.00     0.030 A 
ENDBRANCH  17  20
ENDBRANCH  15  16
ENDBRANCH   1  15
TORSDOF 3
ENDMDL
