MODEL 1
REMARK VINA RESULT:      -9.3      0.000      0.000
REMARK  2 active torsions:
REMARK  status: ('A' for Active; 'I' for Inactive)
REMARK    1  A    between atoms: C_5  and  C_7 
REMARK    2  A    between atoms: C_5  and  O_6 
ROOT
HETATM    1  C   UNL     1     -42.743  59.916 -50.602  1.00  0.00     0.050 C 
HETATM    2  C   UNL     1     -42.196  58.877 -51.531  1.00  0.00    -0.034 A 
HETATM    3  C   UNL     1     -42.566  57.540 -51.503  1.00  0.00     0.052 A 
HETATM    4  C   UNL     1     -42.032  56.577 -52.377  1.00  0.00     0.039 A 
HETATM    5  C   UNL     1     -42.674  55.234 -52.095  1.00  0.00     0.200 A 
HETATM    6  C   UNL     1     -43.619  55.581 -50.892  1.00  0.00     0.266 A 
HETATM    7  O   UNL     1     -44.390  54.853 -50.285  1.00  0.00    -0.269 OA
HETATM    8  N   UNL     1     -43.489  56.948 -50.650  1.00  0.00    -0.323 N 
HETATM    9  C   UNL     1     -41.110  56.964 -53.337  1.00  0.00     0.046 A 
HETATM   10 CL   UNL     1     -40.462  55.876 -54.498  1.00  0.00    -0.084 Cl
HETATM   11  C   UNL     1     -40.712  58.303 -53.386  1.00  0.00     0.025 A 
HETATM   12  C   UNL     1     -41.245  59.247 -52.492  1.00  0.00     0.011 A 
HETATM   13  H   UNL     1     -44.016  57.407 -49.922  1.00  0.00     0.169 HD
ENDROOT
BRANCH   5  14
HETATM   14  C   UNL     1     -41.591  54.252 -51.703  1.00  0.00     0.025 A 
HETATM   15  C   UNL     1     -41.026  53.190 -52.510  1.00  0.00     0.003 A 
HETATM   16  C   UNL     1     -40.058  52.541 -51.743  1.00  0.00     0.043 A 
HETATM   17  C   UNL     1     -41.238  52.712 -53.824  1.00  0.00     0.014 A 
HETATM   18  C   UNL     1     -39.307  51.454 -52.207  1.00  0.00     0.030 A 
HETATM   19  N   UNL     1     -40.017  53.173 -50.527  1.00  0.00    -0.359 N 
HETATM   20  C   UNL     1     -39.543  51.009 -53.509  1.00  0.00     0.002 A 
HETATM   21  C   UNL     1     -40.495  51.629 -54.309  1.00  0.00     0.001 A 
HETATM   22  H   UNL     1     -39.395  52.913 -49.774  1.00  0.00     0.166 HD
HETATM   23  C   UNL     1     -40.911  54.209 -50.485  1.00  0.00     0.016 A 
HETATM   24  C   UNL     1     -41.019  55.062 -49.269  1.00  0.00     0.069 C 
ENDBRANCH   5  14
BRANCH   5  25
HETATM   25  O   UNL     1     -43.457  54.827 -53.216  1.00  0.00    -0.371 OA
HETATM   26  H   UNL     1     -43.480  53.857 -53.210  1.00  0.00     0.212 HD
ENDBRANCH   5  25
TORSDOF 2
ENDMDL
MODEL 2
REMARK VINA RESULT:      -8.6      1.535      2.400
REMARK  2 active torsions:
REMARK  status: ('A' for Active; 'I' for Inactive)
REMARK    1  A    between atoms: C_5  and  C_7 
REMARK    2  A    between atoms: C_5  and  O_6 
ROOT
HETATM    1  C   UNL     1     -40.982  59.102 -49.797  1.00  0.00     0.050 C 
HETATM    2  C   UNL     1     -41.211  58.550 -51.170  1.00  0.00    -0.034 A 
HETATM    3  C   UNL     1     -41.972  57.420 -51.434  1.00  0.00     0.052 A 
HETATM    4  C   UNL     1     -42.165  56.911 -52.730  1.00  0.00     0.039 A 
HETATM    5  C   UNL     1     -43.067  55.696 -52.660  1.00  0.00     0.200 A 
HETATM    6  C   UNL     1     -43.313  55.571 -51.116  1.00  0.00     0.266 A 
HETATM    7  O   UNL     1     -43.996  54.760 -50.509  1.00  0.00    -0.269 OA
HETATM    8  N   UNL     1     -42.647  56.634 -50.508  1.00  0.00    -0.323 N 
HETATM    9  C   UNL     1     -41.601  57.567 -53.812  1.00  0.00     0.046 A 
HETATM   10 CL   UNL     1     -41.846  57.067 -55.436  1.00  0.00    -0.084 Cl
HETATM   11  C   UNL     1     -40.822  58.705 -53.577  1.00  0.00     0.025 A 
HETATM   12  C   UNL     1     -40.626  59.188 -52.273  1.00  0.00     0.011 A 
HETATM   13  H   UNL     1     -42.673  56.770 -49.509  1.00  0.00     0.169 HD
ENDROOT
BRANCH   5  14
HETATM   14  C   UNL     1     -42.318  54.504 -53.216  1.00  0.00     0.025 A 
HETATM   15  C   UNL     1     -41.277  53.732 -52.568  1.00  0.00     0.003 A 
HETATM   16  C   UNL     1     -40.878  52.730 -53.451  1.00  0.00     0.043 A 
HETATM   17  C   UNL     1     -40.630  53.784 -51.311  1.00  0.00     0.014 A 
HETATM   18  C   UNL     1     -39.879  51.794 -53.154  1.00  0.00     0.030 A 
HETATM   19  N   UNL     1     -41.637  52.864 -54.584  1.00  0.00    -0.359 N 
HETATM   20  C   UNL     1     -39.262  51.873 -51.905  1.00  0.00     0.002 A 
HETATM   21  C   UNL     1     -39.632  52.854 -50.993  1.00  0.00     0.001 A 
HETATM   22  H   UNL     1     -41.563  52.261 -55.391  1.00  0.00     0.166 HD
HETATM   23  C   UNL     1     -42.516  53.906 -54.461  1.00  0.00     0.016 A 
HETATM   24  C   UNL     1     -43.469  54.221 -55.561  1.00  0.00     0.069 C 
ENDBRANCH   5  14
BRANCH   5  25
HETATM   25  O   UNL     1     -44.302  55.971 -53.320  1.00  0.00    -0.371 OA
HETATM   26  H   UNL     1     -44.620  55.133 -53.691  1.00  0.00     0.212 HD
ENDBRANCH   5  25
TORSDOF 2
ENDMDL
MODEL 3
REMARK VINA RESULT:      -8.3      2.010      5.998
REMARK  2 active torsions:
REMARK  status: ('A' for Active; 'I' for Inactive)
REMARK    1  A    between atoms: C_5  and  C_7 
REMARK    2  A    between atoms: C_5  and  O_6 
ROOT
HETATM    1  C   UNL     1     -39.487  51.128 -53.939  1.00  0.00     0.050 C 
HETATM    2  C   UNL     1     -40.095  52.082 -52.958  1.00  0.00    -0.034 A 
HETATM    3  C   UNL     1     -41.152  52.932 -53.256  1.00  0.00     0.052 A 
HETATM    4  C   UNL     1     -41.702  53.829 -52.324  1.00  0.00     0.039 A 
HETATM    5  C   UNL     1     -42.852  54.575 -52.968  1.00  0.00     0.200 A 
HETATM    6  C   UNL     1     -42.834  53.993 -54.424  1.00  0.00     0.266 A 
HETATM    7  O   UNL     1     -43.575  54.243 -55.362  1.00  0.00    -0.269 OA
HETATM    8  N   UNL     1     -41.822  53.036 -54.469  1.00  0.00    -0.323 N 
HETATM    9  C   UNL     1     -41.199  53.866 -51.034  1.00  0.00     0.046 A 
HETATM   10 CL   UNL     1     -41.856  54.870 -49.806  1.00  0.00    -0.084 Cl
HETATM   11  C   UNL     1     -40.129  53.027 -50.705  1.00  0.00     0.025 A 
HETATM   12  C   UNL     1     -39.582  52.150 -51.656  1.00  0.00     0.011 A 
HETATM   13  H   UNL     1     -41.628  52.512 -55.309  1.00  0.00     0.169 HD
ENDROOT
BRANCH   5  14
HETATM   14  C   UNL     1     -42.543  56.057 -52.943  1.00  0.00     0.025 A 
HETATM   15  C   UNL     1     -43.271  57.101 -52.251  1.00  0.00     0.003 A 
HETATM   16  C   UNL     1     -42.626  58.311 -52.509  1.00  0.00     0.043 A 
HETATM   17  C   UNL     1     -44.418  57.141 -51.425  1.00  0.00     0.014 A 
HETATM   18  C   UNL     1     -43.062  59.540 -51.999  1.00  0.00     0.030 A 
HETATM   19  N   UNL     1     -41.549  58.033 -53.309  1.00  0.00    -0.359 N 
HETATM   20  C   UNL     1     -44.198  59.543 -51.188  1.00  0.00     0.002 A 
HETATM   21  C   UNL     1     -44.868  58.360 -50.902  1.00  0.00     0.001 A 
HETATM   22  H   UNL     1     -40.898  58.728 -53.645  1.00  0.00     0.166 HD
HETATM   23  C   UNL     1     -41.468  56.691 -53.569  1.00  0.00     0.016 A 
HETATM   24  C   UNL     1     -40.354  56.149 -54.395  1.00  0.00     0.069 C 
ENDBRANCH   5  14
BRANCH   5  25
HETATM   25  O   UNL     1     -44.077  54.222 -52.327  1.00  0.00    -0.371 OA
HETATM   26  H   UNL     1     -44.775  54.267 -53.000  1.00  0.00     0.212 HD
ENDBRANCH   5  25
TORSDOF 2
ENDMDL
MODEL 4
REMARK VINA RESULT:      -8.1      1.844      5.746
REMARK  2 active torsions:
REMARK  status: ('A' for Active; 'I' for Inactive)
REMARK    1  A    between atoms: C_5  and  C_7 
REMARK    2  A    between atoms: C_5  and  O_6 
ROOT
HETATM    1  C   UNL     1     -39.813  51.526 -52.030  1.00  0.00     0.050 C 
HETATM    2  C   UNL     1     -40.231  52.883 -52.505  1.00  0.00    -0.034 A 
HETATM    3  C   UNL     1     -40.584  53.925 -51.659  1.00  0.00     0.052 A 
HETATM    4  C   UNL     1     -40.984  55.190 -52.125  1.00  0.00     0.039 A 
HETATM    5  C   UNL     1     -41.265  56.093 -50.941  1.00  0.00     0.200 A 
HETATM    6  C   UNL     1     -41.007  55.124 -49.735  1.00  0.00     0.266 A 
HETATM    7  O   UNL     1     -41.074  55.353 -48.537  1.00  0.00    -0.269 OA
HETATM    8  N   UNL     1     -40.598  53.904 -50.270  1.00  0.00    -0.323 N 
HETATM    9  C   UNL     1     -41.009  55.438 -53.488  1.00  0.00     0.046 A 
HETATM   10 CL   UNL     1     -41.408  56.972 -54.148  1.00  0.00    -0.084 Cl
HETATM   11  C   UNL     1     -40.666  54.405 -54.366  1.00  0.00     0.025 A 
HETATM   12  C   UNL     1     -40.285  53.143 -53.881  1.00  0.00     0.011 A 
HETATM   13  H   UNL     1     -40.361  53.122 -49.678  1.00  0.00     0.169 HD
ENDROOT
BRANCH   5  14
HETATM   14  C   UNL     1     -42.708  56.546 -51.010  1.00  0.00     0.025 A 
HETATM   15  C   UNL     1     -43.204  57.888 -51.239  1.00  0.00     0.003 A 
HETATM   16  C   UNL     1     -44.598  57.834 -51.221  1.00  0.00     0.043 A 
HETATM   17  C   UNL     1     -42.606  59.149 -51.462  1.00  0.00     0.014 A 
HETATM   18  C   UNL     1     -45.414  58.957 -51.406  1.00  0.00     0.030 A 
HETATM   19  N   UNL     1     -44.950  56.528 -51.003  1.00  0.00    -0.359 N 
HETATM   20  C   UNL     1     -44.791  60.187 -51.624  1.00  0.00     0.002 A 
HETATM   21  C   UNL     1     -43.405  60.284 -51.654  1.00  0.00     0.001 A 
HETATM   22  H   UNL     1     -45.903  56.198 -50.950  1.00  0.00     0.166 HD
HETATM   23  C   UNL     1     -43.838  55.736 -50.890  1.00  0.00     0.016 A 
HETATM   24  C   UNL     1     -43.977  54.268 -50.682  1.00  0.00     0.069 C 
ENDBRANCH   5  14
BRANCH   5  25
HETATM   25  O   UNL     1     -40.318  57.159 -50.909  1.00  0.00    -0.371 OA
HETATM   26  H   UNL     1     -40.165  57.433 -51.827  1.00  0.00     0.212 HD
ENDBRANCH   5  25
TORSDOF 2
ENDMDL
MODEL 5
REMARK VINA RESULT:      -8.0      2.630      3.869
REMARK  2 active torsions:
REMARK  status: ('A' for Active; 'I' for Inactive)
REMARK    1  A    between atoms: C_5  and  C_7 
REMARK    2  A    between atoms: C_5  and  O_6 
ROOT
HETATM    1  C   UNL     1     -44.384  61.330 -51.628  1.00  0.00     0.050 C 
HETATM    2  C   UNL     1     -44.188  59.851 -51.497  1.00  0.00    -0.034 A 
HETATM    3  C   UNL     1     -42.976  59.209 -51.704  1.00  0.00     0.052 A 
HETATM    4  C   UNL     1     -42.814  57.817 -51.587  1.00  0.00     0.039 A 
HETATM    5  C   UNL     1     -41.366  57.458 -51.846  1.00  0.00     0.200 A 
HETATM    6  C   UNL     1     -40.745  58.860 -52.176  1.00  0.00     0.266 A 
HETATM    7  O   UNL     1     -39.588  59.145 -52.443  1.00  0.00    -0.269 OA
HETATM    8  N   UNL     1     -41.765  59.801 -52.042  1.00  0.00    -0.323 N 
HETATM    9  C   UNL     1     -43.897  57.034 -51.222  1.00  0.00     0.046 A 
HETATM   10 CL   UNL     1     -43.780  55.338 -50.978  1.00  0.00    -0.084 Cl
HETATM   11  C   UNL     1     -45.135  57.651 -51.014  1.00  0.00     0.025 A 
HETATM   12  C   UNL     1     -45.279  59.041 -51.154  1.00  0.00     0.011 A 
HETATM   13  H   UNL     1     -41.598  60.784 -52.194  1.00  0.00     0.169 HD
ENDROOT
BRANCH   5  14
HETATM   14  C   UNL     1     -41.305  56.516 -53.030  1.00  0.00     0.025 A 
HETATM   15  C   UNL     1     -40.945  55.112 -53.025  1.00  0.00     0.003 A 
HETATM   16  C   UNL     1     -41.028  54.649 -54.338  1.00  0.00     0.043 A 
HETATM   17  C   UNL     1     -40.557  54.183 -52.032  1.00  0.00     0.014 A 
HETATM   18  C   UNL     1     -40.742  53.328 -54.708  1.00  0.00     0.030 A 
HETATM   19  N   UNL     1     -41.428  55.704 -55.115  1.00  0.00    -0.359 N 
HETATM   20  C   UNL     1     -40.362  52.438 -53.703  1.00  0.00     0.002 A 
HETATM   21  C   UNL     1     -40.271  52.857 -52.381  1.00  0.00     0.001 A 
HETATM   22  H   UNL     1     -41.577  55.649 -56.113  1.00  0.00     0.166 HD
HETATM   23  C   UNL     1     -41.616  56.826 -54.354  1.00  0.00     0.016 A 
HETATM   24  C   UNL     1     -42.085  58.093 -54.982  1.00  0.00     0.069 C 
ENDBRANCH   5  14
BRANCH   5  25
HETATM   25  O   UNL     1     -40.774  56.942 -50.655  1.00  0.00    -0.371 OA
HETATM   26  H   UNL     1     -40.292  57.672 -50.236  1.00  0.00     0.212 HD
ENDBRANCH   5  25
TORSDOF 2
ENDMDL
MODEL 6
REMARK VINA RESULT:      -8.0      2.470      5.808
REMARK  2 active torsions:
REMARK  status: ('A' for Active; 'I' for Inactive)
REMARK    1  A    between atoms: C_5  and  C_7 
REMARK    2  A    between atoms: C_5  and  O_6 
ROOT
HETATM    1  C   UNL     1     -40.069  53.916 -55.083  1.00  0.00     0.050 C 
HETATM    2  C   UNL     1     -41.035  54.253 -53.990  1.00  0.00    -0.034 A 
HETATM    3  C   UNL     1     -41.833  55.389 -53.984  1.00  0.00     0.052 A 
HETATM    4  C   UNL     1     -42.727  55.694 -52.943  1.00  0.00     0.039 A 
HETATM    5  C   UNL     1     -43.457  56.980 -53.270  1.00  0.00     0.200 A 
HETATM    6  C   UNL     1     -42.799  57.379 -54.637  1.00  0.00     0.266 A 
HETATM    7  O   UNL     1     -43.040  58.337 -55.356  1.00  0.00    -0.269 OA
HETATM    8  N   UNL     1     -41.889  56.374 -54.962  1.00  0.00    -0.323 N 
HETATM    9  C   UNL     1     -42.853  54.820 -51.875  1.00  0.00     0.046 A 
HETATM   10 CL   UNL     1     -43.973  55.067 -50.596  1.00  0.00    -0.084 Cl
HETATM   11  C   UNL     1     -42.057  53.671 -51.848  1.00  0.00     0.025 A 
HETATM   12  C   UNL     1     -41.157  53.393 -52.891  1.00  0.00     0.011 A 
HETATM   13  H   UNL     1     -41.350  56.407 -55.814  1.00  0.00     0.169 HD
ENDROOT
BRANCH   5  14
HETATM   14  C   UNL     1     -43.167  57.992 -52.182  1.00  0.00     0.025 A 
HETATM   15  C   UNL     1     -41.873  58.482 -51.752  1.00  0.00     0.003 A 
HETATM   16  C   UNL     1     -42.087  59.401 -50.725  1.00  0.00     0.043 A 
HETATM   17  C   UNL     1     -40.534  58.238 -52.136  1.00  0.00     0.014 A 
HETATM   18  C   UNL     1     -41.051  60.075 -50.066  1.00  0.00     0.030 A 
HETATM   19  N   UNL     1     -43.441  59.485 -50.533  1.00  0.00    -0.359 N 
HETATM   20  C   UNL     1     -39.741  59.811 -50.470  1.00  0.00     0.002 A 
HETATM   21  C   UNL     1     -39.484  58.905 -51.492  1.00  0.00     0.001 A 
HETATM   22  H   UNL     1     -43.881  60.086 -49.851  1.00  0.00     0.166 HD
HETATM   23  C   UNL     1     -44.109  58.665 -51.403  1.00  0.00     0.016 A 
HETATM   24  C   UNL     1     -45.597  58.616 -51.401  1.00  0.00     0.069 C 
ENDBRANCH   5  14
BRANCH   5  25
HETATM   25  O   UNL     1     -44.844  56.713 -53.467  1.00  0.00    -0.371 OA
HETATM   26  H   UNL     1     -44.992  56.662 -54.424  1.00  0.00     0.212 HD
ENDBRANCH   5  25
TORSDOF 2
ENDMDL
MODEL 7
REMARK VINA RESULT:      -7.9     14.976     16.769
REMARK  2 active torsions:
REMARK  status: ('A' for Active; 'I' for Inactive)
REMARK    1  A    between atoms: C_5  and  C_7 
REMARK    2  A    between atoms: C_5  and  O_6 
ROOT
HETATM    1  C   UNL     1     -33.146  40.086 -50.221  1.00  0.00     0.050 C 
HETATM    2  C   UNL     1     -33.066  40.173 -51.714  1.00  0.00    -0.034 A 
HETATM    3  C   UNL     1     -34.045  40.749 -52.510  1.00  0.00     0.052 A 
HETATM    4  C   UNL     1     -33.957  40.811 -53.912  1.00  0.00     0.039 A 
HETATM    5  C   UNL     1     -35.173  41.529 -54.459  1.00  0.00     0.200 A 
HETATM    6  C   UNL     1     -35.985  41.820 -53.149  1.00  0.00     0.266 A 
HETATM    7  O   UNL     1     -37.051  42.403 -53.018  1.00  0.00    -0.269 OA
HETATM    8  N   UNL     1     -35.226  41.343 -52.082  1.00  0.00    -0.323 N 
HETATM    9  C   UNL     1     -32.836  40.302 -54.547  1.00  0.00     0.046 A 
HETATM   10 CL   UNL     1     -32.602  40.402 -56.246  1.00  0.00    -0.084 Cl
HETATM   11  C   UNL     1     -31.835  39.707 -53.772  1.00  0.00     0.025 A 
HETATM   12  C   UNL     1     -31.950  39.640 -52.374  1.00  0.00     0.011 A 
HETATM   13  H   UNL     1     -35.543  41.431 -51.128  1.00  0.00     0.169 HD
ENDROOT
BRANCH   5  14
HETATM   14  C   UNL     1     -35.911  40.591 -55.390  1.00  0.00     0.025 A 
HETATM   15  C   UNL     1     -36.406  40.875 -56.722  1.00  0.00     0.003 A 
HETATM   16  C   UNL     1     -37.018  39.718 -57.203  1.00  0.00     0.043 A 
HETATM   17  C   UNL     1     -36.393  42.004 -57.573  1.00  0.00     0.014 A 
HETATM   18  C   UNL     1     -37.615  39.631 -58.467  1.00  0.00     0.030 A 
HETATM   19  N   UNL     1     -36.902  38.763 -56.228  1.00  0.00    -0.359 N 
HETATM   20  C   UNL     1     -37.584  40.764 -59.281  1.00  0.00     0.002 A 
HETATM   21  C   UNL     1     -36.981  41.937 -58.843  1.00  0.00     0.001 A 
HETATM   22  H   UNL     1     -37.253  37.820 -56.312  1.00  0.00     0.166 HD
HETATM   23  C   UNL     1     -36.229  39.256 -55.141  1.00  0.00     0.016 A 
HETATM   24  C   UNL     1     -35.955  38.383 -53.966  1.00  0.00     0.069 C 
ENDBRANCH   5  14
BRANCH   5  25
HETATM   25  O   UNL     1     -34.778  42.761 -55.060  1.00  0.00    -0.371 OA
HETATM   26  H   UNL     1     -33.811  42.753 -55.119  1.00  0.00     0.212 HD
ENDBRANCH   5  25
TORSDOF 2
ENDMDL
MODEL 8
REMARK VINA RESULT:      -7.8      2.871      3.662
REMARK  2 active torsions:
REMARK  status: ('A' for Active; 'I' for Inactive)
REMARK    1  A    between atoms: C_5  and  C_7 
REMARK    2  A    between atoms: C_5  and  O_6 
ROOT
HETATM    1  C   UNL     1     -43.413  60.427 -55.693  1.00  0.00     0.050 C 
HETATM    2  C   UNL     1     -43.635  59.514 -54.527  1.00  0.00    -0.034 A 
HETATM    3  C   UNL     1     -42.623  59.069 -53.688  1.00  0.00     0.052 A 
HETATM    4  C   UNL     1     -42.850  58.202 -52.605  1.00  0.00     0.039 A 
HETATM    5  C   UNL     1     -41.541  57.945 -51.887  1.00  0.00     0.200 A 
HETATM    6  C   UNL     1     -40.531  58.765 -52.765  1.00  0.00     0.266 A 
HETATM    7  O   UNL     1     -39.328  58.915 -52.615  1.00  0.00    -0.269 OA
HETATM    8  N   UNL     1     -41.273  59.389 -53.766  1.00  0.00    -0.323 N 
HETATM    9  C   UNL     1     -44.140  57.781 -52.327  1.00  0.00     0.046 A 
HETATM   10 CL   UNL     1     -44.527  56.788 -50.980  1.00  0.00    -0.084 Cl
HETATM   11  C   UNL     1     -45.181  58.207 -53.159  1.00  0.00     0.025 A 
HETATM   12  C   UNL     1     -44.931  59.059 -54.247  1.00  0.00     0.011 A 
HETATM   13  H   UNL     1     -40.836  59.987 -54.451  1.00  0.00     0.169 HD
ENDROOT
BRANCH   5  14
HETATM   14  C   UNL     1     -41.252  56.460 -51.923  1.00  0.00     0.025 A 
HETATM   15  C   UNL     1     -41.006  55.634 -53.088  1.00  0.00     0.003 A 
HETATM   16  C   UNL     1     -40.786  54.330 -52.646  1.00  0.00     0.043 A 
HETATM   17  C   UNL     1     -40.945  55.866 -54.482  1.00  0.00     0.014 A 
HETATM   18  C   UNL     1     -40.519  53.259 -53.508  1.00  0.00     0.030 A 
HETATM   19  N   UNL     1     -40.881  54.345 -51.279  1.00  0.00    -0.359 N 
HETATM   20  C   UNL     1     -40.466  53.523 -54.878  1.00  0.00     0.002 A 
HETATM   21  C   UNL     1     -40.675  54.809 -55.361  1.00  0.00     0.001 A 
HETATM   22  H   UNL     1     -40.757  53.532 -50.693  1.00  0.00     0.166 HD
HETATM   23  C   UNL     1     -41.142  55.609 -50.823  1.00  0.00     0.016 A 
HETATM   24  C   UNL     1     -41.255  55.874 -49.362  1.00  0.00     0.069 C 
ENDBRANCH   5  14
BRANCH   5  25
HETATM   25  O   UNL     1     -41.591  58.500 -50.574  1.00  0.00    -0.371 OA
HETATM   26  H   UNL     1     -41.150  57.873 -49.981  1.00  0.00     0.212 HD
ENDBRANCH   5  25
TORSDOF 2
ENDMDL
MODEL 9
REMARK VINA RESULT:      -7.6      2.161      2.849
REMARK  2 active torsions:
REMARK  status: ('A' for Active; 'I' for Inactive)
REMARK    1  A    between atoms: C_5  and  C_7 
REMARK    2  A    between atoms: C_5  and  O_6 
ROOT
HETATM    1  C   UNL     1     -42.113  58.471 -55.540  1.00  0.00     0.050 C 
HETATM    2  C   UNL     1     -42.591  57.351 -54.668  1.00  0.00    -0.034 A 
HETATM    3  C   UNL     1     -42.098  57.096 -53.396  1.00  0.00     0.052 A 
HETATM    4  C   UNL     1     -42.552  56.032 -52.596  1.00  0.00     0.039 A 
HETATM    5  C   UNL     1     -41.830  56.063 -51.265  1.00  0.00     0.200 A 
HETATM    6  C   UNL     1     -40.862  57.282 -51.457  1.00  0.00     0.266 A 
HETATM    7  O   UNL     1     -40.060  57.759 -50.669  1.00  0.00    -0.269 OA
HETATM    8  N   UNL     1     -41.120  57.814 -52.720  1.00  0.00    -0.323 N 
HETATM    9  C   UNL     1     -43.557  55.204 -53.070  1.00  0.00     0.046 A 
HETATM   10 CL   UNL     1     -44.230  53.929 -52.137  1.00  0.00    -0.084 Cl
HETATM   11  C   UNL     1     -44.068  55.431 -54.351  1.00  0.00     0.025 A 
HETATM   12  C   UNL     1     -43.589  56.489 -55.141  1.00  0.00     0.011 A 
HETATM   13  H   UNL     1     -40.622  58.622 -53.063  1.00  0.00     0.169 HD
ENDROOT
BRANCH   5  14
HETATM   14  C   UNL     1     -41.078  54.760 -51.092  1.00  0.00     0.025 A 
HETATM   15  C   UNL     1     -40.620  53.858 -52.129  1.00  0.00     0.003 A 
HETATM   16  C   UNL     1     -39.976  52.789 -51.508  1.00  0.00     0.043 A 
HETATM   17  C   UNL     1     -40.687  53.843 -53.541  1.00  0.00     0.014 A 
HETATM   18  C   UNL     1     -39.408  51.718 -52.210  1.00  0.00     0.030 A 
HETATM   19  N   UNL     1     -40.021  53.019 -50.157  1.00  0.00    -0.359 N 
HETATM   20  C   UNL     1     -39.492  51.735 -53.603  1.00  0.00     0.002 A 
HETATM   21  C   UNL     1     -40.122  52.784 -54.262  1.00  0.00     0.001 A 
HETATM   22  H   UNL     1     -39.621  52.403 -49.464  1.00  0.00     0.166 HD
HETATM   23  C   UNL     1     -40.660  54.199 -49.885  1.00  0.00     0.016 A 
HETATM   24  C   UNL     1     -40.800  54.672 -48.480  1.00  0.00     0.069 C 
ENDBRANCH   5  14
BRANCH   5  25
HETATM   25  O   UNL     1     -42.756  56.349 -50.218  1.00  0.00    -0.371 OA
HETATM   26  H   UNL     1     -42.256  56.772 -49.503  1.00  0.00     0.212 HD
ENDBRANCH   5  25
TORSDOF 2
ENDMDL
MODEL 10
REMARK VINA RESULT:      -7.6      2.701      5.371
REMARK  2 active torsions:
REMARK  status: ('A' for Active; 'I' for Inactive)
REMARK    1  A    between atoms: C_5  and  C_7 
REMARK    2  A    between atoms: C_5  and  O_6 
ROOT
HETATM    1  C   UNL     1     -40.462  54.295 -48.573  1.00  0.00     0.050 C 
HETATM    2  C   UNL     1     -40.663  54.483 -50.045  1.00  0.00    -0.034 A 
HETATM    3  C   UNL     1     -40.979  55.699 -50.635  1.00  0.00     0.052 A 
HETATM    4  C   UNL     1     -41.174  55.853 -52.018  1.00  0.00     0.039 A 
HETATM    5  C   UNL     1     -41.472  57.307 -52.322  1.00  0.00     0.200 A 
HETATM    6  C   UNL     1     -41.461  57.940 -50.888  1.00  0.00     0.266 A 
HETATM    7  O   UNL     1     -41.628  59.105 -50.560  1.00  0.00    -0.269 OA
HETATM    8  N   UNL     1     -41.145  56.919 -49.992  1.00  0.00    -0.323 N 
HETATM    9  C   UNL     1     -41.024  54.759 -52.855  1.00  0.00     0.046 A 
HETATM   10 CL   UNL     1     -41.165  54.865 -54.563  1.00  0.00    -0.084 Cl
HETATM   11  C   UNL     1     -40.713  53.518 -52.289  1.00  0.00     0.025 A 
HETATM   12  C   UNL     1     -40.538  53.381 -50.902  1.00  0.00     0.011 A 
HETATM   13  H   UNL     1     -41.067  57.093 -49.002  1.00  0.00     0.169 HD
ENDROOT
BRANCH   5  14
HETATM   14  C   UNL     1     -42.835  57.396 -52.974  1.00  0.00     0.025 A 
HETATM   15  C   UNL     1     -43.140  57.775 -54.339  1.00  0.00     0.003 A 
HETATM   16  C   UNL     1     -44.525  57.716 -54.497  1.00  0.00     0.043 A 
HETATM   17  C   UNL     1     -42.375  58.163 -55.463  1.00  0.00     0.014 A 
HETATM   18  C   UNL     1     -45.177  58.025 -55.697  1.00  0.00     0.030 A 
HETATM   19  N   UNL     1     -45.052  57.312 -53.298  1.00  0.00    -0.359 N 
HETATM   20  C   UNL     1     -44.391  58.404 -56.787  1.00  0.00     0.002 A 
HETATM   21  C   UNL     1     -43.008  58.471 -56.674  1.00  0.00     0.001 A 
HETATM   22  H   UNL     1     -46.038  57.177 -53.129  1.00  0.00     0.166 HD
HETATM   23  C   UNL     1     -44.061  57.098 -52.378  1.00  0.00     0.016 A 
HETATM   24  C   UNL     1     -44.396  56.621 -51.008  1.00  0.00     0.069 C 
ENDBRANCH   5  14
BRANCH   5  25
HETATM   25  O   UNL     1     -40.413  57.866 -53.099  1.00  0.00    -0.371 OA
HETATM   26  H   UNL     1     -40.647  58.790 -53.277  1.00  0.00     0.212 HD
ENDBRANCH   5  25
TORSDOF 2
ENDMDL
