MODEL 1
REMARK VINA RESULT:      -7.5      0.000      0.000
REMARK  6 active torsions:
REMARK  status: ('A' for Active; 'I' for Inactive)
REMARK    1  A    between atoms: C_4  and  C_5 
REMARK    2  A    between atoms: C_5  and  N_6 
REMARK    3  A    between atoms: C_5  and  C_22 
REMARK    4  A    between atoms: N_6  and  C_9 
REMARK    5  A    between atoms: C_9  and  C_10 
REMARK    6  A    between atoms: C_13  and  C_14 
REMARK       I    between atoms: C_22  and  N_23 
ROOT
HETATM    1  N   UNL     1     -42.821  57.659 -54.395  1.00  0.00    -0.054 N 
HETATM    2  H   UNL     1     -43.150  58.579 -54.700  1.00  0.00     0.278 HD
HETATM    3  H   UNL     1     -41.880  57.792 -54.003  1.00  0.00     0.278 HD
ENDROOT
BRANCH   1   4
HETATM    4  C   UNL     1     -43.685  57.137 -53.269  1.00  0.00     0.310 C 
BRANCH   4   5
HETATM    5  C   UNL     1     -42.881  56.463 -52.178  1.00  0.00    -0.019 A 
HETATM    6  C   UNL     1     -43.199  55.193 -51.670  1.00  0.00     0.010 A 
HETATM    7  C   UNL     1     -42.438  54.624 -50.647  1.00  0.00     0.001 A 
HETATM    8  C   UNL     1     -41.363  55.321 -50.101  1.00  0.00     0.000 A 
HETATM    9  C   UNL     1     -41.042  56.587 -50.579  1.00  0.00     0.001 A 
HETATM   10  C   UNL     1     -41.790  57.154 -51.611  1.00  0.00     0.010 A 
ENDBRANCH   4   5
BRANCH   4  11
HETATM   11  C   UNL     1     -44.683  58.229 -52.813  1.00  0.00     0.251 C 
HETATM   12  N   UNL     1     -45.148  58.178 -51.532  1.00  0.00    -0.368 N 
HETATM   13  H   UNL     1     -44.800  57.553 -50.813  1.00  0.00     0.159 HD
HETATM   14  H   UNL     1     -45.808  58.890 -51.234  1.00  0.00     0.159 HD
HETATM   15  O   UNL     1     -45.114  59.065 -53.606  1.00  0.00    -0.271 OA
ENDBRANCH   4  11
ENDBRANCH   1   4
BRANCH   1  16
HETATM   16  C   UNL     1     -42.649  56.792 -55.596  1.00  0.00     0.272 C 
BRANCH  16  17
HETATM   17  C   UNL     1     -42.020  55.491 -55.172  1.00  0.00    -0.033 A 
HETATM   18  C   UNL     1     -42.771  54.309 -55.172  1.00  0.00     0.010 A 
HETATM   19  C   UNL     1     -42.227  53.122 -54.670  1.00  0.00     0.013 A 
HETATM   20  C   UNL     1     -40.919  53.076 -54.160  1.00  0.00    -0.025 A 
HETATM   21  C   UNL     1     -40.170  54.263 -54.186  1.00  0.00     0.013 A 
HETATM   22  C   UNL     1     -40.710  55.457 -54.678  1.00  0.00     0.010 A 
BRANCH  20  23
HETATM   23  C   UNL     1     -40.356  51.828 -53.611  1.00  0.00    -0.008 A 
HETATM   24  C   UNL     1     -40.220  50.673 -54.384  1.00  0.00     0.128 A 
HETATM   25  N   UNL     1     -39.730  49.491 -53.937  1.00  0.00    -0.272 NA
HETATM   26  C   UNL     1     -39.338  49.445 -52.648  1.00  0.00     0.116 A 
HETATM   27  C   UNL     1     -39.420  50.525 -51.788  1.00  0.00     0.020 A 
HETATM   28  C   UNL     1     -39.936  51.726 -52.278  1.00  0.00     0.015 A 
ENDBRANCH  20  23
ENDBRANCH  16  17
ENDBRANCH   1  16
TORSDOF 6
ENDMDL
MODEL 2
REMARK VINA RESULT:      -7.4      2.067      4.294
REMARK  6 active torsions:
REMARK  status: ('A' for Active; 'I' for Inactive)
REMARK    1  A    between atoms: C_4  and  C_5 
REMARK    2  A    between atoms: C_5  and  N_6 
REMARK    3  A    between atoms: C_5  and  C_22 
REMARK    4  A    between atoms: N_6  and  C_9 
REMARK    5  A    between atoms: C_9  and  C_10 
REMARK    6  A    between atoms: C_13  and  C_14 
REMARK       I    between atoms: C_22  and  N_23 
ROOT
HETATM    1  N   UNL     1     -42.081  57.823 -55.273  1.00  0.00    -0.054 N 
HETATM    2  H   UNL     1     -41.610  57.093 -55.815  1.00  0.00     0.278 HD
HETATM    3  H   UNL     1     -41.644  58.717 -55.530  1.00  0.00     0.278 HD
ENDROOT
BRANCH   1   4
HETATM    4  C   UNL     1     -43.534  57.924 -55.679  1.00  0.00     0.310 C 
BRANCH   4   5
HETATM    5  C   UNL     1     -43.813  57.285 -57.022  1.00  0.00    -0.019 A 
HETATM    6  C   UNL     1     -43.031  56.243 -57.547  1.00  0.00     0.010 A 
HETATM    7  C   UNL     1     -43.317  55.702 -58.803  1.00  0.00     0.001 A 
HETATM    8  C   UNL     1     -44.370  56.206 -59.562  1.00  0.00     0.000 A 
HETATM    9  C   UNL     1     -45.146  57.249 -59.066  1.00  0.00     0.001 A 
HETATM   10  C   UNL     1     -44.874  57.783 -57.806  1.00  0.00     0.010 A 
ENDBRANCH   4   5
BRANCH   4  11
HETATM   11  C   UNL     1     -44.447  57.488 -54.507  1.00  0.00     0.251 C 
HETATM   12  N   UNL     1     -44.798  56.173 -54.424  1.00  0.00    -0.368 N 
HETATM   13  H   UNL     1     -44.413  55.432 -54.999  1.00  0.00     0.159 HD
HETATM   14  H   UNL     1     -45.403  55.887 -53.659  1.00  0.00     0.159 HD
HETATM   15  O   UNL     1     -44.913  58.315 -53.725  1.00  0.00    -0.271 OA
ENDBRANCH   4  11
ENDBRANCH   1   4
BRANCH   1  16
HETATM   16  C   UNL     1     -41.777  57.615 -53.828  1.00  0.00     0.272 C 
BRANCH  16  17
HETATM   17  C   UNL     1     -41.272  56.209 -53.634  1.00  0.00    -0.033 A 
HETATM   18  C   UNL     1     -40.761  55.486 -54.718  1.00  0.00     0.010 A 
HETATM   19  C   UNL     1     -40.399  54.143 -54.568  1.00  0.00     0.013 A 
HETATM   20  C   UNL     1     -40.530  53.484 -53.335  1.00  0.00    -0.025 A 
HETATM   21  C   UNL     1     -41.023  54.228 -52.251  1.00  0.00     0.013 A 
HETATM   22  C   UNL     1     -41.397  55.569 -52.394  1.00  0.00     0.010 A 
BRANCH  20  23
HETATM   23  C   UNL     1     -40.168  52.061 -53.185  1.00  0.00    -0.008 A 
HETATM   24  C   UNL     1     -39.775  51.522 -51.958  1.00  0.00     0.128 A 
HETATM   25  N   UNL     1     -39.413  50.232 -51.756  1.00  0.00    -0.272 NA
HETATM   26  C   UNL     1     -39.448  49.417 -52.829  1.00  0.00     0.116 A 
HETATM   27  C   UNL     1     -39.825  49.835 -54.092  1.00  0.00     0.020 A 
HETATM   28  C   UNL     1     -40.187  51.172 -54.267  1.00  0.00     0.015 A 
ENDBRANCH  20  23
ENDBRANCH  16  17
ENDBRANCH   1  16
TORSDOF 6
ENDMDL
MODEL 3
REMARK VINA RESULT:      -7.2      3.843      6.080
REMARK  6 active torsions:
REMARK  status: ('A' for Active; 'I' for Inactive)
REMARK    1  A    between atoms: C_4  and  C_5 
REMARK    2  A    between atoms: C_5  and  N_6 
REMARK    3  A    between atoms: C_5  and  C_22 
REMARK    4  A    between atoms: N_6  and  C_9 
REMARK    5  A    between atoms: C_9  and  C_10 
REMARK    6  A    between atoms: C_13  and  C_14 
REMARK       I    between atoms: C_22  and  N_23 
ROOT
HETATM    1  N   UNL     1     -42.073  57.459 -57.535  1.00  0.00    -0.054 N 
HETATM    2  H   UNL     1     -41.409  56.693 -57.680  1.00  0.00     0.278 HD
HETATM    3  H   UNL     1     -41.553  58.228 -57.095  1.00  0.00     0.278 HD
ENDROOT
BRANCH   1   4
HETATM    4  C   UNL     1     -42.571  57.983 -58.863  1.00  0.00     0.310 C 
BRANCH   4   5
HETATM    5  C   UNL     1     -42.087  59.387 -59.156  1.00  0.00    -0.019 A 
HETATM    6  C   UNL     1     -42.101  59.945 -60.446  1.00  0.00     0.010 A 
HETATM    7  C   UNL     1     -41.622  61.238 -60.667  1.00  0.00     0.001 A 
HETATM    8  C   UNL     1     -41.102  61.984 -59.613  1.00  0.00     0.000 A 
HETATM    9  C   UNL     1     -41.065  61.443 -58.332  1.00  0.00     0.001 A 
HETATM   10  C   UNL     1     -41.556  60.158 -58.102  1.00  0.00     0.010 A 
ENDBRANCH   4   5
BRANCH   4  11
HETATM   11  C   UNL     1     -42.338  56.929 -59.973  1.00  0.00     0.251 C 
HETATM   12  N   UNL     1     -41.052  56.610 -60.294  1.00  0.00    -0.368 N 
HETATM   13  H   UNL     1     -40.233  56.916 -59.781  1.00  0.00     0.159 HD
HETATM   14  H   UNL     1     -40.899  55.923 -61.027  1.00  0.00     0.159 HD
HETATM   15  O   UNL     1     -43.281  56.459 -60.608  1.00  0.00    -0.271 OA
ENDBRANCH   4  11
ENDBRANCH   1   4
BRANCH   1  16
HETATM   16  C   UNL     1     -43.092  57.024 -56.535  1.00  0.00     0.272 C 
BRANCH  16  17
HETATM   17  C   UNL     1     -42.515  55.906 -55.708  1.00  0.00    -0.033 A 
HETATM   18  C   UNL     1     -41.358  56.113 -54.947  1.00  0.00     0.010 A 
HETATM   19  C   UNL     1     -40.754  55.049 -54.269  1.00  0.00     0.013 A 
HETATM   20  C   UNL     1     -41.286  53.750 -54.324  1.00  0.00    -0.025 A 
HETATM   21  C   UNL     1     -42.458  53.561 -55.074  1.00  0.00     0.013 A 
HETATM   22  C   UNL     1     -43.064  54.618 -55.762  1.00  0.00     0.010 A 
BRANCH  20  23
HETATM   23  C   UNL     1     -40.634  52.626 -53.628  1.00  0.00    -0.008 A 
HETATM   24  C   UNL     1     -40.228  52.715 -52.294  1.00  0.00     0.128 A 
HETATM   25  N   UNL     1     -39.608  51.730 -51.602  1.00  0.00    -0.272 NA
HETATM   26  C   UNL     1     -39.380  50.576 -52.261  1.00  0.00     0.116 A 
HETATM   27  C   UNL     1     -39.740  50.369 -53.580  1.00  0.00     0.020 A 
HETATM   28  C   UNL     1     -40.372  51.407 -54.267  1.00  0.00     0.015 A 
ENDBRANCH  20  23
ENDBRANCH  16  17
ENDBRANCH   1  16
TORSDOF 6
ENDMDL
MODEL 4
REMARK VINA RESULT:      -7.1      1.878      2.925
REMARK  6 active torsions:
REMARK  status: ('A' for Active; 'I' for Inactive)
REMARK    1  A    between atoms: C_4  and  C_5 
REMARK    2  A    between atoms: C_5  and  N_6 
REMARK    3  A    between atoms: C_5  and  C_22 
REMARK    4  A    between atoms: N_6  and  C_9 
REMARK    5  A    between atoms: C_9  and  C_10 
REMARK    6  A    between atoms: C_13  and  C_14 
REMARK       I    between atoms: C_22  and  N_23 
ROOT
HETATM    1  N   UNL     1     -42.339  58.058 -54.890  1.00  0.00    -0.054 N 
HETATM    2  H   UNL     1     -42.004  57.639 -55.762  1.00  0.00     0.278 HD
HETATM    3  H   UNL     1     -42.350  59.076 -55.031  1.00  0.00     0.278 HD
ENDROOT
BRANCH   1   4
HETATM    4  C   UNL     1     -43.770  57.648 -54.624  1.00  0.00     0.310 C 
BRANCH   4   5
HETATM    5  C   UNL     1     -44.293  58.168 -53.302  1.00  0.00    -0.019 A 
HETATM    6  C   UNL     1     -44.562  57.331 -52.207  1.00  0.00     0.010 A 
HETATM    7  C   UNL     1     -45.065  57.858 -51.015  1.00  0.00     0.001 A 
HETATM    8  C   UNL     1     -45.327  59.222 -50.906  1.00  0.00     0.000 A 
HETATM    9  C   UNL     1     -45.082  60.064 -51.985  1.00  0.00     0.001 A 
HETATM   10  C   UNL     1     -44.566  59.545 -53.173  1.00  0.00     0.010 A 
ENDBRANCH   4   5
BRANCH   4  11
HETATM   11  C   UNL     1     -44.646  57.930 -55.870  1.00  0.00     0.251 C 
HETATM   12  N   UNL     1     -45.976  57.644 -55.796  1.00  0.00    -0.368 N 
HETATM   13  H   UNL     1     -46.466  57.372 -54.950  1.00  0.00     0.159 HD
HETATM   14  H   UNL     1     -46.550  57.822 -56.615  1.00  0.00     0.159 HD
HETATM   15  O   UNL     1     -44.143  58.318 -56.923  1.00  0.00    -0.271 OA
ENDBRANCH   4  11
ENDBRANCH   1   4
BRANCH   1  16
HETATM   16  C   UNL     1     -41.333  57.799 -53.819  1.00  0.00     0.272 C 
BRANCH  16  17
HETATM   17  C   UNL     1     -41.125  56.313 -53.695  1.00  0.00    -0.033 A 
HETATM   18  C   UNL     1     -41.332  55.670 -52.468  1.00  0.00     0.010 A 
HETATM   19  C   UNL     1     -41.030  54.313 -52.318  1.00  0.00     0.013 A 
HETATM   20  C   UNL     1     -40.519  53.555 -53.385  1.00  0.00    -0.025 A 
HETATM   21  C   UNL     1     -40.337  54.208 -54.615  1.00  0.00     0.013 A 
HETATM   22  C   UNL     1     -40.628  55.568 -54.771  1.00  0.00     0.010 A 
BRANCH  20  23
HETATM   23  C   UNL     1     -40.180  52.129 -53.218  1.00  0.00    -0.008 A 
HETATM   24  C   UNL     1     -39.782  51.602 -51.987  1.00  0.00     0.128 A 
HETATM   25  N   UNL     1     -39.439  50.309 -51.769  1.00  0.00    -0.272 NA
HETATM   26  C   UNL     1     -39.499  49.479 -52.830  1.00  0.00     0.116 A 
HETATM   27  C   UNL     1     -39.883  49.885 -54.095  1.00  0.00     0.020 A 
HETATM   28  C   UNL     1     -40.224  51.225 -54.286  1.00  0.00     0.015 A 
ENDBRANCH  20  23
ENDBRANCH  16  17
ENDBRANCH   1  16
TORSDOF 6
ENDMDL
MODEL 5
REMARK VINA RESULT:      -7.1      1.395      2.192
REMARK  6 active torsions:
REMARK  status: ('A' for Active; 'I' for Inactive)
REMARK    1  A    between atoms: C_4  and  C_5 
REMARK    2  A    between atoms: C_5  and  N_6 
REMARK    3  A    between atoms: C_5  and  C_22 
REMARK    4  A    between atoms: N_6  and  C_9 
REMARK    5  A    between atoms: C_9  and  C_10 
REMARK    6  A    between atoms: C_13  and  C_14 
REMARK       I    between atoms: C_22  and  N_23 
ROOT
HETATM    1  N   UNL     1     -42.222  58.099 -55.312  1.00  0.00    -0.054 N 
HETATM    2  H   UNL     1     -42.154  58.904 -55.941  1.00  0.00     0.278 HD
HETATM    3  H   UNL     1     -41.285  57.945 -54.920  1.00  0.00     0.278 HD
ENDROOT
BRANCH   1   4
HETATM    4  C   UNL     1     -43.129  58.417 -54.144  1.00  0.00     0.310 C 
BRANCH   4   5
HETATM    5  C   UNL     1     -42.781  57.626 -52.901  1.00  0.00    -0.019 A 
HETATM    6  C   UNL     1     -41.559  57.768 -52.224  1.00  0.00     0.010 A 
HETATM    7  C   UNL     1     -41.278  56.998 -51.094  1.00  0.00     0.001 A 
HETATM    8  C   UNL     1     -42.201  56.060 -50.636  1.00  0.00     0.000 A 
HETATM    9  C   UNL     1     -43.410  55.894 -51.302  1.00  0.00     0.001 A 
HETATM   10  C   UNL     1     -43.702  56.671 -52.423  1.00  0.00     0.010 A 
ENDBRANCH   4   5
BRANCH   4  11
HETATM   11  C   UNL     1     -43.256  59.951 -53.971  1.00  0.00     0.251 C 
HETATM   12  N   UNL     1     -42.256  60.736 -54.464  1.00  0.00    -0.368 N 
HETATM   13  H   UNL     1     -41.492  60.407 -55.043  1.00  0.00     0.159 HD
HETATM   14  H   UNL     1     -42.335  61.742 -54.344  1.00  0.00     0.159 HD
HETATM   15  O   UNL     1     -44.184  60.441 -53.331  1.00  0.00    -0.271 OA
ENDBRANCH   4  11
ENDBRANCH   1   4
BRANCH   1  16
HETATM   16  C   UNL     1     -42.535  56.886 -56.123  1.00  0.00     0.272 C 
BRANCH  16  17
HETATM   17  C   UNL     1     -42.025  55.670 -55.396  1.00  0.00    -0.033 A 
HETATM   18  C   UNL     1     -40.697  55.615 -54.956  1.00  0.00     0.010 A 
HETATM   19  C   UNL     1     -40.187  54.444 -54.384  1.00  0.00     0.013 A 
HETATM   20  C   UNL     1     -40.985  53.298 -54.228  1.00  0.00    -0.025 A 
HETATM   21  C   UNL     1     -42.321  53.375 -54.655  1.00  0.00     0.013 A 
HETATM   22  C   UNL     1     -42.836  54.539 -55.236  1.00  0.00     0.010 A 
BRANCH  20  23
HETATM   23  C   UNL     1     -40.438  52.059 -53.646  1.00  0.00    -0.008 A 
HETATM   24  C   UNL     1     -39.972  52.000 -52.330  1.00  0.00     0.128 A 
HETATM   25  N   UNL     1     -39.442  50.902 -51.741  1.00  0.00    -0.272 NA
HETATM   26  C   UNL     1     -39.373  49.784 -52.491  1.00  0.00     0.116 A 
HETATM   27  C   UNL     1     -39.806  49.719 -53.803  1.00  0.00     0.020 A 
HETATM   28  C   UNL     1     -40.342  50.871 -54.382  1.00  0.00     0.015 A 
ENDBRANCH  20  23
ENDBRANCH  16  17
ENDBRANCH   1  16
TORSDOF 6
ENDMDL
MODEL 6
REMARK VINA RESULT:      -6.8      3.263      6.472
REMARK  6 active torsions:
REMARK  status: ('A' for Active; 'I' for Inactive)
REMARK    1  A    between atoms: C_4  and  C_5 
REMARK    2  A    between atoms: C_5  and  N_6 
REMARK    3  A    between atoms: C_5  and  C_22 
REMARK    4  A    between atoms: N_6  and  C_9 
REMARK    5  A    between atoms: C_9  and  C_10 
REMARK    6  A    between atoms: C_13  and  C_14 
REMARK       I    between atoms: C_22  and  N_23 
ROOT
HETATM    1  N   UNL     1     -41.291  54.394 -51.694  1.00  0.00    -0.054 N 
HETATM    2  H   UNL     1     -40.936  55.314 -51.419  1.00  0.00     0.278 HD
HETATM    3  H   UNL     1     -40.796  54.127 -52.555  1.00  0.00     0.278 HD
ENDROOT
BRANCH   1   4
HETATM    4  C   UNL     1     -40.930  53.357 -50.654  1.00  0.00     0.310 C 
BRANCH   4   5
HETATM    5  C   UNL     1     -40.369  52.089 -51.262  1.00  0.00    -0.019 A 
HETATM    6  C   UNL     1     -40.045  51.975 -52.624  1.00  0.00     0.010 A 
HETATM    7  C   UNL     1     -39.551  50.775 -53.140  1.00  0.00     0.001 A 
HETATM    8  C   UNL     1     -39.392  49.667 -52.311  1.00  0.00     0.000 A 
HETATM    9  C   UNL     1     -39.722  49.756 -50.963  1.00  0.00     0.001 A 
HETATM   10  C   UNL     1     -40.202  50.956 -50.439  1.00  0.00     0.010 A 
ENDBRANCH   4   5
BRANCH   4  11
HETATM   11  C   UNL     1     -40.098  54.005 -49.521  1.00  0.00     0.251 C 
HETATM   12  N   UNL     1     -40.627  54.019 -48.265  1.00  0.00    -0.368 N 
HETATM   13  H   UNL     1     -41.471  53.532 -47.985  1.00  0.00     0.159 HD
HETATM   14  H   UNL     1     -40.084  54.451 -47.522  1.00  0.00     0.159 HD
HETATM   15  O   UNL     1     -39.031  54.569 -49.762  1.00  0.00    -0.271 OA
ENDBRANCH   4  11
ENDBRANCH   1   4
BRANCH   1  16
HETATM   16  C   UNL     1     -42.728  54.530 -52.070  1.00  0.00     0.272 C 
BRANCH  16  17
HETATM   17  C   UNL     1     -42.816  54.980 -53.504  1.00  0.00    -0.033 A 
HETATM   18  C   UNL     1     -42.153  54.267 -54.510  1.00  0.00     0.010 A 
HETATM   19  C   UNL     1     -42.136  54.744 -55.826  1.00  0.00     0.013 A 
HETATM   20  C   UNL     1     -42.782  55.940 -56.178  1.00  0.00    -0.025 A 
HETATM   21  C   UNL     1     -43.461  56.634 -55.162  1.00  0.00     0.013 A 
HETATM   22  C   UNL     1     -43.476  56.168 -53.843  1.00  0.00     0.010 A 
BRANCH  20  23
HETATM   23  C   UNL     1     -42.743  56.453 -57.560  1.00  0.00    -0.008 A 
HETATM   24  C   UNL     1     -43.071  55.652 -58.657  1.00  0.00     0.128 A 
HETATM   25  N   UNL     1     -43.038  56.054 -59.950  1.00  0.00    -0.272 NA
HETATM   26  C   UNL     1     -42.666  57.330 -60.180  1.00  0.00     0.116 A 
HETATM   27  C   UNL     1     -42.324  58.216 -59.176  1.00  0.00     0.020 A 
HETATM   28  C   UNL     1     -42.363  57.768 -57.854  1.00  0.00     0.015 A 
ENDBRANCH  20  23
ENDBRANCH  16  17
ENDBRANCH   1  16
TORSDOF 6
ENDMDL
MODEL 7
REMARK VINA RESULT:      -6.8      2.613      7.309
REMARK  6 active torsions:
REMARK  status: ('A' for Active; 'I' for Inactive)
REMARK    1  A    between atoms: C_4  and  C_5 
REMARK    2  A    between atoms: C_5  and  N_6 
REMARK    3  A    between atoms: C_5  and  C_22 
REMARK    4  A    between atoms: N_6  and  C_9 
REMARK    5  A    between atoms: C_9  and  C_10 
REMARK    6  A    between atoms: C_13  and  C_14 
REMARK       I    between atoms: C_22  and  N_23 
ROOT
HETATM    1  N   UNL     1     -40.110  53.549 -51.344  1.00  0.00    -0.054 N 
HETATM    2  H   UNL     1     -39.289  53.003 -51.068  1.00  0.00     0.278 HD
HETATM    3  H   UNL     1     -39.768  54.463 -51.666  1.00  0.00     0.278 HD
ENDROOT
BRANCH   1   4
HETATM    4  C   UNL     1     -40.796  52.907 -52.529  1.00  0.00     0.310 C 
BRANCH   4   5
HETATM    5  C   UNL     1     -41.356  53.923 -53.502  1.00  0.00    -0.019 A 
HETATM    6  C   UNL     1     -40.558  54.884 -54.143  1.00  0.00     0.010 A 
HETATM    7  C   UNL     1     -41.129  55.814 -55.016  1.00  0.00     0.001 A 
HETATM    8  C   UNL     1     -42.503  55.813 -55.243  1.00  0.00     0.000 A 
HETATM    9  C   UNL     1     -43.311  54.879 -54.604  1.00  0.00     0.001 A 
HETATM   10  C   UNL     1     -42.745  53.938 -53.744  1.00  0.00     0.010 A 
ENDBRANCH   4   5
BRANCH   4  11
HETATM   11  C   UNL     1     -39.895  51.801 -53.132  1.00  0.00     0.251 C 
HETATM   12  N   UNL     1     -40.206  51.327 -54.372  1.00  0.00    -0.368 N 
HETATM   13  H   UNL     1     -40.909  51.723 -54.985  1.00  0.00     0.159 HD
HETATM   14  H   UNL     1     -39.620  50.596 -54.765  1.00  0.00     0.159 HD
HETATM   15  O   UNL     1     -38.980  51.303 -52.478  1.00  0.00    -0.271 OA
ENDBRANCH   4  11
ENDBRANCH   1   4
BRANCH   1  16
HETATM   16  C   UNL     1     -40.932  53.820 -50.129  1.00  0.00     0.272 C 
BRANCH  16  17
HETATM   17  C   UNL     1     -41.847  54.983 -50.410  1.00  0.00    -0.033 A 
HETATM   18  C   UNL     1     -43.236  54.806 -50.409  1.00  0.00     0.010 A 
HETATM   19  C   UNL     1     -44.085  55.854 -50.781  1.00  0.00     0.013 A 
HETATM   20  C   UNL     1     -43.577  57.107 -51.160  1.00  0.00    -0.025 A 
HETATM   21  C   UNL     1     -42.183  57.277 -51.136  1.00  0.00     0.013 A 
HETATM   22  C   UNL     1     -41.326  56.231 -50.774  1.00  0.00     0.010 A 
BRANCH  20  23
HETATM   23  C   UNL     1     -44.473  58.203 -51.575  1.00  0.00    -0.008 A 
HETATM   24  C   UNL     1     -45.426  58.748 -50.711  1.00  0.00     0.128 A 
HETATM   25  N   UNL     1     -46.291  59.740 -51.033  1.00  0.00    -0.272 NA
HETATM   26  C   UNL     1     -46.208  60.235 -52.284  1.00  0.00     0.116 A 
HETATM   27  C   UNL     1     -45.303  59.779 -53.225  1.00  0.00     0.020 A 
HETATM   28  C   UNL     1     -44.430  58.751 -52.863  1.00  0.00     0.015 A 
ENDBRANCH  20  23
ENDBRANCH  16  17
ENDBRANCH   1  16
TORSDOF 6
ENDMDL
MODEL 8
REMARK VINA RESULT:      -6.8     14.046     16.826
REMARK  6 active torsions:
REMARK  status: ('A' for Active; 'I' for Inactive)
REMARK    1  A    between atoms: C_4  and  C_5 
REMARK    2  A    between atoms: C_5  and  N_6 
REMARK    3  A    between atoms: C_5  and  C_22 
REMARK    4  A    between atoms: N_6  and  C_9 
REMARK    5  A    between atoms: C_9  and  C_10 
REMARK    6  A    between atoms: C_13  and  C_14 
REMARK       I    between atoms: C_22  and  N_23 
ROOT
HETATM    1  N   UNL     1     -35.906  42.353 -55.791  1.00  0.00    -0.054 N 
HETATM    2  H   UNL     1     -35.684  43.286 -55.431  1.00  0.00     0.278 HD
HETATM    3  H   UNL     1     -35.333  42.212 -56.633  1.00  0.00     0.278 HD
ENDROOT
BRANCH   1   4
HETATM    4  C   UNL     1     -35.480  41.292 -54.801  1.00  0.00     0.310 C 
BRANCH   4   5
HETATM    5  C   UNL     1     -34.081  40.777 -55.061  1.00  0.00    -0.019 A 
HETATM    6  C   UNL     1     -33.539  40.662 -56.352  1.00  0.00     0.010 A 
HETATM    7  C   UNL     1     -32.249  40.159 -56.539  1.00  0.00     0.001 A 
HETATM    8  C   UNL     1     -31.492  39.743 -55.448  1.00  0.00     0.000 A 
HETATM    9  C   UNL     1     -32.018  39.833 -54.163  1.00  0.00     0.001 A 
HETATM   10  C   UNL     1     -33.299  40.349 -53.968  1.00  0.00     0.010 A 
ENDBRANCH   4   5
BRANCH   4  11
HETATM   11  C   UNL     1     -35.785  41.758 -53.356  1.00  0.00     0.251 C 
HETATM   12  N   UNL     1     -36.443  40.896 -52.530  1.00  0.00    -0.368 N 
HETATM   13  H   UNL     1     -36.645  39.926 -52.745  1.00  0.00     0.159 HD
HETATM   14  H   UNL     1     -36.650  41.204 -51.584  1.00  0.00     0.159 HD
HETATM   15  O   UNL     1     -35.520  42.903 -52.991  1.00  0.00    -0.271 OA
ENDBRANCH   4  11
ENDBRANCH   1   4
BRANCH   1  16
HETATM   16  C   UNL     1     -37.325  42.344 -56.251  1.00  0.00     0.272 C 
BRANCH  16  17
HETATM   17  C   UNL     1     -37.441  41.446 -57.455  1.00  0.00    -0.033 A 
HETATM   18  C   UNL     1     -37.082  41.917 -58.724  1.00  0.00     0.010 A 
HETATM   19  C   UNL     1     -37.296  41.128 -59.860  1.00  0.00     0.013 A 
HETATM   20  C   UNL     1     -37.867  39.849 -59.764  1.00  0.00    -0.025 A 
HETATM   21  C   UNL     1     -38.202  39.382 -58.483  1.00  0.00     0.013 A 
HETATM   22  C   UNL     1     -38.000  40.167 -57.343  1.00  0.00     0.010 A 
BRANCH  20  23
HETATM   23  C   UNL     1     -38.112  39.029 -60.966  1.00  0.00    -0.008 A 
HETATM   24  C   UNL     1     -37.221  39.003 -62.040  1.00  0.00     0.128 A 
HETATM   25  N   UNL     1     -37.394  38.289 -63.178  1.00  0.00    -0.272 NA
HETATM   26  C   UNL     1     -38.515  37.544 -63.262  1.00  0.00     0.116 A 
HETATM   27  C   UNL     1     -39.467  37.485 -62.261  1.00  0.00     0.020 A 
HETATM   28  C   UNL     1     -39.260  38.238 -61.104  1.00  0.00     0.015 A 
ENDBRANCH  20  23
ENDBRANCH  16  17
ENDBRANCH   1  16
TORSDOF 6
ENDMDL
MODEL 9
REMARK VINA RESULT:      -6.8      1.817      3.414
REMARK  6 active torsions:
REMARK  status: ('A' for Active; 'I' for Inactive)
REMARK    1  A    between atoms: C_4  and  C_5 
REMARK    2  A    between atoms: C_5  and  N_6 
REMARK    3  A    between atoms: C_5  and  C_22 
REMARK    4  A    between atoms: N_6  and  C_9 
REMARK    5  A    between atoms: C_9  and  C_10 
REMARK    6  A    between atoms: C_13  and  C_14 
REMARK       I    between atoms: C_22  and  N_23 
ROOT
HETATM    1  N   UNL     1     -42.426  58.002 -51.646  1.00  0.00    -0.054 N 
HETATM    2  H   UNL     1     -41.933  58.635 -51.010  1.00  0.00     0.278 HD
HETATM    3  H   UNL     1     -42.524  57.102 -51.158  1.00  0.00     0.278 HD
ENDROOT
BRANCH   1   4
HETATM    4  C   UNL     1     -43.830  58.503 -51.905  1.00  0.00     0.310 C 
BRANCH   4   5
HETATM    5  C   UNL     1     -44.129  58.670 -53.379  1.00  0.00    -0.019 A 
HETATM    6  C   UNL     1     -44.646  57.634 -54.174  1.00  0.00     0.010 A 
HETATM    7  C   UNL     1     -44.884  57.833 -55.536  1.00  0.00     0.001 A 
HETATM    8  C   UNL     1     -44.590  59.059 -56.128  1.00  0.00     0.000 A 
HETATM    9  C   UNL     1     -44.062  60.092 -55.361  1.00  0.00     0.001 A 
HETATM   10  C   UNL     1     -43.837  59.904 -53.997  1.00  0.00     0.010 A 
ENDBRANCH   4   5
BRANCH   4  11
HETATM   11  C   UNL     1     -44.850  57.677 -51.084  1.00  0.00     0.251 C 
HETATM   12  N   UNL     1     -44.595  56.352 -50.892  1.00  0.00    -0.368 N 
HETATM   13  H   UNL     1     -43.729  55.885 -51.140  1.00  0.00     0.159 HD
HETATM   14  H   UNL     1     -45.268  55.807 -50.360  1.00  0.00     0.159 HD
HETATM   15  O   UNL     1     -45.903  58.179 -50.693  1.00  0.00    -0.271 OA
ENDBRANCH   4  11
ENDBRANCH   1   4
BRANCH   1  16
HETATM   16  C   UNL     1     -41.555  57.738 -52.828  1.00  0.00     0.272 C 
BRANCH  16  17
HETATM   17  C   UNL     1     -41.300  56.257 -52.924  1.00  0.00    -0.033 A 
HETATM   18  C   UNL     1     -41.337  55.458 -51.775  1.00  0.00     0.010 A 
HETATM   19  C   UNL     1     -40.988  54.104 -51.840  1.00  0.00     0.013 A 
HETATM   20  C   UNL     1     -40.599  53.507 -53.050  1.00  0.00    -0.025 A 
HETATM   21  C   UNL     1     -40.587  54.316 -54.198  1.00  0.00     0.013 A 
HETATM   22  C   UNL     1     -40.926  55.672 -54.140  1.00  0.00     0.010 A 
BRANCH  20  23
HETATM   23  C   UNL     1     -40.209  52.086 -53.112  1.00  0.00    -0.008 A 
HETATM   24  C   UNL     1     -39.765  51.389 -51.985  1.00  0.00     0.128 A 
HETATM   25  N   UNL     1     -39.375  50.092 -51.976  1.00  0.00    -0.272 NA
HETATM   26  C   UNL     1     -39.434  49.433 -53.151  1.00  0.00     0.116 A 
HETATM   27  C   UNL     1     -39.861  50.015 -54.331  1.00  0.00     0.020 A 
HETATM   28  C   UNL     1     -40.250  51.355 -54.306  1.00  0.00     0.015 A 
ENDBRANCH  20  23
ENDBRANCH  16  17
ENDBRANCH   1  16
TORSDOF 6
ENDMDL
MODEL 10
REMARK VINA RESULT:      -6.7      1.979      2.691
REMARK  6 active torsions:
REMARK  status: ('A' for Active; 'I' for Inactive)
REMARK    1  A    between atoms: C_4  and  C_5 
REMARK    2  A    between atoms: C_5  and  N_6 
REMARK    3  A    between atoms: C_5  and  C_22 
REMARK    4  A    between atoms: N_6  and  C_9 
REMARK    5  A    between atoms: C_9  and  C_10 
REMARK    6  A    between atoms: C_13  and  C_14 
REMARK       I    between atoms: C_22  and  N_23 
ROOT
HETATM    1  N   UNL     1     -41.627  58.096 -54.773  1.00  0.00    -0.054 N 
HETATM    2  H   UNL     1     -41.214  58.608 -55.558  1.00  0.00     0.278 HD
HETATM    3  H   UNL     1     -40.848  57.722 -54.216  1.00  0.00     0.278 HD
ENDROOT
BRANCH   1   4
HETATM    4  C   UNL     1     -42.386  59.041 -53.869  1.00  0.00     0.310 C 
BRANCH   4   5
HETATM    5  C   UNL     1     -41.682  59.279 -52.549  1.00  0.00    -0.019 A 
HETATM    6  C   UNL     1     -42.283  59.960 -51.477  1.00  0.00     0.010 A 
HETATM    7  C   UNL     1     -41.583  60.173 -50.288  1.00  0.00     0.001 A 
HETATM    8  C   UNL     1     -40.268  59.732 -50.158  1.00  0.00     0.000 A 
HETATM    9  C   UNL     1     -39.651  59.070 -51.214  1.00  0.00     0.001 A 
HETATM   10  C   UNL     1     -40.351  58.841 -52.399  1.00  0.00     0.010 A 
ENDBRANCH   4   5
BRANCH   4  11
HETATM   11  C   UNL     1     -42.817  60.302 -54.656  1.00  0.00     0.251 C 
HETATM   12  N   UNL     1     -42.040  60.700 -55.704  1.00  0.00    -0.368 N 
HETATM   13  H   UNL     1     -41.267  60.168 -56.088  1.00  0.00     0.159 HD
HETATM   14  H   UNL     1     -42.318  61.531 -56.217  1.00  0.00     0.159 HD
HETATM   15  O   UNL     1     -43.780  60.976 -54.295  1.00  0.00    -0.271 OA
ENDBRANCH   4  11
ENDBRANCH   1   4
BRANCH   1  16
HETATM   16  C   UNL     1     -42.358  56.911 -55.309  1.00  0.00     0.272 C 
BRANCH  16  17
HETATM   17  C   UNL     1     -41.740  55.660 -54.741  1.00  0.00    -0.033 A 
HETATM   18  C   UNL     1     -40.841  54.907 -55.505  1.00  0.00     0.010 A 
HETATM   19  C   UNL     1     -40.354  53.685 -55.027  1.00  0.00     0.013 A 
HETATM   20  C   UNL     1     -40.743  53.182 -53.775  1.00  0.00    -0.025 A 
HETATM   21  C   UNL     1     -41.629  53.959 -53.011  1.00  0.00     0.013 A 
HETATM   22  C   UNL     1     -42.128  55.177 -53.485  1.00  0.00     0.010 A 
BRANCH  20  23
HETATM   23  C   UNL     1     -40.246  51.883 -53.284  1.00  0.00    -0.008 A 
HETATM   24  C   UNL     1     -40.110  50.776 -54.125  1.00  0.00     0.128 A 
HETATM   25  N   UNL     1     -39.678  49.552 -53.736  1.00  0.00    -0.272 NA
HETATM   26  C   UNL     1     -39.351  49.409 -52.435  1.00  0.00     0.116 A 
HETATM   27  C   UNL     1     -39.441  50.433 -51.511  1.00  0.00     0.020 A 
HETATM   28  C   UNL     1     -39.895  51.681 -51.944  1.00  0.00     0.015 A 
ENDBRANCH  20  23
ENDBRANCH  16  17
ENDBRANCH   1  16
TORSDOF 6
ENDMDL
