MODEL 1
REMARK VINA RESULT:      -9.4      0.000      0.000
REMARK  6 active torsions:
REMARK  status: ('A' for Active; 'I' for Inactive)
REMARK    1  A    between atoms: C_5  and  N_6 
REMARK    2  A    between atoms: C_8  and  C_9 
REMARK    3  A    between atoms: C_16  and  C_17 
REMARK    4  A    between atoms: C_17  and  N_18 
REMARK    5  A    between atoms: C_22  and  N_23 
REMARK    6  A    between atoms: C_26  and  O_27 
ROOT
HETATM    1  N   UNL     1     -41.883  54.515 -53.067  1.00  0.00    -0.244 N 
HETATM    2  N   UNL     1     -41.403  55.611 -52.439  1.00  0.00    -0.167 NA
HETATM    3  C   UNL     1     -42.332  56.559 -52.564  1.00  0.00     0.097 A 
HETATM    4  C   UNL     1     -43.386  56.131 -53.417  1.00  0.00     0.016 A 
HETATM    5  C   UNL     1     -43.093  54.801 -53.668  1.00  0.00     0.130 A 
ENDROOT
BRANCH   4   6
HETATM    6  C   UNL     1     -44.547  56.904 -53.914  1.00  0.00     0.277 C 
BRANCH   6   7
HETATM    7  N   UNL     1     -44.265  57.756 -55.174  1.00  0.00    -0.067 N 
HETATM    8  H   UNL     1     -43.912  58.649 -54.790  1.00  0.00     0.280 HD
HETATM    9  C   UNL     1     -43.180  57.164 -56.029  1.00  0.00     0.237 C 
HETATM   10  C   UNL     1     -42.967  57.983 -57.285  1.00  0.00     0.061 C 
HETATM   11  C   UNL     1     -44.229  58.201 -58.114  1.00  0.00     0.191 C 
HETATM   12  C   UNL     1     -45.366  58.728 -57.235  1.00  0.00     0.061 C 
HETATM   13  C   UNL     1     -45.560  58.021 -55.895  1.00  0.00     0.237 C 
BRANCH  11  14
HETATM   14  N   UNL     1     -44.616  57.027 -59.014  1.00  0.00    -0.064 N 
HETATM   15  H   UNL     1     -45.391  56.544 -58.507  1.00  0.00     0.280 HD
HETATM   16  C   UNL     1     -45.377  57.451 -60.292  1.00  0.00     0.266 C 
HETATM   17  C   UNL     1     -46.162  56.234 -60.789  1.00  0.00     0.144 C 
HETATM   18  C   UNL     1     -45.197  55.115 -61.163  1.00  0.00     0.035 C 
HETATM   19  C   UNL     1     -44.321  54.725 -59.974  1.00  0.00     0.030 C 
HETATM   20  C   UNL     1     -43.636  55.918 -59.313  1.00  0.00     0.235 C 
BRANCH  17  21
HETATM   21  O   UNL     1     -46.964  55.803 -59.683  1.00  0.00    -0.394 OA
HETATM   22  H   UNL     1     -47.124  56.587 -59.116  1.00  0.00     0.210 HD
ENDBRANCH  17  21
ENDBRANCH  11  14
ENDBRANCH   6   7
ENDBRANCH   4   6
BRANCH   3  23
HETATM   23  C   UNL     1     -42.168  57.850 -51.905  1.00  0.00    -0.005 A 
HETATM   24  C   UNL     1     -40.893  58.290 -51.524  1.00  0.00     0.017 A 
HETATM   25  C   UNL     1     -40.736  59.531 -50.901  1.00  0.00     0.043 A 
HETATM   26  C   UNL     1     -41.853  60.321 -50.653  1.00  0.00     0.116 A 
HETATM   27  F   UNL     1     -41.701  61.512 -50.063  1.00  0.00    -0.206 F 
HETATM   28  C   UNL     1     -43.127  59.889 -51.004  1.00  0.00     0.043 A 
HETATM   29  C   UNL     1     -43.289  58.649 -51.624  1.00  0.00     0.017 A 
ENDBRANCH   3  23
BRANCH   1  30
HETATM   30  C   UNL     1     -41.151  53.298 -53.112  1.00  0.00     0.058 A 
HETATM   31  C   UNL     1     -41.219  52.497 -54.260  1.00  0.00     0.032 A 
HETATM   32  C   UNL     1     -40.517  51.289 -54.320  1.00  0.00     0.009 A 
HETATM   33  C   UNL     1     -39.747  50.861 -53.236  1.00  0.00    -0.062 A 
HETATM   34  C   UNL     1     -38.976  49.573 -53.298  1.00  0.00     0.048 C 
HETATM   35  C   UNL     1     -39.671  51.666 -52.094  1.00  0.00     0.009 A 
HETATM   36  C   UNL     1     -40.367  52.878 -52.029  1.00  0.00     0.032 A 
ENDBRANCH   1  30
TORSDOF 6
ENDMDL
MODEL 2
REMARK VINA RESULT:      -9.4      1.510      2.125
REMARK  6 active torsions:
REMARK  status: ('A' for Active; 'I' for Inactive)
REMARK    1  A    between atoms: C_5  and  N_6 
REMARK    2  A    between atoms: C_8  and  C_9 
REMARK    3  A    between atoms: C_16  and  C_17 
REMARK    4  A    between atoms: C_17  and  N_18 
REMARK    5  A    between atoms: C_22  and  N_23 
REMARK    6  A    between atoms: C_26  and  O_27 
ROOT
HETATM    1  N   UNL     1     -41.179  54.727 -53.761  1.00  0.00    -0.244 N 
HETATM    2  N   UNL     1     -41.256  55.692 -52.820  1.00  0.00    -0.167 NA
HETATM    3  C   UNL     1     -41.770  56.767 -53.419  1.00  0.00     0.097 A 
HETATM    4  C   UNL     1     -41.900  56.557 -54.819  1.00  0.00     0.016 A 
HETATM    5  C   UNL     1     -41.570  55.224 -54.990  1.00  0.00     0.130 A 
ENDROOT
BRANCH   4   6
HETATM    6  C   UNL     1     -42.313  57.521 -55.866  1.00  0.00     0.277 C 
BRANCH   6   7
HETATM    7  N   UNL     1     -42.215  56.985 -57.313  1.00  0.00    -0.067 N 
HETATM    8  H   UNL     1     -41.298  56.507 -57.334  1.00  0.00     0.280 HD
HETATM    9  C   UNL     1     -43.272  55.960 -57.612  1.00  0.00     0.237 C 
HETATM   10  C   UNL     1     -43.192  55.498 -59.052  1.00  0.00     0.061 C 
HETATM   11  C   UNL     1     -43.249  56.625 -60.078  1.00  0.00     0.191 C 
HETATM   12  C   UNL     1     -42.230  57.716 -59.736  1.00  0.00     0.061 C 
HETATM   13  C   UNL     1     -42.175  58.146 -58.272  1.00  0.00     0.237 C 
BRANCH  11  14
HETATM   14  N   UNL     1     -44.655  57.144 -60.383  1.00  0.00    -0.064 N 
HETATM   15  H   UNL     1     -44.808  56.927 -61.393  1.00  0.00     0.280 HD
HETATM   16  C   UNL     1     -45.780  56.280 -59.767  1.00  0.00     0.266 C 
HETATM   17  C   UNL     1     -47.059  56.547 -60.565  1.00  0.00     0.144 C 
HETATM   18  C   UNL     1     -47.458  58.013 -60.426  1.00  0.00     0.035 C 
HETATM   19  C   UNL     1     -46.337  58.933 -60.903  1.00  0.00     0.030 C 
HETATM   20  C   UNL     1     -44.983  58.613 -60.276  1.00  0.00     0.235 C 
BRANCH  17  21
HETATM   21  O   UNL     1     -46.732  56.285 -61.935  1.00  0.00    -0.394 OA
HETATM   22  H   UNL     1     -46.925  55.338 -62.105  1.00  0.00     0.210 HD
ENDBRANCH  17  21
ENDBRANCH  11  14
ENDBRANCH   6   7
ENDBRANCH   4   6
BRANCH   3  23
HETATM   23  C   UNL     1     -42.080  57.968 -52.650  1.00  0.00    -0.005 A 
HETATM   24  C   UNL     1     -41.048  58.725 -52.079  1.00  0.00     0.017 A 
HETATM   25  C   UNL     1     -41.346  59.879 -51.351  1.00  0.00     0.043 A 
HETATM   26  C   UNL     1     -42.671  60.267 -51.189  1.00  0.00     0.116 A 
HETATM   27  F   UNL     1     -42.955  61.376 -50.497  1.00  0.00    -0.206 F 
HETATM   28  C   UNL     1     -43.708  59.514 -51.729  1.00  0.00     0.043 A 
HETATM   29  C   UNL     1     -43.415  58.359 -52.455  1.00  0.00     0.017 A 
ENDBRANCH   3  23
BRANCH   1  30
HETATM   30  C   UNL     1     -40.689  53.427 -53.461  1.00  0.00     0.058 A 
HETATM   31  C   UNL     1     -40.667  52.451 -54.466  1.00  0.00     0.032 A 
HETATM   32  C   UNL     1     -40.202  51.162 -54.189  1.00  0.00     0.009 A 
HETATM   33  C   UNL     1     -39.761  50.827 -52.906  1.00  0.00    -0.062 A 
HETATM   34  C   UNL     1     -39.244  49.450 -52.602  1.00  0.00     0.048 C 
HETATM   35  C   UNL     1     -39.773  51.805 -51.905  1.00  0.00     0.009 A 
HETATM   36  C   UNL     1     -40.233  53.099 -52.177  1.00  0.00     0.032 A 
ENDBRANCH   1  30
TORSDOF 6
ENDMDL
MODEL 3
REMARK VINA RESULT:      -9.2      1.794      2.428
REMARK  6 active torsions:
REMARK  status: ('A' for Active; 'I' for Inactive)
REMARK    1  A    between atoms: C_5  and  N_6 
REMARK    2  A    between atoms: C_8  and  C_9 
REMARK    3  A    between atoms: C_16  and  C_17 
REMARK    4  A    between atoms: C_17  and  N_18 
REMARK    5  A    between atoms: C_22  and  N_23 
REMARK    6  A    between atoms: C_26  and  O_27 
ROOT
HETATM    1  N   UNL     1     -41.531  56.390 -53.330  1.00  0.00    -0.244 N 
HETATM    2  N   UNL     1     -42.278  56.823 -52.291  1.00  0.00    -0.167 NA
HETATM    3  C   UNL     1     -42.567  58.101 -52.536  1.00  0.00     0.097 A 
HETATM    4  C   UNL     1     -41.876  58.568 -53.688  1.00  0.00     0.016 A 
HETATM    5  C   UNL     1     -41.274  57.432 -54.201  1.00  0.00     0.130 A 
ENDROOT
BRANCH   4   6
HETATM    6  C   UNL     1     -41.820  59.942 -54.241  1.00  0.00     0.277 C 
BRANCH   6   7
HETATM    7  N   UNL     1     -42.803  60.210 -55.404  1.00  0.00    -0.067 N 
HETATM    8  H   UNL     1     -43.041  61.211 -55.296  1.00  0.00     0.280 HD
HETATM    9  C   UNL     1     -42.153  60.038 -56.748  1.00  0.00     0.237 C 
HETATM   10  C   UNL     1     -43.151  60.246 -57.868  1.00  0.00     0.061 C 
HETATM   11  C   UNL     1     -44.396  59.370 -57.770  1.00  0.00     0.191 C 
HETATM   12  C   UNL     1     -45.021  59.476 -56.377  1.00  0.00     0.061 C 
HETATM   13  C   UNL     1     -44.051  59.394 -55.200  1.00  0.00     0.237 C 
BRANCH  11  14
HETATM   14  N   UNL     1     -44.214  57.938 -58.276  1.00  0.00    -0.064 N 
HETATM   15  H   UNL     1     -45.065  57.428 -57.949  1.00  0.00     0.280 HD
HETATM   16  C   UNL     1     -44.406  57.793 -59.804  1.00  0.00     0.266 C 
HETATM   17  C   UNL     1     -44.747  56.328 -60.090  1.00  0.00     0.144 C 
HETATM   18  C   UNL     1     -43.583  55.435 -59.672  1.00  0.00     0.035 C 
HETATM   19  C   UNL     1     -43.256  55.619 -58.192  1.00  0.00     0.030 C 
HETATM   20  C   UNL     1     -43.071  57.080 -57.791  1.00  0.00     0.235 C 
BRANCH  17  21
HETATM   21  O   UNL     1     -45.883  56.020 -59.274  1.00  0.00    -0.394 OA
HETATM   22  H   UNL     1     -46.319  56.869 -59.048  1.00  0.00     0.210 HD
ENDBRANCH  17  21
ENDBRANCH  11  14
ENDBRANCH   6   7
ENDBRANCH   4   6
BRANCH   3  23
HETATM   23  C   UNL     1     -43.455  58.845 -51.649  1.00  0.00    -0.005 A 
HETATM   24  C   UNL     1     -44.786  58.440 -51.482  1.00  0.00     0.017 A 
HETATM   25  C   UNL     1     -45.633  59.147 -50.626  1.00  0.00     0.043 A 
HETATM   26  C   UNL     1     -45.149  60.261 -49.948  1.00  0.00     0.116 A 
HETATM   27  F   UNL     1     -45.959  60.935 -49.123  1.00  0.00    -0.206 F 
HETATM   28  C   UNL     1     -43.838  60.690 -50.120  1.00  0.00     0.043 A 
HETATM   29  C   UNL     1     -42.989  59.987 -50.977  1.00  0.00     0.017 A 
ENDBRANCH   3  23
BRANCH   1  30
HETATM   30  C   UNL     1     -41.058  55.052 -53.406  1.00  0.00     0.058 A 
HETATM   31  C   UNL     1     -40.672  54.529 -54.647  1.00  0.00     0.032 A 
HETATM   32  C   UNL     1     -40.217  53.210 -54.746  1.00  0.00     0.009 A 
HETATM   33  C   UNL     1     -40.150  52.395 -53.613  1.00  0.00    -0.062 A 
HETATM   34  C   UNL     1     -39.648  50.983 -53.707  1.00  0.00     0.048 C 
HETATM   35  C   UNL     1     -40.527  52.922 -52.372  1.00  0.00     0.009 A 
HETATM   36  C   UNL     1     -40.978  54.242 -52.265  1.00  0.00     0.032 A 
ENDBRANCH   1  30
TORSDOF 6
ENDMDL
MODEL 4
REMARK VINA RESULT:      -9.0      3.223      6.609
REMARK  6 active torsions:
REMARK  status: ('A' for Active; 'I' for Inactive)
REMARK    1  A    between atoms: C_5  and  N_6 
REMARK    2  A    between atoms: C_8  and  C_9 
REMARK    3  A    between atoms: C_16  and  C_17 
REMARK    4  A    between atoms: C_17  and  N_18 
REMARK    5  A    between atoms: C_22  and  N_23 
REMARK    6  A    between atoms: C_26  and  O_27 
ROOT
HETATM    1  N   UNL     1     -42.270  54.967 -54.491  1.00  0.00    -0.244 N 
HETATM    2  N   UNL     1     -41.933  55.304 -55.756  1.00  0.00    -0.167 NA
HETATM    3  C   UNL     1     -42.790  56.251 -56.138  1.00  0.00     0.097 A 
HETATM    4  C   UNL     1     -43.807  56.443 -55.162  1.00  0.00     0.016 A 
HETATM    5  C   UNL     1     -43.405  55.650 -54.101  1.00  0.00     0.130 A 
ENDROOT
BRANCH   4   6
HETATM    6  C   UNL     1     -45.010  57.305 -55.235  1.00  0.00     0.277 C 
BRANCH   6   7
HETATM    7  N   UNL     1     -44.999  58.512 -54.270  1.00  0.00    -0.067 N 
HETATM    8  H   UNL     1     -45.906  58.976 -54.448  1.00  0.00     0.280 HD
HETATM    9  C   UNL     1     -44.979  58.088 -52.828  1.00  0.00     0.237 C 
HETATM   10  C   UNL     1     -44.906  59.287 -51.907  1.00  0.00     0.061 C 
HETATM   11  C   UNL     1     -43.741  60.229 -52.192  1.00  0.00     0.191 C 
HETATM   12  C   UNL     1     -43.703  60.604 -53.676  1.00  0.00     0.061 C 
HETATM   13  C   UNL     1     -43.891  59.454 -54.663  1.00  0.00     0.237 C 
BRANCH  11  14
HETATM   14  N   UNL     1     -42.397  59.778 -51.618  1.00  0.00    -0.064 N 
HETATM   15  H   UNL     1     -42.529  58.768 -51.387  1.00  0.00     0.280 HD
HETATM   16  C   UNL     1     -41.282  59.649 -52.683  1.00  0.00     0.266 C 
HETATM   17  C   UNL     1     -40.216  58.703 -52.124  1.00  0.00     0.144 C 
HETATM   18  C   UNL     1     -39.601  59.304 -50.865  1.00  0.00     0.035 C 
HETATM   19  C   UNL     1     -40.669  59.575 -49.808  1.00  0.00     0.030 C 
HETATM   20  C   UNL     1     -41.857  60.373 -50.340  1.00  0.00     0.235 C 
BRANCH  17  21
HETATM   21  O   UNL     1     -40.904  57.496 -51.772  1.00  0.00    -0.394 OA
HETATM   22  H   UNL     1     -41.576  57.330 -52.467  1.00  0.00     0.210 HD
ENDBRANCH  17  21
ENDBRANCH  11  14
ENDBRANCH   6   7
ENDBRANCH   4   6
BRANCH   3  23
HETATM   23  C   UNL     1     -42.640  56.910 -57.431  1.00  0.00    -0.005 A 
HETATM   24  C   UNL     1     -42.150  58.222 -57.500  1.00  0.00     0.017 A 
HETATM   25  C   UNL     1     -41.998  58.850 -58.738  1.00  0.00     0.043 A 
HETATM   26  C   UNL     1     -42.345  58.169 -59.900  1.00  0.00     0.116 A 
HETATM   27  F   UNL     1     -42.194  58.769 -61.087  1.00  0.00    -0.206 F 
HETATM   28  C   UNL     1     -42.855  56.877 -59.848  1.00  0.00     0.043 A 
HETATM   29  C   UNL     1     -43.010  56.247 -58.612  1.00  0.00     0.017 A 
ENDBRANCH   3  23
BRANCH   1  30
HETATM   30  C   UNL     1     -41.544  53.989 -53.760  1.00  0.00     0.058 A 
HETATM   31  C   UNL     1     -41.521  54.053 -52.360  1.00  0.00     0.032 A 
HETATM   32  C   UNL     1     -40.802  53.108 -51.622  1.00  0.00     0.009 A 
HETATM   33  C   UNL     1     -40.091  52.094 -52.268  1.00  0.00    -0.062 A 
HETATM   34  C   UNL     1     -39.329  51.065 -51.483  1.00  0.00     0.048 C 
HETATM   35  C   UNL     1     -40.122  52.024 -53.665  1.00  0.00     0.009 A 
HETATM   36  C   UNL     1     -40.844  52.963 -54.410  1.00  0.00     0.032 A 
ENDBRANCH   1  30
TORSDOF 6
ENDMDL
MODEL 5
REMARK VINA RESULT:      -9.0      3.443      8.075
REMARK  6 active torsions:
REMARK  status: ('A' for Active; 'I' for Inactive)
REMARK    1  A    between atoms: C_5  and  N_6 
REMARK    2  A    between atoms: C_8  and  C_9 
REMARK    3  A    between atoms: C_16  and  C_17 
REMARK    4  A    between atoms: C_17  and  N_18 
REMARK    5  A    between atoms: C_22  and  N_23 
REMARK    6  A    between atoms: C_26  and  O_27 
ROOT
HETATM    1  N   UNL     1     -41.949  59.661 -57.205  1.00  0.00    -0.244 N 
HETATM    2  N   UNL     1     -41.655  60.140 -55.977  1.00  0.00    -0.167 NA
HETATM    3  C   UNL     1     -42.053  59.216 -55.102  1.00  0.00     0.097 A 
HETATM    4  C   UNL     1     -42.758  58.167 -55.755  1.00  0.00     0.016 A 
HETATM    5  C   UNL     1     -42.617  58.456 -57.101  1.00  0.00     0.130 A 
ENDROOT
BRANCH   4   6
HETATM    6  C   UNL     1     -43.464  57.011 -55.154  1.00  0.00     0.277 C 
BRANCH   6   7
HETATM    7  N   UNL     1     -42.602  55.738 -54.996  1.00  0.00    -0.067 N 
HETATM    8  H   UNL     1     -42.532  55.369 -55.960  1.00  0.00     0.280 HD
HETATM    9  C   UNL     1     -41.209  56.049 -54.524  1.00  0.00     0.237 C 
HETATM   10  C   UNL     1     -40.407  54.782 -54.319  1.00  0.00     0.061 C 
HETATM   11  C   UNL     1     -41.061  53.766 -53.387  1.00  0.00     0.191 C 
HETATM   12  C   UNL     1     -42.509  53.503 -53.812  1.00  0.00     0.061 C 
HETATM   13  C   UNL     1     -43.343  54.736 -54.151  1.00  0.00     0.237 C 
BRANCH  11  14
HETATM   14  N   UNL     1     -40.881  54.054 -51.897  1.00  0.00    -0.064 N 
HETATM   15  H   UNL     1     -40.672  55.077 -51.844  1.00  0.00     0.280 HD
HETATM   16  C   UNL     1     -42.204  54.027 -51.097  1.00  0.00     0.266 C 
HETATM   17  C   UNL     1     -41.989  54.841 -49.818  1.00  0.00     0.144 C 
HETATM   18  C   UNL     1     -40.907  54.187 -48.965  1.00  0.00     0.035 C 
HETATM   19  C   UNL     1     -39.596  54.068 -49.740  1.00  0.00     0.030 C 
HETATM   20  C   UNL     1     -39.761  53.417 -51.110  1.00  0.00     0.235 C 
BRANCH  17  21
HETATM   21  O   UNL     1     -41.528  56.129 -50.242  1.00  0.00    -0.394 OA
HETATM   22  H   UNL     1     -41.865  56.787 -49.597  1.00  0.00     0.210 HD
ENDBRANCH  17  21
ENDBRANCH  11  14
ENDBRANCH   6   7
ENDBRANCH   4   6
BRANCH   3  23
HETATM   23  C   UNL     1     -41.788  59.378 -53.677  1.00  0.00    -0.005 A 
HETATM   24  C   UNL     1     -40.563  58.965 -53.137  1.00  0.00     0.017 A 
HETATM   25  C   UNL     1     -40.306  59.129 -51.774  1.00  0.00     0.043 A 
HETATM   26  C   UNL     1     -41.277  59.696 -50.955  1.00  0.00     0.116 A 
HETATM   27  F   UNL     1     -41.028  59.859 -49.651  1.00  0.00    -0.206 F 
HETATM   28  C   UNL     1     -42.507  60.089 -51.471  1.00  0.00     0.043 A 
HETATM   29  C   UNL     1     -42.768  59.925 -52.832  1.00  0.00     0.017 A 
ENDBRANCH   3  23
BRANCH   1  30
HETATM   30  C   UNL     1     -41.640  60.389 -58.386  1.00  0.00     0.058 A 
HETATM   31  C   UNL     1     -40.903  61.577 -58.288  1.00  0.00     0.032 A 
HETATM   32  C   UNL     1     -40.599  62.317 -59.435  1.00  0.00     0.009 A 
HETATM   33  C   UNL     1     -41.033  61.886 -60.692  1.00  0.00    -0.062 A 
HETATM   34  C   UNL     1     -40.698  62.665 -61.932  1.00  0.00     0.048 C 
HETATM   35  C   UNL     1     -41.760  60.695 -60.790  1.00  0.00     0.009 A 
HETATM   36  C   UNL     1     -42.063  59.948 -59.646  1.00  0.00     0.032 A 
ENDBRANCH   1  30
TORSDOF 6
ENDMDL
MODEL 6
REMARK VINA RESULT:      -8.9      3.029      7.003
REMARK  6 active torsions:
REMARK  status: ('A' for Active; 'I' for Inactive)
REMARK    1  A    between atoms: C_5  and  N_6 
REMARK    2  A    between atoms: C_8  and  C_9 
REMARK    3  A    between atoms: C_16  and  C_17 
REMARK    4  A    between atoms: C_17  and  N_18 
REMARK    5  A    between atoms: C_22  and  N_23 
REMARK    6  A    between atoms: C_26  and  O_27 
ROOT
HETATM    1  N   UNL     1     -42.591  55.726 -55.441  1.00  0.00    -0.244 N 
HETATM    2  N   UNL     1     -41.642  54.823 -55.115  1.00  0.00    -0.167 NA
HETATM    3  C   UNL     1     -41.869  54.473 -53.848  1.00  0.00     0.097 A 
HETATM    4  C   UNL     1     -42.900  55.269 -53.277  1.00  0.00     0.016 A 
HETATM    5  C   UNL     1     -43.377  56.014 -54.341  1.00  0.00     0.130 A 
ENDROOT
BRANCH   4   6
HETATM    6  C   UNL     1     -43.383  55.293 -51.876  1.00  0.00     0.277 C 
BRANCH   6   7
HETATM    7  N   UNL     1     -43.390  56.693 -51.219  1.00  0.00    -0.067 N 
HETATM    8  H   UNL     1     -43.187  56.497 -50.224  1.00  0.00     0.280 HD
HETATM    9  C   UNL     1     -42.290  57.573 -51.745  1.00  0.00     0.237 C 
HETATM   10  C   UNL     1     -42.358  58.956 -51.131  1.00  0.00     0.061 C 
HETATM   11  C   UNL     1     -43.707  59.650 -51.292  1.00  0.00     0.191 C 
HETATM   12  C   UNL     1     -44.843  58.730 -50.835  1.00  0.00     0.061 C 
HETATM   13  C   UNL     1     -44.771  57.284 -51.322  1.00  0.00     0.237 C 
BRANCH  11  14
HETATM   14  N   UNL     1     -43.933  60.305 -52.655  1.00  0.00    -0.064 N 
HETATM   15  H   UNL     1     -44.213  59.522 -53.287  1.00  0.00     0.280 HD
HETATM   16  C   UNL     1     -45.221  61.157 -52.726  1.00  0.00     0.266 C 
HETATM   17  C   UNL     1     -45.614  61.281 -54.201  1.00  0.00     0.144 C 
HETATM   18  C   UNL     1     -44.518  62.015 -54.967  1.00  0.00     0.035 C 
HETATM   19  C   UNL     1     -43.180  61.292 -54.838  1.00  0.00     0.030 C 
HETATM   20  C   UNL     1     -42.800  60.977 -53.394  1.00  0.00     0.235 C 
BRANCH  17  21
HETATM   21  O   UNL     1     -45.708  59.941 -54.699  1.00  0.00    -0.394 OA
HETATM   22  H   UNL     1     -45.148  59.888 -55.502  1.00  0.00     0.210 HD
ENDBRANCH  17  21
ENDBRANCH  11  14
ENDBRANCH   6   7
ENDBRANCH   4   6
BRANCH   3  23
HETATM   23  C   UNL     1     -41.074  53.428 -53.212  1.00  0.00    -0.005 A 
HETATM   24  C   UNL     1     -40.735  53.528 -51.856  1.00  0.00     0.017 A 
HETATM   25  C   UNL     1     -39.982  52.522 -51.246  1.00  0.00     0.043 A 
HETATM   26  C   UNL     1     -39.563  51.427 -51.994  1.00  0.00     0.116 A 
HETATM   27  F   UNL     1     -38.847  50.462 -51.407  1.00  0.00    -0.206 F 
HETATM   28  C   UNL     1     -39.871  51.325 -53.346  1.00  0.00     0.043 A 
HETATM   29  C   UNL     1     -40.622  52.329 -53.960  1.00  0.00     0.017 A 
ENDBRANCH   3  23
BRANCH   1  30
HETATM   30  C   UNL     1     -42.661  56.302 -56.739  1.00  0.00     0.058 A 
HETATM   31  C   UNL     1     -42.356  57.660 -56.906  1.00  0.00     0.032 A 
HETATM   32  C   UNL     1     -42.432  58.249 -58.172  1.00  0.00     0.009 A 
HETATM   33  C   UNL     1     -42.819  57.496 -59.283  1.00  0.00    -0.062 A 
HETATM   34  C   UNL     1     -42.887  58.117 -60.650  1.00  0.00     0.048 C 
HETATM   35  C   UNL     1     -43.113  56.139 -59.118  1.00  0.00     0.009 A 
HETATM   36  C   UNL     1     -43.035  55.541 -57.854  1.00  0.00     0.032 A 
ENDBRANCH   1  30
TORSDOF 6
ENDMDL
MODEL 7
REMARK VINA RESULT:      -8.7      3.611      7.171
REMARK  6 active torsions:
REMARK  status: ('A' for Active; 'I' for Inactive)
REMARK    1  A    between atoms: C_5  and  N_6 
REMARK    2  A    between atoms: C_8  and  C_9 
REMARK    3  A    between atoms: C_16  and  C_17 
REMARK    4  A    between atoms: C_17  and  N_18 
REMARK    5  A    between atoms: C_22  and  N_23 
REMARK    6  A    between atoms: C_26  and  O_27 
ROOT
HETATM    1  N   UNL     1     -41.157  54.735 -53.659  1.00  0.00    -0.244 N 
HETATM    2  N   UNL     1     -41.635  54.760 -54.922  1.00  0.00    -0.167 NA
HETATM    3  C   UNL     1     -41.979  56.024 -55.173  1.00  0.00     0.097 A 
HETATM    4  C   UNL     1     -41.864  56.826 -54.005  1.00  0.00     0.016 A 
HETATM    5  C   UNL     1     -41.278  55.983 -53.076  1.00  0.00     0.130 A 
ENDROOT
BRANCH   4   6
HETATM    6  C   UNL     1     -42.251  58.243 -53.812  1.00  0.00     0.277 C 
BRANCH   6   7
HETATM    7  N   UNL     1     -43.678  58.453 -53.256  1.00  0.00    -0.067 N 
HETATM    8  H   UNL     1     -44.251  57.780 -53.794  1.00  0.00     0.280 HD
HETATM    9  C   UNL     1     -43.783  58.083 -51.803  1.00  0.00     0.237 C 
HETATM   10  C   UNL     1     -45.173  58.356 -51.268  1.00  0.00     0.061 C 
HETATM   11  C   UNL     1     -45.659  59.786 -51.482  1.00  0.00     0.191 C 
HETATM   12  C   UNL     1     -45.482  60.201 -52.945  1.00  0.00     0.061 C 
HETATM   13  C   UNL     1     -44.141  59.848 -53.585  1.00  0.00     0.237 C 
BRANCH  11  14
HETATM   14  N   UNL     1     -45.131  60.801 -50.467  1.00  0.00    -0.064 N 
HETATM   15  H   UNL     1     -44.095  60.670 -50.471  1.00  0.00     0.280 HD
HETATM   16  C   UNL     1     -45.201  62.264 -50.962  1.00  0.00     0.266 C 
HETATM   17  C   UNL     1     -44.185  63.075 -50.154  1.00  0.00     0.144 C 
HETATM   18  C   UNL     1     -44.567  63.057 -48.677  1.00  0.00     0.035 C 
HETATM   19  C   UNL     1     -44.638  61.626 -48.148  1.00  0.00     0.030 C 
HETATM   20  C   UNL     1     -45.502  60.707 -49.007  1.00  0.00     0.235 C 
BRANCH  17  21
HETATM   21  O   UNL     1     -42.928  62.408 -50.316  1.00  0.00    -0.394 OA
HETATM   22  H   UNL     1     -42.663  62.509 -51.255  1.00  0.00     0.210 HD
ENDBRANCH  17  21
ENDBRANCH  11  14
ENDBRANCH   6   7
ENDBRANCH   4   6
BRANCH   3  23
HETATM   23  C   UNL     1     -42.444  56.417 -56.499  1.00  0.00    -0.005 A 
HETATM   24  C   UNL     1     -43.009  55.465 -57.358  1.00  0.00     0.017 A 
HETATM   25  C   UNL     1     -43.462  55.844 -58.624  1.00  0.00     0.043 A 
HETATM   26  C   UNL     1     -43.340  57.168 -59.030  1.00  0.00     0.116 A 
HETATM   27  F   UNL     1     -43.780  57.531 -60.240  1.00  0.00    -0.206 F 
HETATM   28  C   UNL     1     -42.760  58.120 -58.199  1.00  0.00     0.043 A 
HETATM   29  C   UNL     1     -42.304  57.745 -56.934  1.00  0.00     0.017 A 
ENDBRANCH   3  23
BRANCH   1  30
HETATM   30  C   UNL     1     -40.676  53.537 -53.065  1.00  0.00     0.058 A 
HETATM   31  C   UNL     1     -40.616  53.438 -51.668  1.00  0.00     0.032 A 
HETATM   32  C   UNL     1     -40.134  52.273 -51.063  1.00  0.00     0.009 A 
HETATM   33  C   UNL     1     -39.698  51.198 -51.841  1.00  0.00    -0.062 A 
HETATM   34  C   UNL     1     -39.194  49.936 -51.201  1.00  0.00     0.048 C 
HETATM   35  C   UNL     1     -39.767  51.293 -53.235  1.00  0.00     0.009 A 
HETATM   36  C   UNL     1     -40.253  52.454 -53.847  1.00  0.00     0.032 A 
ENDBRANCH   1  30
TORSDOF 6
ENDMDL
MODEL 8
REMARK VINA RESULT:      -8.7      3.496      7.068
REMARK  6 active torsions:
REMARK  status: ('A' for Active; 'I' for Inactive)
REMARK    1  A    between atoms: C_5  and  N_6 
REMARK    2  A    between atoms: C_8  and  C_9 
REMARK    3  A    between atoms: C_16  and  C_17 
REMARK    4  A    between atoms: C_17  and  N_18 
REMARK    5  A    between atoms: C_22  and  N_23 
REMARK    6  A    between atoms: C_26  and  O_27 
ROOT
HETATM    1  N   UNL     1     -41.856  54.579 -53.953  1.00  0.00    -0.244 N 
HETATM    2  N   UNL     1     -41.864  54.759 -55.292  1.00  0.00    -0.167 NA
HETATM    3  C   UNL     1     -42.587  55.855 -55.524  1.00  0.00     0.097 A 
HETATM    4  C   UNL     1     -43.193  56.329 -54.329  1.00  0.00     0.016 A 
HETATM    5  C   UNL     1     -42.654  55.525 -53.339  1.00  0.00     0.130 A 
ENDROOT
BRANCH   4   6
HETATM    6  C   UNL     1     -44.160  57.438 -54.157  1.00  0.00     0.277 C 
BRANCH   6   7
HETATM    7  N   UNL     1     -43.529  58.788 -53.746  1.00  0.00    -0.067 N 
HETATM    8  H   UNL     1     -42.740  58.900 -54.405  1.00  0.00     0.280 HD
HETATM    9  C   UNL     1     -44.467  59.943 -53.956  1.00  0.00     0.237 C 
HETATM   10  C   UNL     1     -43.847  61.243 -53.488  1.00  0.00     0.061 C 
HETATM   11  C   UNL     1     -43.358  61.221 -52.043  1.00  0.00     0.191 C 
HETATM   12  C   UNL     1     -42.465  60.002 -51.796  1.00  0.00     0.061 C 
HETATM   13  C   UNL     1     -42.975  58.674 -52.350  1.00  0.00     0.237 C 
BRANCH  11  14
HETATM   14  N   UNL     1     -44.450  61.430 -50.993  1.00  0.00    -0.064 N 
HETATM   15  H   UNL     1     -45.022  60.557 -51.025  1.00  0.00     0.280 HD
HETATM   16  C   UNL     1     -43.933  61.339 -49.538  1.00  0.00     0.266 C 
HETATM   17  C   UNL     1     -45.131  61.011 -48.642  1.00  0.00     0.144 C 
HETATM   18  C   UNL     1     -46.153  62.140 -48.712  1.00  0.00     0.035 C 
HETATM   19  C   UNL     1     -46.619  62.370 -50.148  1.00  0.00     0.030 C 
HETATM   20  C   UNL     1     -45.468  62.535 -51.137  1.00  0.00     0.235 C 
BRANCH  17  21
HETATM   21  O   UNL     1     -45.717  59.822 -49.185  1.00  0.00    -0.394 OA
HETATM   22  H   UNL     1     -46.679  59.857 -48.994  1.00  0.00     0.210 HD
ENDBRANCH  17  21
ENDBRANCH  11  14
ENDBRANCH   6   7
ENDBRANCH   4   6
BRANCH   3  23
HETATM   23  C   UNL     1     -42.711  56.389 -56.876  1.00  0.00    -0.005 A 
HETATM   24  C   UNL     1     -43.237  55.593 -57.903  1.00  0.00     0.017 A 
HETATM   25  C   UNL     1     -43.364  56.108 -59.195  1.00  0.00     0.043 A 
HETATM   26  C   UNL     1     -42.956  57.411 -59.458  1.00  0.00     0.116 A 
HETATM   27  F   UNL     1     -43.084  57.906 -60.694  1.00  0.00    -0.206 F 
HETATM   28  C   UNL     1     -42.410  58.206 -58.457  1.00  0.00     0.043 A 
HETATM   29  C   UNL     1     -42.280  57.694 -57.164  1.00  0.00     0.017 A 
ENDBRANCH   3  23
BRANCH   1  30
HETATM   30  C   UNL     1     -41.155  53.502 -53.347  1.00  0.00     0.058 A 
HETATM   31  C   UNL     1     -40.734  52.424 -54.137  1.00  0.00     0.032 A 
HETATM   32  C   UNL     1     -40.054  51.348 -53.559  1.00  0.00     0.009 A 
HETATM   33  C   UNL     1     -39.792  51.329 -52.186  1.00  0.00    -0.062 A 
HETATM   34  C   UNL     1     -39.048  50.185 -51.558  1.00  0.00     0.048 C 
HETATM   35  C   UNL     1     -40.203  52.410 -51.399  1.00  0.00     0.009 A 
HETATM   36  C   UNL     1     -40.880  53.493 -51.973  1.00  0.00     0.032 A 
ENDBRANCH   1  30
TORSDOF 6
ENDMDL
MODEL 9
REMARK VINA RESULT:      -8.6      3.408      6.605
REMARK  6 active torsions:
REMARK  status: ('A' for Active; 'I' for Inactive)
REMARK    1  A    between atoms: C_5  and  N_6 
REMARK    2  A    between atoms: C_8  and  C_9 
REMARK    3  A    between atoms: C_16  and  C_17 
REMARK    4  A    between atoms: C_17  and  N_18 
REMARK    5  A    between atoms: C_22  and  N_23 
REMARK    6  A    between atoms: C_26  and  O_27 
ROOT
HETATM    1  N   UNL     1     -41.067  54.782 -53.970  1.00  0.00    -0.244 N 
HETATM    2  N   UNL     1     -41.621  54.741 -55.202  1.00  0.00    -0.167 NA
HETATM    3  C   UNL     1     -41.921  55.999 -55.527  1.00  0.00     0.097 A 
HETATM    4  C   UNL     1     -41.696  56.876 -54.430  1.00  0.00     0.016 A 
HETATM    5  C   UNL     1     -41.095  56.073 -53.477  1.00  0.00     0.130 A 
ENDROOT
BRANCH   4   6
HETATM    6  C   UNL     1     -42.004  58.321 -54.322  1.00  0.00     0.277 C 
BRANCH   6   7
HETATM    7  N   UNL     1     -42.404  58.792 -52.905  1.00  0.00    -0.067 N 
HETATM    8  H   UNL     1     -41.761  58.271 -52.284  1.00  0.00     0.280 HD
HETATM    9  C   UNL     1     -42.149  60.259 -52.700  1.00  0.00     0.237 C 
HETATM   10  C   UNL     1     -42.605  60.706 -51.328  1.00  0.00     0.061 C 
HETATM   11  C   UNL     1     -44.061  60.378 -51.012  1.00  0.00     0.191 C 
HETATM   12  C   UNL     1     -44.353  58.902 -51.295  1.00  0.00     0.061 C 
HETATM   13  C   UNL     1     -43.814  58.352 -52.614  1.00  0.00     0.237 C 
BRANCH  11  14
HETATM   14  N   UNL     1     -45.081  61.351 -51.606  1.00  0.00    -0.064 N 
HETATM   15  H   UNL     1     -44.989  61.237 -52.640  1.00  0.00     0.280 HD
HETATM   16  C   UNL     1     -46.548  60.890 -51.433  1.00  0.00     0.266 C 
HETATM   17  C   UNL     1     -47.385  61.603 -52.498  1.00  0.00     0.144 C 
HETATM   18  C   UNL     1     -47.332  63.111 -52.273  1.00  0.00     0.035 C 
HETATM   19  C   UNL     1     -45.893  63.620 -52.308  1.00  0.00     0.030 C 
HETATM   20  C   UNL     1     -44.954  62.839 -51.393  1.00  0.00     0.235 C 
BRANCH  17  21
HETATM   21  O   UNL     1     -46.767  61.301 -53.754  1.00  0.00    -0.394 OA
HETATM   22  H   UNL     1     -46.544  62.155 -54.183  1.00  0.00     0.210 HD
ENDBRANCH  17  21
ENDBRANCH  11  14
ENDBRANCH   6   7
ENDBRANCH   4   6
BRANCH   3  23
HETATM   23  C   UNL     1     -42.447  56.318 -56.849  1.00  0.00    -0.005 A 
HETATM   24  C   UNL     1     -42.328  57.619 -57.359  1.00  0.00     0.017 A 
HETATM   25  C   UNL     1     -42.825  57.922 -58.629  1.00  0.00     0.043 A 
HETATM   26  C   UNL     1     -43.446  56.930 -59.379  1.00  0.00     0.116 A 
HETATM   27  F   UNL     1     -43.915  57.219 -60.598  1.00  0.00    -0.206 F 
HETATM   28  C   UNL     1     -43.593  55.641 -58.879  1.00  0.00     0.043 A 
HETATM   29  C   UNL     1     -43.100  55.334 -57.609  1.00  0.00     0.017 A 
ENDBRANCH   3  23
BRANCH   1  30
HETATM   30  C   UNL     1     -40.608  53.607 -53.317  1.00  0.00     0.058 A 
HETATM   31  C   UNL     1     -40.239  52.493 -54.084  1.00  0.00     0.032 A 
HETATM   32  C   UNL     1     -39.796  51.322 -53.461  1.00  0.00     0.009 A 
HETATM   33  C   UNL     1     -39.725  51.243 -52.068  1.00  0.00    -0.062 A 
HETATM   34  C   UNL     1     -39.236  49.995 -51.390  1.00  0.00     0.048 C 
HETATM   35  C   UNL     1     -40.084  52.359 -51.303  1.00  0.00     0.009 A 
HETATM   36  C   UNL     1     -40.523  53.535 -51.920  1.00  0.00     0.032 A 
ENDBRANCH   1  30
TORSDOF 6
ENDMDL
MODEL 10
REMARK VINA RESULT:      -8.6      2.025      2.713
REMARK  6 active torsions:
REMARK  status: ('A' for Active; 'I' for Inactive)
REMARK    1  A    between atoms: C_5  and  N_6 
REMARK    2  A    between atoms: C_8  and  C_9 
REMARK    3  A    between atoms: C_16  and  C_17 
REMARK    4  A    between atoms: C_17  and  N_18 
REMARK    5  A    between atoms: C_22  and  N_23 
REMARK    6  A    between atoms: C_26  and  O_27 
ROOT
HETATM    1  N   UNL     1     -41.121  55.095 -52.524  1.00  0.00    -0.244 N 
HETATM    2  N   UNL     1     -41.338  56.079 -51.624  1.00  0.00    -0.167 NA
HETATM    3  C   UNL     1     -41.752  57.142 -52.315  1.00  0.00     0.097 A 
HETATM    4  C   UNL     1     -41.667  56.905 -53.715  1.00  0.00     0.016 A 
HETATM    5  C   UNL     1     -41.318  55.568 -53.807  1.00  0.00     0.130 A 
ENDROOT
BRANCH   4   6
HETATM    6  C   UNL     1     -41.913  57.848 -54.831  1.00  0.00     0.277 C 
BRANCH   6   7
HETATM    7  N   UNL     1     -43.069  57.444 -55.775  1.00  0.00    -0.067 N 
HETATM    8  H   UNL     1     -43.570  56.709 -55.247  1.00  0.00     0.280 HD
HETATM    9  C   UNL     1     -44.032  58.574 -56.011  1.00  0.00     0.237 C 
HETATM   10  C   UNL     1     -45.118  58.172 -56.985  1.00  0.00     0.061 C 
HETATM   11  C   UNL     1     -44.600  57.636 -58.317  1.00  0.00     0.191 C 
HETATM   12  C   UNL     1     -43.558  56.539 -58.087  1.00  0.00     0.061 C 
HETATM   13  C   UNL     1     -42.499  56.832 -57.027  1.00  0.00     0.237 C 
BRANCH  11  14
HETATM   14  N   UNL     1     -44.178  58.711 -59.320  1.00  0.00    -0.064 N 
HETATM   15  H   UNL     1     -43.649  59.412 -58.755  1.00  0.00     0.280 HD
HETATM   16  C   UNL     1     -43.051  58.256 -60.276  1.00  0.00     0.266 C 
HETATM   17  C   UNL     1     -42.363  59.515 -60.811  1.00  0.00     0.144 C 
HETATM   18  C   UNL     1     -43.357  60.346 -61.614  1.00  0.00     0.035 C 
HETATM   19  C   UNL     1     -44.565  60.730 -60.762  1.00  0.00     0.030 C 
HETATM   20  C   UNL     1     -45.205  59.540 -60.052  1.00  0.00     0.235 C 
BRANCH  17  21
HETATM   21  O   UNL     1     -41.957  60.264 -59.659  1.00  0.00    -0.394 OA
HETATM   22  H   UNL     1     -42.772  60.589 -59.221  1.00  0.00     0.210 HD
ENDBRANCH  17  21
ENDBRANCH  11  14
ENDBRANCH   6   7
ENDBRANCH   4   6
BRANCH   3  23
HETATM   23  C   UNL     1     -42.173  58.357 -51.627  1.00  0.00    -0.005 A 
HETATM   24  C   UNL     1     -41.231  59.147 -50.953  1.00  0.00     0.017 A 
HETATM   25  C   UNL     1     -41.634  60.316 -50.301  1.00  0.00     0.043 A 
HETATM   26  C   UNL     1     -42.974  60.684 -50.317  1.00  0.00     0.116 A 
HETATM   27  F   UNL     1     -43.358  61.806 -49.698  1.00  0.00    -0.206 F 
HETATM   28  C   UNL     1     -43.924  59.899 -50.961  1.00  0.00     0.043 A 
HETATM   29  C   UNL     1     -43.527  58.730 -51.611  1.00  0.00     0.017 A 
ENDBRANCH   3  23
BRANCH   1  30
HETATM   30  C   UNL     1     -40.686  53.802 -52.128  1.00  0.00     0.058 A 
HETATM   31  C   UNL     1     -40.208  52.909 -53.097  1.00  0.00     0.032 A 
HETATM   32  C   UNL     1     -39.788  51.627 -52.730  1.00  0.00     0.009 A 
HETATM   33  C   UNL     1     -39.846  51.216 -51.396  1.00  0.00    -0.062 A 
HETATM   34  C   UNL     1     -39.382  49.846 -50.990  1.00  0.00     0.048 C 
HETATM   35  C   UNL     1     -40.314  52.111 -50.427  1.00  0.00     0.009 A 
HETATM   36  C   UNL     1     -40.731  53.397 -50.787  1.00  0.00     0.032 A 
ENDBRANCH   1  30
TORSDOF 6
ENDMDL
