MODEL 1
REMARK VINA RESULT:      -7.6      0.000      0.000
REMARK  9 active torsions:
REMARK  status: ('A' for Active; 'I' for Inactive)
REMARK    1  A    between atoms: C_2  and  C_3 
REMARK    2  A    between atoms: C_6  and  N_7 
REMARK    3  A    between atoms: C_8  and  C_10 
REMARK    4  A    between atoms: C_8  and  O_9 
REMARK       I    between atoms: C_10  and  N_11 
REMARK    5  A    between atoms: N_11  and  C_12 
REMARK    6  A    between atoms: C_12  and  C_13 
REMARK    7  A    between atoms: C_13  and  N_14 
REMARK    8  A    between atoms: N_14  and  C_16 
REMARK    9  A    between atoms: N_14  and  C_18 
ROOT
HETATM    1  N   UNL     1     -42.647  56.376 -53.624  1.00  0.00    -0.254 N 
HETATM    2  C   UNL     1     -43.682  56.890 -54.546  1.00  0.00     0.256 C 
HETATM    3  C   UNL     1     -44.145  58.306 -54.280  1.00  0.00     0.034 A 
HETATM    4  C   UNL     1     -43.710  58.957 -53.138  1.00  0.00     0.048 A 
HETATM    5  N   UNL     1     -42.876  58.286 -52.264  1.00  0.00    -0.308 N 
HETATM    6  C   UNL     1     -42.362  57.040 -52.437  1.00  0.00     0.330 C 
HETATM    7  O   UNL     1     -41.660  56.602 -51.527  1.00  0.00    -0.246 OA
HETATM    8  C   UNL     1     -45.049  58.978 -55.125  1.00  0.00     0.015 A 
HETATM    9  C   UNL     1     -45.455  60.284 -54.846  1.00  0.00     0.001 A 
HETATM   10  C   UNL     1     -44.984  60.928 -53.705  1.00  0.00     0.002 A 
HETATM   11  C   UNL     1     -44.118  60.260 -52.842  1.00  0.00     0.030 A 
HETATM   12  H   UNL     1     -42.613  58.723 -51.387  1.00  0.00     0.170 HD
ENDROOT
BRANCH   2  13
HETATM   13  C   UNL     1     -43.115  56.871 -56.058  1.00  0.00     0.279 C 
HETATM   14  N   UNL     1     -43.622  55.889 -56.889  1.00  0.00    -0.355 N 
HETATM   15  H   UNL     1     -44.308  55.263 -56.468  1.00  0.00     0.162 HD
HETATM   16  O   UNL     1     -42.222  57.625 -56.453  1.00  0.00    -0.268 OA
BRANCH  14  17
HETATM   17  C   UNL     1     -43.318  55.671 -58.298  1.00  0.00     0.150 C 
BRANCH  17  18
HETATM   18  C   UNL     1     -44.042  56.543 -59.349  1.00  0.00     0.254 C 
BRANCH  18  19
HETATM   19  N   UNL     1     -45.560  56.479 -59.267  1.00  0.00    -0.070 N 
HETATM   20  H   UNL     1     -45.729  55.914 -58.406  1.00  0.00     0.279 HD
BRANCH  19  21
HETATM   21  C   UNL     1     -46.272  57.782 -58.986  1.00  0.00     0.230 C 
HETATM   22  C   UNL     1     -45.304  58.923 -58.743  1.00  0.00     0.034 C 
ENDBRANCH  19  21
BRANCH  19  23
HETATM   23  C   UNL     1     -46.197  55.700 -60.397  1.00  0.00     0.230 C 
HETATM   24  C   UNL     1     -47.378  56.450 -60.986  1.00  0.00     0.034 C 
ENDBRANCH  19  23
ENDBRANCH  18  19
ENDBRANCH  17  18
ENDBRANCH  14  17
ENDBRANCH   2  13
BRANCH   2  25
HETATM   25  O   UNL     1     -44.835  56.083 -54.375  1.00  0.00    -0.359 OA
HETATM   26  H   UNL     1     -45.557  56.593 -54.779  1.00  0.00     0.213 HD
ENDBRANCH   2  25
BRANCH   1  27
HETATM   27  C   UNL     1     -41.932  55.155 -53.966  1.00  0.00     0.043 A 
HETATM   28  C   UNL     1     -40.732  55.169 -54.698  1.00  0.00     0.030 A 
HETATM   29  C   UNL     1     -39.978  54.003 -54.889  1.00  0.00     0.009 A 
HETATM   30  C   UNL     1     -40.402  52.786 -54.353  1.00  0.00    -0.058 A 
HETATM   31  C   UNL     1     -41.602  52.750 -53.643  1.00  0.00     0.009 A 
HETATM   32  C   UNL     1     -42.356  53.915 -53.459  1.00  0.00     0.030 A 
BRANCH  30  33
HETATM   33  C   UNL     1     -39.566  51.540 -54.506  1.00  0.00     0.034 C 
HETATM   34  C   UNL     1     -40.422  50.284 -54.413  1.00  0.00     0.010 C 
ENDBRANCH  30  33
ENDBRANCH   1  27
TORSDOF 9
ENDMDL
MODEL 2
REMARK VINA RESULT:      -7.6      2.114      6.095
REMARK  9 active torsions:
REMARK  status: ('A' for Active; 'I' for Inactive)
REMARK    1  A    between atoms: C_2  and  C_3 
REMARK    2  A    between atoms: C_6  and  N_7 
REMARK    3  A    between atoms: C_8  and  C_10 
REMARK    4  A    between atoms: C_8  and  O_9 
REMARK       I    between atoms: C_10  and  N_11 
REMARK    5  A    between atoms: N_11  and  C_12 
REMARK    6  A    between atoms: C_12  and  C_13 
REMARK    7  A    between atoms: C_13  and  N_14 
REMARK    8  A    between atoms: N_14  and  C_16 
REMARK    9  A    between atoms: N_14  and  C_18 
ROOT
HETATM    1  N   UNL     1     -41.421  55.887 -52.907  1.00  0.00    -0.254 N 
HETATM    2  C   UNL     1     -41.025  55.006 -54.026  1.00  0.00     0.256 C 
HETATM    3  C   UNL     1     -40.586  53.612 -53.632  1.00  0.00     0.034 A 
HETATM    4  C   UNL     1     -40.432  53.304 -52.291  1.00  0.00     0.048 A 
HETATM    5  N   UNL     1     -40.668  54.289 -51.349  1.00  0.00    -0.308 N 
HETATM    6  C   UNL     1     -41.116  55.548 -51.595  1.00  0.00     0.330 C 
HETATM    7  O   UNL     1     -41.236  56.290 -50.621  1.00  0.00    -0.246 OA
HETATM    8  C   UNL     1     -40.275  52.620 -54.582  1.00  0.00     0.015 A 
HETATM    9  C   UNL     1     -39.871  51.345 -54.180  1.00  0.00     0.001 A 
HETATM   10  C   UNL     1     -39.748  51.052 -52.825  1.00  0.00     0.002 A 
HETATM   11  C   UNL     1     -40.017  52.036 -51.877  1.00  0.00     0.030 A 
HETATM   12  H   UNL     1     -40.485  54.100 -50.370  1.00  0.00     0.170 HD
ENDROOT
BRANCH   2  13
HETATM   13  C   UNL     1     -42.271  54.824 -55.037  1.00  0.00     0.279 C 
HETATM   14  N   UNL     1     -42.127  55.385 -56.292  1.00  0.00    -0.355 N 
HETATM   15  H   UNL     1     -41.245  55.866 -56.464  1.00  0.00     0.162 HD
HETATM   16  O   UNL     1     -43.334  54.291 -54.708  1.00  0.00    -0.268 OA
BRANCH  14  17
HETATM   17  C   UNL     1     -43.070  55.336 -57.403  1.00  0.00     0.150 C 
BRANCH  17  18
HETATM   18  C   UNL     1     -43.382  56.647 -58.160  1.00  0.00     0.254 C 
BRANCH  18  19
HETATM   19  N   UNL     1     -42.150  57.464 -58.518  1.00  0.00    -0.070 N 
HETATM   20  H   UNL     1     -41.368  56.913 -58.100  1.00  0.00     0.279 HD
BRANCH  19  21
HETATM   21  C   UNL     1     -41.794  57.534 -59.985  1.00  0.00     0.230 C 
HETATM   22  C   UNL     1     -42.060  58.907 -60.573  1.00  0.00     0.034 C 
ENDBRANCH  19  21
BRANCH  19  23
HETATM   23  C   UNL     1     -42.101  58.816 -57.842  1.00  0.00     0.230 C 
HETATM   24  C   UNL     1     -43.397  59.113 -57.108  1.00  0.00     0.034 C 
ENDBRANCH  19  23
ENDBRANCH  18  19
ENDBRANCH  17  18
ENDBRANCH  14  17
ENDBRANCH   2  13
BRANCH   2  25
HETATM   25  O   UNL     1     -39.890  55.593 -54.642  1.00  0.00    -0.359 OA
HETATM   26  H   UNL     1     -39.540  56.211 -53.978  1.00  0.00     0.213 HD
ENDBRANCH   2  25
BRANCH   1  27
HETATM   27  C   UNL     1     -42.128  57.128 -53.193  1.00  0.00     0.043 A 
HETATM   28  C   UNL     1     -43.508  57.274 -52.964  1.00  0.00     0.030 A 
HETATM   29  C   UNL     1     -44.144  58.515 -53.101  1.00  0.00     0.009 A 
HETATM   30  C   UNL     1     -43.420  59.649 -53.472  1.00  0.00    -0.058 A 
HETATM   31  C   UNL     1     -42.055  59.516 -53.727  1.00  0.00     0.009 A 
HETATM   32  C   UNL     1     -41.423  58.274 -53.596  1.00  0.00     0.030 A 
BRANCH  30  33
HETATM   33  C   UNL     1     -44.087  60.998 -53.566  1.00  0.00     0.034 C 
HETATM   34  C   UNL     1     -43.323  61.931 -54.496  1.00  0.00     0.010 C 
ENDBRANCH  30  33
ENDBRANCH   1  27
TORSDOF 9
ENDMDL
MODEL 3
REMARK VINA RESULT:      -7.5      1.657      5.828
REMARK  9 active torsions:
REMARK  status: ('A' for Active; 'I' for Inactive)
REMARK    1  A    between atoms: C_2  and  C_3 
REMARK    2  A    between atoms: C_6  and  N_7 
REMARK    3  A    between atoms: C_8  and  C_10 
REMARK    4  A    between atoms: C_8  and  O_9 
REMARK       I    between atoms: C_10  and  N_11 
REMARK    5  A    between atoms: N_11  and  C_12 
REMARK    6  A    between atoms: C_12  and  C_13 
REMARK    7  A    between atoms: C_13  and  N_14 
REMARK    8  A    between atoms: N_14  and  C_16 
REMARK    9  A    between atoms: N_14  and  C_18 
ROOT
HETATM    1  N   UNL     1     -41.743  55.920 -52.601  1.00  0.00    -0.254 N 
HETATM    2  C   UNL     1     -41.247  55.109 -53.733  1.00  0.00     0.256 C 
HETATM    3  C   UNL     1     -40.669  53.759 -53.362  1.00  0.00     0.034 A 
HETATM    4  C   UNL     1     -40.496  53.442 -52.026  1.00  0.00     0.048 A 
HETATM    5  N   UNL     1     -40.842  54.376 -51.067  1.00  0.00    -0.308 N 
HETATM    6  C   UNL     1     -41.416  55.586 -51.292  1.00  0.00     0.330 C 
HETATM    7  O   UNL     1     -41.622  56.292 -50.306  1.00  0.00    -0.246 OA
HETATM    8  C   UNL     1     -40.248  52.826 -54.328  1.00  0.00     0.015 A 
HETATM    9  C   UNL     1     -39.717  51.592 -53.947  1.00  0.00     0.001 A 
HETATM   10  C   UNL     1     -39.576  51.284 -52.597  1.00  0.00     0.002 A 
HETATM   11  C   UNL     1     -39.955  52.215 -51.632  1.00  0.00     0.030 A 
HETATM   12  H   UNL     1     -40.648  54.187 -50.090  1.00  0.00     0.170 HD
ENDROOT
BRANCH   2  13
HETATM   13  C   UNL     1     -42.458  54.819 -54.761  1.00  0.00     0.279 C 
HETATM   14  N   UNL     1     -42.295  55.297 -56.048  1.00  0.00    -0.355 N 
HETATM   15  H   UNL     1     -41.423  55.792 -56.230  1.00  0.00     0.162 HD
HETATM   16  O   UNL     1     -43.515  54.277 -54.424  1.00  0.00    -0.268 OA
BRANCH  14  17
HETATM   17  C   UNL     1     -43.205  55.142 -57.177  1.00  0.00     0.150 C 
BRANCH  17  18
HETATM   18  C   UNL     1     -43.309  56.297 -58.200  1.00  0.00     0.254 C 
BRANCH  18  19
HETATM   19  N   UNL     1     -44.732  56.765 -58.463  1.00  0.00    -0.070 N 
HETATM   20  H   UNL     1     -45.310  56.098 -57.906  1.00  0.00     0.279 HD
BRANCH  19  21
HETATM   21  C   UNL     1     -45.107  58.117 -57.903  1.00  0.00     0.230 C 
HETATM   22  C   UNL     1     -45.142  58.120 -56.387  1.00  0.00     0.034 C 
ENDBRANCH  19  21
BRANCH  19  23
HETATM   23  C   UNL     1     -45.175  56.586 -59.898  1.00  0.00     0.230 C 
HETATM   24  C   UNL     1     -44.632  55.295 -60.486  1.00  0.00     0.034 C 
ENDBRANCH  19  23
ENDBRANCH  18  19
ENDBRANCH  17  18
ENDBRANCH  14  17
ENDBRANCH   2  13
BRANCH   2  25
HETATM   25  O   UNL     1     -40.175  55.823 -54.324  1.00  0.00    -0.359 OA
HETATM   26  H   UNL     1     -39.372  55.391 -53.986  1.00  0.00     0.213 HD
ENDBRANCH   2  25
BRANCH   1  27
HETATM   27  C   UNL     1     -42.573  57.086 -52.870  1.00  0.00     0.043 A 
HETATM   28  C   UNL     1     -43.941  57.123 -52.546  1.00  0.00     0.030 A 
HETATM   29  C   UNL     1     -44.691  58.301 -52.672  1.00  0.00     0.009 A 
HETATM   30  C   UNL     1     -44.095  59.478 -53.126  1.00  0.00    -0.058 A 
HETATM   31  C   UNL     1     -42.744  59.452 -53.475  1.00  0.00     0.009 A 
HETATM   32  C   UNL     1     -42.000  58.273 -53.354  1.00  0.00     0.030 A 
BRANCH  30  33
HETATM   33  C   UNL     1     -44.881  60.762 -53.209  1.00  0.00     0.034 C 
HETATM   34  C   UNL     1     -46.249  60.617 -52.555  1.00  0.00     0.010 C 
ENDBRANCH  30  33
ENDBRANCH   1  27
TORSDOF 9
ENDMDL
MODEL 4
REMARK VINA RESULT:      -7.4      1.908      2.659
REMARK  9 active torsions:
REMARK  status: ('A' for Active; 'I' for Inactive)
REMARK    1  A    between atoms: C_2  and  C_3 
REMARK    2  A    between atoms: C_6  and  N_7 
REMARK    3  A    between atoms: C_8  and  C_10 
REMARK    4  A    between atoms: C_8  and  O_9 
REMARK       I    between atoms: C_10  and  N_11 
REMARK    5  A    between atoms: N_11  and  C_12 
REMARK    6  A    between atoms: C_12  and  C_13 
REMARK    7  A    between atoms: C_13  and  N_14 
REMARK    8  A    between atoms: N_14  and  C_16 
REMARK    9  A    between atoms: N_14  and  C_18 
ROOT
HETATM    1  N   UNL     1     -42.158  56.948 -52.139  1.00  0.00    -0.254 N 
HETATM    2  C   UNL     1     -43.233  57.799 -52.691  1.00  0.00     0.256 C 
HETATM    3  C   UNL     1     -43.340  59.184 -52.088  1.00  0.00     0.034 A 
HETATM    4  C   UNL     1     -42.564  59.505 -50.988  1.00  0.00     0.048 A 
HETATM    5  N   UNL     1     -41.723  58.542 -50.460  1.00  0.00    -0.308 N 
HETATM    6  C   UNL     1     -41.514  57.295 -50.957  1.00  0.00     0.330 C 
HETATM    7  O   UNL     1     -40.747  56.571 -50.325  1.00  0.00    -0.246 OA
HETATM    8  C   UNL     1     -44.242  60.151 -52.572  1.00  0.00     0.015 A 
HETATM    9  C   UNL     1     -44.313  61.418 -51.988  1.00  0.00     0.001 A 
HETATM   10  C   UNL     1     -43.505  61.726 -50.898  1.00  0.00     0.002 A 
HETATM   11  C   UNL     1     -42.636  60.765 -50.388  1.00  0.00     0.030 A 
HETATM   12  H   UNL     1     -41.208  58.739 -49.609  1.00  0.00     0.170 HD
ENDROOT
BRANCH   2  13
HETATM   13  C   UNL     1     -42.995  58.008 -54.275  1.00  0.00     0.279 C 
HETATM   14  N   UNL     1     -43.840  57.309 -55.117  1.00  0.00    -0.355 N 
HETATM   15  H   UNL     1     -44.535  56.722 -54.659  1.00  0.00     0.162 HD
HETATM   16  O   UNL     1     -42.070  58.683 -54.735  1.00  0.00    -0.268 OA
BRANCH  14  17
HETATM   17  C   UNL     1     -43.873  57.344 -56.574  1.00  0.00     0.150 C 
BRANCH  17  18
HETATM   18  C   UNL     1     -43.112  56.246 -57.353  1.00  0.00     0.254 C 
BRANCH  18  19
HETATM   19  N   UNL     1     -42.257  56.776 -58.494  1.00  0.00    -0.070 N 
HETATM   20  H   UNL     1     -41.329  56.331 -58.324  1.00  0.00     0.279 HD
BRANCH  19  21
HETATM   21  C   UNL     1     -42.629  56.310 -59.883  1.00  0.00     0.230 C 
HETATM   22  C   UNL     1     -43.799  55.345 -59.869  1.00  0.00     0.034 C 
ENDBRANCH  19  21
BRANCH  19  23
HETATM   23  C   UNL     1     -42.012  58.267 -58.427  1.00  0.00     0.230 C 
HETATM   24  C   UNL     1     -42.379  58.945 -59.736  1.00  0.00     0.034 C 
ENDBRANCH  19  23
ENDBRANCH  18  19
ENDBRANCH  17  18
ENDBRANCH  14  17
ENDBRANCH   2  13
BRANCH   2  25
HETATM   25  O   UNL     1     -44.466  57.167 -52.393  1.00  0.00    -0.359 OA
HETATM   26  H   UNL     1     -44.525  57.184 -51.422  1.00  0.00     0.213 HD
ENDBRANCH   2  25
BRANCH   1  27
HETATM   27  C   UNL     1     -41.785  55.727 -52.840  1.00  0.00     0.043 A 
HETATM   28  C   UNL     1     -40.787  55.708 -53.831  1.00  0.00     0.030 A 
HETATM   29  C   UNL     1     -40.334  54.504 -54.389  1.00  0.00     0.009 A 
HETATM   30  C   UNL     1     -40.866  53.283 -53.972  1.00  0.00    -0.058 A 
HETATM   31  C   UNL     1     -41.874  53.286 -53.008  1.00  0.00     0.009 A 
HETATM   32  C   UNL     1     -42.329  54.490 -52.457  1.00  0.00     0.030 A 
BRANCH  30  33
HETATM   33  C   UNL     1     -40.343  51.981 -54.527  1.00  0.00     0.034 C 
HETATM   34  C   UNL     1     -39.657  51.155 -53.447  1.00  0.00     0.010 C 
ENDBRANCH  30  33
ENDBRANCH   1  27
TORSDOF 9
ENDMDL
MODEL 5
REMARK VINA RESULT:      -7.4      1.978      5.849
REMARK  9 active torsions:
REMARK  status: ('A' for Active; 'I' for Inactive)
REMARK    1  A    between atoms: C_2  and  C_3 
REMARK    2  A    between atoms: C_6  and  N_7 
REMARK    3  A    between atoms: C_8  and  C_10 
REMARK    4  A    between atoms: C_8  and  O_9 
REMARK       I    between atoms: C_10  and  N_11 
REMARK    5  A    between atoms: N_11  and  C_12 
REMARK    6  A    between atoms: C_12  and  C_13 
REMARK    7  A    between atoms: C_13  and  N_14 
REMARK    8  A    between atoms: N_14  and  C_16 
REMARK    9  A    between atoms: N_14  and  C_18 
ROOT
HETATM    1  N   UNL     1     -42.849  56.200 -55.977  1.00  0.00    -0.254 N 
HETATM    2  C   UNL     1     -42.976  57.497 -55.279  1.00  0.00     0.256 C 
HETATM    3  C   UNL     1     -44.006  58.447 -55.854  1.00  0.00     0.034 A 
HETATM    4  C   UNL     1     -44.629  58.128 -57.048  1.00  0.00     0.048 A 
HETATM    5  N   UNL     1     -44.280  56.954 -57.690  1.00  0.00    -0.308 N 
HETATM    6  C   UNL     1     -43.414  56.012 -57.233  1.00  0.00     0.330 C 
HETATM    7  O   UNL     1     -43.211  55.047 -57.967  1.00  0.00    -0.246 OA
HETATM    8  C   UNL     1     -44.320  59.678 -55.247  1.00  0.00     0.015 A 
HETATM    9  C   UNL     1     -45.274  60.529 -55.808  1.00  0.00     0.001 A 
HETATM   10  C   UNL     1     -45.907  60.175 -56.996  1.00  0.00     0.002 A 
HETATM   11  C   UNL     1     -45.577  58.977 -57.625  1.00  0.00     0.030 A 
HETATM   12  H   UNL     1     -44.672  56.746 -58.602  1.00  0.00     0.170 HD
ENDROOT
BRANCH   2  13
HETATM   13  C   UNL     1     -43.398  57.243 -53.741  1.00  0.00     0.279 C 
HETATM   14  N   UNL     1     -42.484  57.641 -52.783  1.00  0.00    -0.355 N 
HETATM   15  H   UNL     1     -41.624  58.056 -53.136  1.00  0.00     0.162 HD
HETATM   16  O   UNL     1     -44.433  56.657 -53.413  1.00  0.00    -0.268 OA
BRANCH  14  17
HETATM   17  C   UNL     1     -42.625  57.567 -51.333  1.00  0.00     0.150 C 
BRANCH  17  18
HETATM   18  C   UNL     1     -41.506  56.876 -50.521  1.00  0.00     0.254 C 
BRANCH  18  19
HETATM   19  N   UNL     1     -41.835  55.450 -50.103  1.00  0.00    -0.070 N 
HETATM   20  H   UNL     1     -42.802  55.531 -49.719  1.00  0.00     0.279 HD
BRANCH  19  21
HETATM   21  C   UNL     1     -41.975  54.440 -51.218  1.00  0.00     0.230 C 
HETATM   22  C   UNL     1     -43.391  53.910 -51.337  1.00  0.00     0.034 C 
ENDBRANCH  19  21
BRANCH  19  23
HETATM   23  C   UNL     1     -40.985  54.941 -48.960  1.00  0.00     0.230 C 
HETATM   24  C   UNL     1     -39.716  54.281 -49.468  1.00  0.00     0.034 C 
ENDBRANCH  19  23
ENDBRANCH  18  19
ENDBRANCH  17  18
ENDBRANCH  14  17
ENDBRANCH   2  13
BRANCH   2  25
HETATM   25  O   UNL     1     -41.735  58.169 -55.411  1.00  0.00    -0.359 OA
HETATM   26  H   UNL     1     -41.419  58.289 -54.499  1.00  0.00     0.213 HD
ENDBRANCH   2  25
BRANCH   1  27
HETATM   27  C   UNL     1     -42.113  55.118 -55.340  1.00  0.00     0.043 A 
HETATM   28  C   UNL     1     -42.728  53.906 -54.976  1.00  0.00     0.030 A 
HETATM   29  C   UNL     1     -41.979  52.820 -54.503  1.00  0.00     0.009 A 
HETATM   30  C   UNL     1     -40.592  52.912 -54.380  1.00  0.00    -0.058 A 
HETATM   31  C   UNL     1     -39.969  54.114 -54.714  1.00  0.00     0.009 A 
HETATM   32  C   UNL     1     -40.720  55.200 -55.180  1.00  0.00     0.030 A 
BRANCH  30  33
HETATM   33  C   UNL     1     -39.774  51.728 -53.926  1.00  0.00     0.034 C 
HETATM   34  C   UNL     1     -39.616  51.711 -52.412  1.00  0.00     0.010 C 
ENDBRANCH  30  33
ENDBRANCH   1  27
TORSDOF 9
ENDMDL
MODEL 6
REMARK VINA RESULT:      -7.4      2.210      2.939
REMARK  9 active torsions:
REMARK  status: ('A' for Active; 'I' for Inactive)
REMARK    1  A    between atoms: C_2  and  C_3 
REMARK    2  A    between atoms: C_6  and  N_7 
REMARK    3  A    between atoms: C_8  and  C_10 
REMARK    4  A    between atoms: C_8  and  O_9 
REMARK       I    between atoms: C_10  and  N_11 
REMARK    5  A    between atoms: N_11  and  C_12 
REMARK    6  A    between atoms: C_12  and  C_13 
REMARK    7  A    between atoms: C_13  and  N_14 
REMARK    8  A    between atoms: N_14  and  C_16 
REMARK    9  A    between atoms: N_14  and  C_18 
ROOT
HETATM    1  N   UNL     1     -42.510  57.077 -52.089  1.00  0.00    -0.254 N 
HETATM    2  C   UNL     1     -43.886  57.538 -52.371  1.00  0.00     0.256 C 
HETATM    3  C   UNL     1     -44.213  58.938 -51.897  1.00  0.00     0.034 A 
HETATM    4  C   UNL     1     -43.296  59.619 -51.114  1.00  0.00     0.048 A 
HETATM    5  N   UNL     1     -42.112  58.991 -50.775  1.00  0.00    -0.308 N 
HETATM    6  C   UNL     1     -41.701  57.765 -51.193  1.00  0.00     0.330 C 
HETATM    7  O   UNL     1     -40.624  57.366 -50.755  1.00  0.00    -0.246 OA
HETATM    8  C   UNL     1     -45.444  59.563 -52.176  1.00  0.00     0.015 A 
HETATM    9  C   UNL     1     -45.710  60.855 -51.719  1.00  0.00     0.001 A 
HETATM   10  C   UNL     1     -44.762  61.530 -50.955  1.00  0.00     0.002 A 
HETATM   11  C   UNL     1     -43.556  60.908 -50.641  1.00  0.00     0.030 A 
HETATM   12  H   UNL     1     -41.466  59.448 -50.140  1.00  0.00     0.170 HD
ENDROOT
BRANCH   2  13
HETATM   13  C   UNL     1     -44.143  57.525 -53.965  1.00  0.00     0.279 C 
HETATM   14  N   UNL     1     -43.328  58.346 -54.723  1.00  0.00    -0.355 N 
HETATM   15  H   UNL     1     -42.640  58.889 -54.203  1.00  0.00     0.162 HD
HETATM   16  O   UNL     1     -45.058  56.890 -54.496  1.00  0.00    -0.268 OA
BRANCH  14  17
HETATM   17  C   UNL     1     -43.317  58.496 -56.173  1.00  0.00     0.150 C 
BRANCH  17  18
HETATM   18  C   UNL     1     -42.623  57.404 -57.019  1.00  0.00     0.254 C 
BRANCH  18  19
HETATM   19  N   UNL     1     -41.895  57.939 -58.243  1.00  0.00    -0.070 N 
HETATM   20  H   UNL     1     -40.927  57.567 -58.127  1.00  0.00     0.279 HD
BRANCH  19  21
HETATM   21  C   UNL     1     -42.334  57.386 -59.579  1.00  0.00     0.230 C 
HETATM   22  C   UNL     1     -42.814  55.951 -59.475  1.00  0.00     0.034 C 
ENDBRANCH  19  21
BRANCH  19  23
HETATM   23  C   UNL     1     -41.753  59.445 -58.255  1.00  0.00     0.230 C 
HETATM   24  C   UNL     1     -42.146  60.025 -59.602  1.00  0.00     0.034 C 
ENDBRANCH  19  23
ENDBRANCH  18  19
ENDBRANCH  17  18
ENDBRANCH  14  17
ENDBRANCH   2  13
BRANCH   2  25
HETATM   25  O   UNL     1     -44.769  56.687 -51.659  1.00  0.00    -0.359 OA
HETATM   26  H   UNL     1     -45.646  57.092 -51.768  1.00  0.00     0.213 HD
ENDBRANCH   2  25
BRANCH   1  27
HETATM   27  C   UNL     1     -42.010  55.881 -52.752  1.00  0.00     0.043 A 
HETATM   28  C   UNL     1     -41.057  55.940 -53.784  1.00  0.00     0.030 A 
HETATM   29  C   UNL     1     -40.474  54.778 -54.309  1.00  0.00     0.009 A 
HETATM   30  C   UNL     1     -40.826  53.521 -53.816  1.00  0.00    -0.058 A 
HETATM   31  C   UNL     1     -41.788  53.444 -52.809  1.00  0.00     0.009 A 
HETATM   32  C   UNL     1     -42.373  54.605 -52.291  1.00  0.00     0.030 A 
BRANCH  30  33
HETATM   33  C   UNL     1     -40.161  52.271 -54.336  1.00  0.00     0.034 C 
HETATM   34  C   UNL     1     -39.593  51.432 -53.200  1.00  0.00     0.010 C 
ENDBRANCH  30  33
ENDBRANCH   1  27
TORSDOF 9
ENDMDL
MODEL 7
REMARK VINA RESULT:      -7.3     16.414     19.170
REMARK  9 active torsions:
REMARK  status: ('A' for Active; 'I' for Inactive)
REMARK    1  A    between atoms: C_2  and  C_3 
REMARK    2  A    between atoms: C_6  and  N_7 
REMARK    3  A    between atoms: C_8  and  C_10 
REMARK    4  A    between atoms: C_8  and  O_9 
REMARK       I    between atoms: C_10  and  N_11 
REMARK    5  A    between atoms: N_11  and  C_12 
REMARK    6  A    between atoms: C_12  and  C_13 
REMARK    7  A    between atoms: C_13  and  N_14 
REMARK    8  A    between atoms: N_14  and  C_16 
REMARK    9  A    between atoms: N_14  and  C_18 
ROOT
HETATM    1  N   UNL     1     -35.025  41.216 -54.091  1.00  0.00    -0.254 N 
HETATM    2  C   UNL     1     -33.811  40.374 -54.037  1.00  0.00     0.256 C 
HETATM    3  C   UNL     1     -33.322  40.026 -52.647  1.00  0.00     0.034 A 
HETATM    4  C   UNL     1     -33.917  40.625 -51.550  1.00  0.00     0.048 A 
HETATM    5  N   UNL     1     -34.935  41.538 -51.759  1.00  0.00    -0.308 N 
HETATM    6  C   UNL     1     -35.481  41.876 -52.956  1.00  0.00     0.330 C 
HETATM    7  O   UNL     1     -36.361  42.735 -52.938  1.00  0.00    -0.246 OA
HETATM    8  C   UNL     1     -32.241  39.152 -52.423  1.00  0.00     0.015 A 
HETATM    9  C   UNL     1     -31.817  38.857 -51.125  1.00  0.00     0.001 A 
HETATM   10  C   UNL     1     -32.448  39.452 -50.037  1.00  0.00     0.002 A 
HETATM   11  C   UNL     1     -33.494  40.347 -50.248  1.00  0.00     0.030 A 
HETATM   12  H   UNL     1     -35.327  42.041 -50.970  1.00  0.00     0.170 HD
ENDROOT
BRANCH   2  13
HETATM   13  C   UNL     1     -34.095  38.971 -54.785  1.00  0.00     0.279 C 
HETATM   14  N   UNL     1     -33.423  38.767 -55.977  1.00  0.00    -0.355 N 
HETATM   15  H   UNL     1     -32.811  39.525 -56.276  1.00  0.00     0.162 HD
HETATM   16  O   UNL     1     -34.918  38.145 -54.382  1.00  0.00    -0.268 OA
BRANCH  14  17
HETATM   17  C   UNL     1     -33.462  37.585 -56.829  1.00  0.00     0.150 C 
BRANCH  17  18
HETATM   18  C   UNL     1     -33.829  37.766 -58.320  1.00  0.00     0.254 C 
BRANCH  18  19
HETATM   19  N   UNL     1     -35.273  38.182 -58.556  1.00  0.00    -0.070 N 
HETATM   20  H   UNL     1     -35.312  39.148 -58.162  1.00  0.00     0.279 HD
BRANCH  19  21
HETATM   21  C   UNL     1     -35.692  38.366 -59.996  1.00  0.00     0.230 C 
HETATM   22  C   UNL     1     -34.687  37.772 -60.965  1.00  0.00     0.034 C 
ENDBRANCH  19  21
BRANCH  19  23
HETATM   23  C   UNL     1     -36.275  37.377 -57.757  1.00  0.00     0.230 C 
HETATM   24  C   UNL     1     -37.667  37.480 -58.355  1.00  0.00     0.034 C 
ENDBRANCH  19  23
ENDBRANCH  18  19
ENDBRANCH  17  18
ENDBRANCH  14  17
ENDBRANCH   2  13
BRANCH   2  25
HETATM   25  O   UNL     1     -32.758  41.116 -54.628  1.00  0.00    -0.359 OA
HETATM   26  H   UNL     1     -32.091  40.451 -54.871  1.00  0.00     0.213 HD
ENDBRANCH   2  25
BRANCH   1  27
HETATM   27  C   UNL     1     -35.737  41.359 -55.353  1.00  0.00     0.043 A 
HETATM   28  C   UNL     1     -35.165  41.996 -56.468  1.00  0.00     0.030 A 
HETATM   29  C   UNL     1     -35.800  41.994 -57.717  1.00  0.00     0.009 A 
HETATM   30  C   UNL     1     -37.028  41.354 -57.890  1.00  0.00    -0.058 A 
HETATM   31  C   UNL     1     -37.621  40.738 -56.788  1.00  0.00     0.009 A 
HETATM   32  C   UNL     1     -36.987  40.747 -55.540  1.00  0.00     0.030 A 
BRANCH  30  33
HETATM   33  C   UNL     1     -37.689  41.299 -59.244  1.00  0.00     0.034 C 
HETATM   34  C   UNL     1     -37.348  42.527 -60.078  1.00  0.00     0.010 C 
ENDBRANCH  30  33
ENDBRANCH   1  27
TORSDOF 9
ENDMDL
MODEL 8
REMARK VINA RESULT:      -7.2      2.379      6.837
REMARK  9 active torsions:
REMARK  status: ('A' for Active; 'I' for Inactive)
REMARK    1  A    between atoms: C_2  and  C_3 
REMARK    2  A    between atoms: C_6  and  N_7 
REMARK    3  A    between atoms: C_8  and  C_10 
REMARK    4  A    between atoms: C_8  and  O_9 
REMARK       I    between atoms: C_10  and  N_11 
REMARK    5  A    between atoms: N_11  and  C_12 
REMARK    6  A    between atoms: C_12  and  C_13 
REMARK    7  A    between atoms: C_13  and  N_14 
REMARK    8  A    between atoms: N_14  and  C_16 
REMARK    9  A    between atoms: N_14  and  C_18 
ROOT
HETATM    1  N   UNL     1     -42.392  58.318 -55.696  1.00  0.00    -0.254 N 
HETATM    2  C   UNL     1     -43.102  57.077 -56.071  1.00  0.00     0.256 C 
HETATM    3  C   UNL     1     -43.102  56.750 -57.549  1.00  0.00     0.034 A 
HETATM    4  C   UNL     1     -42.599  57.675 -58.448  1.00  0.00     0.048 A 
HETATM    5  N   UNL     1     -42.123  58.881 -57.967  1.00  0.00    -0.308 N 
HETATM    6  C   UNL     1     -42.029  59.248 -56.663  1.00  0.00     0.330 C 
HETATM    7  O   UNL     1     -41.606  60.381 -56.437  1.00  0.00    -0.246 OA
HETATM    8  C   UNL     1     -43.646  55.555 -58.059  1.00  0.00     0.015 A 
HETATM    9  C   UNL     1     -43.630  55.289 -59.430  1.00  0.00     0.001 A 
HETATM   10  C   UNL     1     -43.095  56.224 -60.311  1.00  0.00     0.002 A 
HETATM   11  C   UNL     1     -42.588  57.425 -59.822  1.00  0.00     0.030 A 
HETATM   12  H   UNL     1     -41.824  59.598 -58.620  1.00  0.00     0.170 HD
ENDROOT
BRANCH   2  13
HETATM   13  C   UNL     1     -42.420  55.818 -55.325  1.00  0.00     0.279 C 
HETATM   14  N   UNL     1     -43.125  55.282 -54.263  1.00  0.00    -0.355 N 
HETATM   15  H   UNL     1     -44.011  55.735 -54.046  1.00  0.00     0.162 HD
HETATM   16  O   UNL     1     -41.299  55.390 -55.612  1.00  0.00    -0.268 OA
BRANCH  14  17
HETATM   17  C   UNL     1     -42.764  54.129 -53.447  1.00  0.00     0.150 C 
BRANCH  17  18
HETATM   18  C   UNL     1     -41.709  54.319 -52.333  1.00  0.00     0.254 C 
BRANCH  18  19
HETATM   19  N   UNL     1     -40.444  53.497 -52.532  1.00  0.00    -0.070 N 
HETATM   20  H   UNL     1     -39.736  54.212 -52.810  1.00  0.00     0.279 HD
BRANCH  19  21
HETATM   21  C   UNL     1     -39.850  52.868 -51.293  1.00  0.00     0.230 C 
HETATM   22  C   UNL     1     -39.873  53.810 -50.105  1.00  0.00     0.034 C 
ENDBRANCH  19  21
BRANCH  19  23
HETATM   23  C   UNL     1     -40.524  52.532 -53.694  1.00  0.00     0.230 C 
HETATM   24  C   UNL     1     -39.540  51.387 -53.529  1.00  0.00     0.034 C 
ENDBRANCH  19  23
ENDBRANCH  18  19
ENDBRANCH  17  18
ENDBRANCH  14  17
ENDBRANCH   2  13
BRANCH   2  25
HETATM   25  O   UNL     1     -44.467  57.254 -55.729  1.00  0.00    -0.359 OA
HETATM   26  H   UNL     1     -44.508  57.076 -54.774  1.00  0.00     0.213 HD
ENDBRANCH   2  25
BRANCH   1  27
HETATM   27  C   UNL     1     -42.083  58.566 -54.294  1.00  0.00     0.043 A 
HETATM   28  C   UNL     1     -40.813  58.307 -53.750  1.00  0.00     0.030 A 
HETATM   29  C   UNL     1     -40.486  58.689 -52.441  1.00  0.00     0.009 A 
HETATM   30  C   UNL     1     -41.421  59.343 -51.638  1.00  0.00    -0.058 A 
HETATM   31  C   UNL     1     -42.693  59.587 -52.155  1.00  0.00     0.009 A 
HETATM   32  C   UNL     1     -43.019  59.198 -53.459  1.00  0.00     0.030 A 
BRANCH  30  33
HETATM   33  C   UNL     1     -41.058  59.809 -50.250  1.00  0.00     0.034 C 
HETATM   34  C   UNL     1     -39.547  59.880 -50.067  1.00  0.00     0.010 C 
ENDBRANCH  30  33
ENDBRANCH   1  27
TORSDOF 9
ENDMDL
MODEL 9
REMARK VINA RESULT:      -7.1     16.471     19.846
REMARK  9 active torsions:
REMARK  status: ('A' for Active; 'I' for Inactive)
REMARK    1  A    between atoms: C_2  and  C_3 
REMARK    2  A    between atoms: C_6  and  N_7 
REMARK    3  A    between atoms: C_8  and  C_10 
REMARK    4  A    between atoms: C_8  and  O_9 
REMARK       I    between atoms: C_10  and  N_11 
REMARK    5  A    between atoms: N_11  and  C_12 
REMARK    6  A    between atoms: C_12  and  C_13 
REMARK    7  A    between atoms: C_13  and  N_14 
REMARK    8  A    between atoms: N_14  and  C_16 
REMARK    9  A    between atoms: N_14  and  C_18 
ROOT
HETATM    1  N   UNL     1     -34.962  41.047 -54.141  1.00  0.00    -0.254 N 
HETATM    2  C   UNL     1     -33.674  40.351 -53.941  1.00  0.00     0.256 C 
HETATM    3  C   UNL     1     -33.241  40.184 -52.500  1.00  0.00     0.034 A 
HETATM    4  C   UNL     1     -33.965  40.810 -51.500  1.00  0.00     0.048 A 
HETATM    5  N   UNL     1     -35.056  41.584 -51.850  1.00  0.00    -0.308 N 
HETATM    6  C   UNL     1     -35.557  41.752 -53.101  1.00  0.00     0.330 C 
HETATM    7  O   UNL     1     -36.520  42.508 -53.214  1.00  0.00    -0.246 OA
HETATM    8  C   UNL     1     -32.092  39.457 -52.135  1.00  0.00     0.015 A 
HETATM    9  C   UNL     1     -31.724  39.327 -50.794  1.00  0.00     0.001 A 
HETATM   10  C   UNL     1     -32.482  39.944 -49.803  1.00  0.00     0.002 A 
HETATM   11  C   UNL     1     -33.600  40.698 -50.156  1.00  0.00     0.030 A 
HETATM   12  H   UNL     1     -35.548  42.109 -51.135  1.00  0.00     0.170 HD
ENDROOT
BRANCH   2  13
HETATM   13  C   UNL     1     -33.761  38.865 -54.566  1.00  0.00     0.279 C 
HETATM   14  N   UNL     1     -33.010  38.634 -55.704  1.00  0.00    -0.355 N 
HETATM   15  H   UNL     1     -32.470  39.428 -56.046  1.00  0.00     0.162 HD
HETATM   16  O   UNL     1     -34.509  37.989 -54.123  1.00  0.00    -0.268 OA
BRANCH  14  17
HETATM   17  C   UNL     1     -32.873  37.385 -56.443  1.00  0.00     0.150 C 
BRANCH  17  18
HETATM   18  C   UNL     1     -32.720  37.453 -57.980  1.00  0.00     0.254 C 
BRANCH  18  19
HETATM   19  N   UNL     1     -31.290  37.675 -58.449  1.00  0.00    -0.070 N 
HETATM   20  H   UNL     1     -31.255  38.701 -58.636  1.00  0.00     0.279 HD
BRANCH  19  21
HETATM   21  C   UNL     1     -30.205  37.461 -57.420  1.00  0.00     0.230 C 
HETATM   22  C   UNL     1     -29.571  38.766 -56.976  1.00  0.00     0.034 C 
ENDBRANCH  19  21
BRANCH  19  23
HETATM   23  C   UNL     1     -30.976  37.011 -59.772  1.00  0.00     0.230 C 
HETATM   24  C   UNL     1     -32.052  37.301 -60.803  1.00  0.00     0.034 C 
ENDBRANCH  19  23
ENDBRANCH  18  19
ENDBRANCH  17  18
ENDBRANCH  14  17
ENDBRANCH   2  13
BRANCH   2  25
HETATM   25  O   UNL     1     -32.667  41.148 -54.543  1.00  0.00    -0.359 OA
HETATM   26  H   UNL     1     -32.500  40.729 -55.404  1.00  0.00     0.213 HD
ENDBRANCH   2  25
BRANCH   1  27
HETATM   27  C   UNL     1     -35.603  40.999 -55.448  1.00  0.00     0.043 A 
HETATM   28  C   UNL     1     -36.712  40.175 -55.709  1.00  0.00     0.030 A 
HETATM   29  C   UNL     1     -37.410  40.250 -56.923  1.00  0.00     0.009 A 
HETATM   30  C   UNL     1     -37.018  41.152 -57.913  1.00  0.00    -0.058 A 
HETATM   31  C   UNL     1     -35.905  41.959 -57.680  1.00  0.00     0.009 A 
HETATM   32  C   UNL     1     -35.206  41.878 -56.470  1.00  0.00     0.030 A 
BRANCH  30  33
HETATM   33  C   UNL     1     -37.798  41.278 -59.198  1.00  0.00     0.034 C 
HETATM   34  C   UNL     1     -37.322  42.467 -60.021  1.00  0.00     0.010 C 
ENDBRANCH  30  33
ENDBRANCH   1  27
TORSDOF 9
ENDMDL
MODEL 10
REMARK VINA RESULT:      -6.9     16.242     19.272
REMARK  9 active torsions:
REMARK  status: ('A' for Active; 'I' for Inactive)
REMARK    1  A    between atoms: C_2  and  C_3 
REMARK    2  A    between atoms: C_6  and  N_7 
REMARK    3  A    between atoms: C_8  and  C_10 
REMARK    4  A    between atoms: C_8  and  O_9 
REMARK       I    between atoms: C_10  and  N_11 
REMARK    5  A    between atoms: N_11  and  C_12 
REMARK    6  A    between atoms: C_12  and  C_13 
REMARK    7  A    between atoms: C_13  and  N_14 
REMARK    8  A    between atoms: N_14  and  C_16 
REMARK    9  A    between atoms: N_14  and  C_18 
ROOT
HETATM    1  N   UNL     1     -36.846  41.052 -54.434  1.00  0.00    -0.254 N 
HETATM    2  C   UNL     1     -35.438  41.056 -53.982  1.00  0.00     0.256 C 
HETATM    3  C   UNL     1     -35.218  40.666 -52.535  1.00  0.00     0.034 A 
HETATM    4  C   UNL     1     -36.314  40.494 -51.707  1.00  0.00     0.048 A 
HETATM    5  N   UNL     1     -37.580  40.699 -52.224  1.00  0.00    -0.308 N 
HETATM    6  C   UNL     1     -37.886  40.994 -53.514  1.00  0.00     0.330 C 
HETATM    7  O   UNL     1     -39.075  41.170 -53.773  1.00  0.00    -0.246 OA
HETATM    8  C   UNL     1     -33.933  40.522 -51.978  1.00  0.00     0.015 A 
HETATM    9  C   UNL     1     -33.771  40.163 -50.638  1.00  0.00     0.001 A 
HETATM   10  C   UNL     1     -34.888  39.970 -49.831  1.00  0.00     0.002 A 
HETATM   11  C   UNL     1     -36.164  40.147 -50.362  1.00  0.00     0.030 A 
HETATM   12  H   UNL     1     -38.386  40.651 -51.609  1.00  0.00     0.170 HD
ENDROOT
BRANCH   2  13
HETATM   13  C   UNL     1     -34.584  40.012 -54.870  1.00  0.00     0.279 C 
HETATM   14  N   UNL     1     -33.644  40.561 -55.723  1.00  0.00    -0.355 N 
HETATM   15  H   UNL     1     -33.578  41.578 -55.714  1.00  0.00     0.162 HD
HETATM   16  O   UNL     1     -34.792  38.796 -54.868  1.00  0.00    -0.268 OA
BRANCH  14  17
HETATM   17  C   UNL     1     -32.717  39.855 -56.599  1.00  0.00     0.150 C 
BRANCH  17  18
HETATM   18  C   UNL     1     -31.201  40.073 -56.392  1.00  0.00     0.254 C 
BRANCH  18  19
HETATM   19  N   UNL     1     -30.484  38.883 -55.770  1.00  0.00    -0.070 N 
HETATM   20  H   UNL     1     -29.952  39.310 -54.981  1.00  0.00     0.279 HD
BRANCH  19  21
HETATM   21  C   UNL     1     -31.358  37.851 -55.097  1.00  0.00     0.230 C 
HETATM   22  C   UNL     1     -31.467  38.080 -53.602  1.00  0.00     0.034 C 
ENDBRANCH  19  21
BRANCH  19  23
HETATM   23  C   UNL     1     -29.441  38.263 -56.674  1.00  0.00     0.230 C 
HETATM   24  C   UNL     1     -28.174  37.930 -55.906  1.00  0.00     0.034 C 
ENDBRANCH  19  23
ENDBRANCH  18  19
ENDBRANCH  17  18
ENDBRANCH  14  17
ENDBRANCH   2  13
BRANCH   2  25
HETATM   25  O   UNL     1     -34.967  42.389 -54.084  1.00  0.00    -0.359 OA
HETATM   26  H   UNL     1     -34.609  42.457 -54.985  1.00  0.00     0.213 HD
ENDBRANCH   2  25
BRANCH   1  27
HETATM   27  C   UNL     1     -37.136  41.122 -55.859  1.00  0.00     0.043 A 
HETATM   28  C   UNL     1     -36.845  42.263 -56.627  1.00  0.00     0.030 A 
HETATM   29  C   UNL     1     -36.990  42.262 -58.022  1.00  0.00     0.009 A 
HETATM   30  C   UNL     1     -37.431  41.119 -58.690  1.00  0.00    -0.058 A 
HETATM   31  C   UNL     1     -37.747  39.986 -57.940  1.00  0.00     0.009 A 
HETATM   32  C   UNL     1     -37.607  39.992 -56.547  1.00  0.00     0.030 A 
BRANCH  30  33
HETATM   33  C   UNL     1     -37.535  41.093 -60.194  1.00  0.00     0.034 C 
HETATM   34  C   UNL     1     -37.228  39.707 -60.747  1.00  0.00     0.010 C 
ENDBRANCH  30  33
ENDBRANCH   1  27
TORSDOF 9
ENDMDL
