MODEL 1
REMARK VINA RESULT:      -8.7      0.000      0.000
REMARK  6 active torsions:
REMARK  status: ('A' for Active; 'I' for Inactive)
REMARK    1  A    between atoms: N_4  and  C_5 
REMARK    2  A    between atoms: C_13  and  C_14 
REMARK       I    between atoms: C_14  and  N_15 
REMARK    3  A    between atoms: N_15  and  C_16 
REMARK    4  A    between atoms: C_16  and  C_17 
REMARK    5  A    between atoms: C_17  and  O_18 
REMARK    6  A    between atoms: C_17  and  C_19 
ROOT
HETATM    1  C   UNL     1     -41.797  56.806 -54.022  1.00  0.00     0.257 C 
HETATM    2  N   UNL     1     -42.887  56.686 -54.851  1.00  0.00    -0.354 N 
HETATM    3  O   UNL     1     -41.249  57.895 -53.864  1.00  0.00    -0.267 OA
HETATM    4  H   UNL     1     -43.314  55.776 -54.971  1.00  0.00     0.162 HD
ENDROOT
BRANCH   1   5
HETATM    5  C   UNL     1     -41.345  55.608 -53.337  1.00  0.00     0.098 C 
HETATM    6  C   UNL     1     -41.357  55.395 -51.932  1.00  0.00     0.070 C 
HETATM    7  C   UNL     1     -41.820  56.325 -50.867  1.00  0.00     0.073 C 
HETATM    8  N   UNL     1     -40.839  54.213 -51.591  1.00  0.00    -0.170 NA
HETATM    9  N   UNL     1     -40.580  53.574 -52.767  1.00  0.00    -0.221 N 
HETATM   10  C   UNL     1     -40.785  54.445 -53.829  1.00  0.00     0.145 C 
HETATM   11 CL   UNL     1     -40.275  54.091 -55.425  1.00  0.00    -0.061 Cl
BRANCH   9  12
HETATM   12  C   UNL     1     -40.189  52.198 -52.713  1.00  0.00     0.060 A 
HETATM   13  C   UNL     1     -40.202  51.360 -53.834  1.00  0.00     0.031 A 
HETATM   14  C   UNL     1     -39.826  50.016 -53.716  1.00  0.00     0.002 A 
HETATM   15  C   UNL     1     -39.446  49.494 -52.482  1.00  0.00     0.000 A 
HETATM   16  C   UNL     1     -39.451  50.311 -51.356  1.00  0.00     0.002 A 
HETATM   17  C   UNL     1     -39.827  51.652 -51.468  1.00  0.00     0.031 A 
ENDBRANCH   9  12
ENDBRANCH   1   5
BRANCH   2  18
HETATM   18  C   UNL     1     -43.376  57.799 -55.658  1.00  0.00     0.159 C 
BRANCH  18  19
HETATM   19  C   UNL     1     -42.923  57.739 -57.137  1.00  0.00     0.169 C 
BRANCH  19  20
HETATM   20  O   UNL     1     -41.872  56.795 -57.351  1.00  0.00    -0.389 OA
HETATM   21  H   UNL     1     -41.912  56.498 -58.284  1.00  0.00     0.210 HD
ENDBRANCH  19  20
BRANCH  19  22
HETATM   22  C   UNL     1     -44.082  57.358 -58.038  1.00  0.00    -0.025 A 
HETATM   23  C   UNL     1     -43.931  56.347 -58.999  1.00  0.00     0.053 A 
HETATM   24  C   UNL     1     -44.993  56.013 -59.839  1.00  0.00     0.138 A 
HETATM   25  F   UNL     1     -44.808  55.042 -60.747  1.00  0.00    -0.204 F 
HETATM   26  C   UNL     1     -46.214  56.675 -59.743  1.00  0.00     0.072 A 
HETATM   27 CL   UNL     1     -47.524  56.262 -60.782  1.00  0.00    -0.081 Cl
HETATM   28  C   UNL     1     -46.379  57.685 -58.799  1.00  0.00     0.028 A 
HETATM   29  C   UNL     1     -45.317  58.026 -57.956  1.00  0.00     0.012 A 
ENDBRANCH  19  22
ENDBRANCH  18  19
ENDBRANCH   2  18
TORSDOF 6
ENDMDL
MODEL 2
REMARK VINA RESULT:      -8.6      2.127      2.414
REMARK  6 active torsions:
REMARK  status: ('A' for Active; 'I' for Inactive)
REMARK    1  A    between atoms: N_4  and  C_5 
REMARK    2  A    between atoms: C_13  and  C_14 
REMARK       I    between atoms: C_14  and  N_15 
REMARK    3  A    between atoms: N_15  and  C_16 
REMARK    4  A    between atoms: C_16  and  C_17 
REMARK    5  A    between atoms: C_17  and  O_18 
REMARK    6  A    between atoms: C_17  and  C_19 
ROOT
HETATM    1  C   UNL     1     -41.713  56.985 -53.170  1.00  0.00     0.257 C 
HETATM    2  N   UNL     1     -43.052  57.248 -53.001  1.00  0.00    -0.354 N 
HETATM    3  O   UNL     1     -40.967  57.833 -53.655  1.00  0.00    -0.267 OA
HETATM    4  H   UNL     1     -43.647  56.529 -52.608  1.00  0.00     0.162 HD
ENDROOT
BRANCH   1   5
HETATM    5  C   UNL     1     -41.227  55.687 -52.736  1.00  0.00     0.098 C 
HETATM    6  C   UNL     1     -41.056  55.266 -51.390  1.00  0.00     0.070 C 
HETATM    7  C   UNL     1     -41.323  56.038 -50.147  1.00  0.00     0.073 C 
HETATM    8  N   UNL     1     -40.552  54.033 -51.302  1.00  0.00    -0.170 NA
HETATM    9  N   UNL     1     -40.489  53.571 -52.582  1.00  0.00    -0.221 N 
HETATM   10  C   UNL     1     -40.797  54.596 -53.467  1.00  0.00     0.145 C 
HETATM   11 CL   UNL     1     -40.529  54.471 -55.153  1.00  0.00    -0.061 Cl
BRANCH   9  12
HETATM   12  C   UNL     1     -40.159  52.193 -52.784  1.00  0.00     0.060 A 
HETATM   13  C   UNL     1     -40.271  51.558 -54.026  1.00  0.00     0.031 A 
HETATM   14  C   UNL     1     -39.952  50.202 -54.159  1.00  0.00     0.002 A 
HETATM   15  C   UNL     1     -39.530  49.464 -53.056  1.00  0.00     0.000 A 
HETATM   16  C   UNL     1     -39.436  50.076 -51.810  1.00  0.00     0.002 A 
HETATM   17  C   UNL     1     -39.756  51.429 -51.673  1.00  0.00     0.031 A 
ENDBRANCH   9  12
ENDBRANCH   1   5
BRANCH   2  18
HETATM   18  C   UNL     1     -43.668  58.481 -53.478  1.00  0.00     0.159 C 
BRANCH  18  19
HETATM   19  C   UNL     1     -44.673  58.264 -54.635  1.00  0.00     0.169 C 
BRANCH  19  20
HETATM   20  O   UNL     1     -45.603  59.341 -54.764  1.00  0.00    -0.389 OA
HETATM   21  H   UNL     1     -45.115  60.131 -55.078  1.00  0.00     0.210 HD
ENDBRANCH  19  20
BRANCH  19  22
HETATM   22  C   UNL     1     -43.946  58.116 -55.958  1.00  0.00    -0.025 A 
HETATM   23  C   UNL     1     -43.642  56.842 -56.461  1.00  0.00     0.053 A 
HETATM   24  C   UNL     1     -42.956  56.710 -57.668  1.00  0.00     0.138 A 
HETATM   25  F   UNL     1     -42.681  55.474 -58.115  1.00  0.00    -0.204 F 
HETATM   26  C   UNL     1     -42.560  57.833 -58.391  1.00  0.00     0.072 A 
HETATM   27 CL   UNL     1     -41.712  57.668 -59.880  1.00  0.00    -0.081 Cl
HETATM   28  C   UNL     1     -42.848  59.104 -57.903  1.00  0.00     0.028 A 
HETATM   29  C   UNL     1     -43.533  59.243 -56.691  1.00  0.00     0.012 A 
ENDBRANCH  19  22
ENDBRANCH  18  19
ENDBRANCH   2  18
TORSDOF 6
ENDMDL
MODEL 3
REMARK VINA RESULT:      -8.5      3.727      8.115
REMARK  6 active torsions:
REMARK  status: ('A' for Active; 'I' for Inactive)
REMARK    1  A    between atoms: N_4  and  C_5 
REMARK    2  A    between atoms: C_13  and  C_14 
REMARK       I    between atoms: C_14  and  N_15 
REMARK    3  A    between atoms: N_15  and  C_16 
REMARK    4  A    between atoms: C_16  and  C_17 
REMARK    5  A    between atoms: C_17  and  O_18 
REMARK    6  A    between atoms: C_17  and  C_19 
ROOT
HETATM    1  C   UNL     1     -43.096  55.019 -52.290  1.00  0.00     0.257 C 
HETATM    2  N   UNL     1     -42.189  55.565 -51.414  1.00  0.00    -0.354 N 
HETATM    3  O   UNL     1     -43.726  54.007 -51.987  1.00  0.00    -0.267 OA
HETATM    4  H   UNL     1     -41.677  56.393 -51.691  1.00  0.00     0.162 HD
ENDROOT
BRANCH   1   5
HETATM    5  C   UNL     1     -43.288  55.695 -53.561  1.00  0.00     0.098 C 
HETATM    6  C   UNL     1     -44.008  56.902 -53.764  1.00  0.00     0.070 C 
HETATM    7  C   UNL     1     -44.718  57.729 -52.751  1.00  0.00     0.073 C 
HETATM    8  N   UNL     1     -44.050  57.261 -55.049  1.00  0.00    -0.170 NA
HETATM    9  N   UNL     1     -43.262  56.363 -55.705  1.00  0.00    -0.221 N 
HETATM   10  C   UNL     1     -42.878  55.352 -54.835  1.00  0.00     0.145 C 
HETATM   11 CL   UNL     1     -42.140  53.903 -55.371  1.00  0.00    -0.061 Cl
BRANCH   9  12
HETATM   12  C   UNL     1     -42.965  56.610 -57.084  1.00  0.00     0.060 A 
HETATM   13  C   UNL     1     -43.216  55.676 -58.095  1.00  0.00     0.031 A 
HETATM   14  C   UNL     1     -42.886  55.966 -59.424  1.00  0.00     0.002 A 
HETATM   15  C   UNL     1     -42.294  57.182 -59.756  1.00  0.00     0.000 A 
HETATM   16  C   UNL     1     -42.017  58.110 -58.758  1.00  0.00     0.002 A 
HETATM   17  C   UNL     1     -42.343  57.824 -57.429  1.00  0.00     0.031 A 
ENDBRANCH   9  12
ENDBRANCH   1   5
BRANCH   2  18
HETATM   18  C   UNL     1     -41.850  54.925 -50.147  1.00  0.00     0.159 C 
BRANCH  18  19
HETATM   19  C   UNL     1     -40.384  54.432 -50.074  1.00  0.00     0.169 C 
BRANCH  19  20
HETATM   20  O   UNL     1     -39.983  54.096 -48.745  1.00  0.00    -0.389 OA
HETATM   21  H   UNL     1     -40.135  54.877 -48.173  1.00  0.00     0.210 HD
ENDBRANCH  19  20
BRANCH  19  22
HETATM   22  C   UNL     1     -40.186  53.206 -50.944  1.00  0.00    -0.025 A 
HETATM   23  C   UNL     1     -40.095  51.932 -50.364  1.00  0.00     0.053 A 
HETATM   24  C   UNL     1     -39.893  50.809 -51.167  1.00  0.00     0.138 A 
HETATM   25  F   UNL     1     -39.809  49.607 -50.574  1.00  0.00    -0.204 F 
HETATM   26  C   UNL     1     -39.776  50.930 -52.549  1.00  0.00     0.072 A 
HETATM   27 CL   UNL     1     -39.526  49.543 -53.537  1.00  0.00    -0.081 Cl
HETATM   28  C   UNL     1     -39.858  52.188 -53.139  1.00  0.00     0.028 A 
HETATM   29  C   UNL     1     -40.057  53.319 -52.341  1.00  0.00     0.012 A 
ENDBRANCH  19  22
ENDBRANCH  18  19
ENDBRANCH   2  18
TORSDOF 6
ENDMDL
MODEL 4
REMARK VINA RESULT:      -8.3      3.905      9.525
REMARK  6 active torsions:
REMARK  status: ('A' for Active; 'I' for Inactive)
REMARK    1  A    between atoms: N_4  and  C_5 
REMARK    2  A    between atoms: C_13  and  C_14 
REMARK       I    between atoms: C_14  and  N_15 
REMARK    3  A    between atoms: N_15  and  C_16 
REMARK    4  A    between atoms: C_16  and  C_17 
REMARK    5  A    between atoms: C_17  and  O_18 
REMARK    6  A    between atoms: C_17  and  C_19 
ROOT
HETATM    1  C   UNL     1     -43.049  56.255 -56.807  1.00  0.00     0.257 C 
HETATM    2  N   UNL     1     -42.142  55.238 -56.630  1.00  0.00    -0.354 N 
HETATM    3  O   UNL     1     -43.757  56.629 -55.875  1.00  0.00    -0.267 OA
HETATM    4  H   UNL     1     -41.577  54.942 -57.417  1.00  0.00     0.162 HD
ENDROOT
BRANCH   1   5
HETATM    5  C   UNL     1     -43.113  56.872 -58.121  1.00  0.00     0.098 C 
HETATM    6  C   UNL     1     -43.564  56.249 -59.315  1.00  0.00     0.070 C 
HETATM    7  C   UNL     1     -44.058  54.857 -59.493  1.00  0.00     0.073 C 
HETATM    8  N   UNL     1     -43.468  57.052 -60.377  1.00  0.00    -0.170 NA
HETATM    9  N   UNL     1     -43.061  58.258 -59.888  1.00  0.00    -0.221 N 
HETATM   10  C   UNL     1     -42.745  58.136 -58.542  1.00  0.00     0.145 C 
HETATM   11 CL   UNL     1     -41.918  59.358 -57.673  1.00  0.00    -0.061 Cl
BRANCH   9  12
HETATM   12  C   UNL     1     -43.052  59.376 -60.781  1.00  0.00     0.060 A 
HETATM   13  C   UNL     1     -41.872  59.983 -61.228  1.00  0.00     0.031 A 
HETATM   14  C   UNL     1     -41.925  61.087 -62.086  1.00  0.00     0.002 A 
HETATM   15  C   UNL     1     -43.152  61.604 -62.497  1.00  0.00     0.000 A 
HETATM   16  C   UNL     1     -44.332  61.026 -62.041  1.00  0.00     0.002 A 
HETATM   17  C   UNL     1     -44.284  59.925 -61.183  1.00  0.00     0.031 A 
ENDBRANCH   9  12
ENDBRANCH   1   5
BRANCH   2  18
HETATM   18  C   UNL     1     -42.050  54.486 -55.383  1.00  0.00     0.159 C 
BRANCH  18  19
HETATM   19  C   UNL     1     -40.758  54.772 -54.581  1.00  0.00     0.169 C 
BRANCH  19  20
HETATM   20  O   UNL     1     -40.882  55.912 -53.728  1.00  0.00    -0.389 OA
HETATM   21  H   UNL     1     -40.951  56.710 -54.292  1.00  0.00     0.210 HD
ENDBRANCH  19  20
BRANCH  19  22
HETATM   22  C   UNL     1     -40.388  53.582 -53.716  1.00  0.00    -0.025 A 
HETATM   23  C   UNL     1     -40.038  52.358 -54.307  1.00  0.00     0.053 A 
HETATM   24  C   UNL     1     -39.717  51.261 -53.508  1.00  0.00     0.138 A 
HETATM   25  F   UNL     1     -39.391  50.106 -54.110  1.00  0.00    -0.204 F 
HETATM   26  C   UNL     1     -39.740  51.357 -52.119  1.00  0.00     0.072 A 
HETATM   27 CL   UNL     1     -39.344  50.001 -51.135  1.00  0.00    -0.081 Cl
HETATM   28  C   UNL     1     -40.090  52.563 -51.518  1.00  0.00     0.028 A 
HETATM   29  C   UNL     1     -40.416  53.666 -52.312  1.00  0.00     0.012 A 
ENDBRANCH  19  22
ENDBRANCH  18  19
ENDBRANCH   2  18
TORSDOF 6
ENDMDL
MODEL 5
REMARK VINA RESULT:      -8.3      1.109      1.476
REMARK  6 active torsions:
REMARK  status: ('A' for Active; 'I' for Inactive)
REMARK    1  A    between atoms: N_4  and  C_5 
REMARK    2  A    between atoms: C_13  and  C_14 
REMARK       I    between atoms: C_14  and  N_15 
REMARK    3  A    between atoms: N_15  and  C_16 
REMARK    4  A    between atoms: C_16  and  C_17 
REMARK    5  A    between atoms: C_17  and  O_18 
REMARK    6  A    between atoms: C_17  and  C_19 
ROOT
HETATM    1  C   UNL     1     -42.451  57.011 -53.673  1.00  0.00     0.257 C 
HETATM    2  N   UNL     1     -43.506  56.875 -54.545  1.00  0.00    -0.354 N 
HETATM    3  O   UNL     1     -42.072  58.126 -53.322  1.00  0.00    -0.267 OA
HETATM    4  H   UNL     1     -43.793  55.945 -54.825  1.00  0.00     0.162 HD
ENDROOT
BRANCH   1   5
HETATM    5  C   UNL     1     -41.832  55.793 -53.179  1.00  0.00     0.098 C 
HETATM    6  C   UNL     1     -41.613  55.462 -51.815  1.00  0.00     0.070 C 
HETATM    7  C   UNL     1     -41.954  56.265 -50.610  1.00  0.00     0.073 C 
HETATM    8  N   UNL     1     -40.983  54.294 -51.669  1.00  0.00    -0.170 NA
HETATM    9  N   UNL     1     -40.877  53.776 -52.925  1.00  0.00    -0.221 N 
HETATM   10  C   UNL     1     -41.293  54.717 -53.857  1.00  0.00     0.145 C 
HETATM   11 CL   UNL     1     -41.021  54.535 -55.538  1.00  0.00    -0.061 Cl
BRANCH   9  12
HETATM   12  C   UNL     1     -40.407  52.431 -53.060  1.00  0.00     0.060 A 
HETATM   13  C   UNL     1     -40.539  51.695 -54.243  1.00  0.00     0.031 A 
HETATM   14  C   UNL     1     -40.077  50.375 -54.310  1.00  0.00     0.002 A 
HETATM   15  C   UNL     1     -39.490  49.774 -53.199  1.00  0.00     0.000 A 
HETATM   16  C   UNL     1     -39.374  50.487 -52.010  1.00  0.00     0.002 A 
HETATM   17  C   UNL     1     -39.836  51.803 -51.938  1.00  0.00     0.031 A 
ENDBRANCH   9  12
ENDBRANCH   1   5
BRANCH   2  18
HETATM   18  C   UNL     1     -44.148  58.024 -55.173  1.00  0.00     0.159 C 
BRANCH  18  19
HETATM   19  C   UNL     1     -43.462  58.477 -56.485  1.00  0.00     0.169 C 
BRANCH  19  20
HETATM   20  O   UNL     1     -42.037  58.502 -56.379  1.00  0.00    -0.389 OA
HETATM   21  H   UNL     1     -41.664  58.027 -57.151  1.00  0.00     0.210 HD
ENDBRANCH  19  20
BRANCH  19  22
HETATM   22  C   UNL     1     -43.828  57.552 -57.630  1.00  0.00    -0.025 A 
HETATM   23  C   UNL     1     -45.045  57.712 -58.309  1.00  0.00     0.053 A 
HETATM   24  C   UNL     1     -45.386  56.847 -59.349  1.00  0.00     0.138 A 
HETATM   25  F   UNL     1     -46.561  57.030 -59.973  1.00  0.00    -0.204 F 
HETATM   26  C   UNL     1     -44.533  55.814 -59.728  1.00  0.00     0.072 A 
HETATM   27 CL   UNL     1     -44.956  54.747 -61.011  1.00  0.00    -0.081 Cl
HETATM   28  C   UNL     1     -43.324  55.638 -59.060  1.00  0.00     0.028 A 
HETATM   29  C   UNL     1     -42.977  56.500 -58.015  1.00  0.00     0.012 A 
ENDBRANCH  19  22
ENDBRANCH  18  19
ENDBRANCH   2  18
TORSDOF 6
ENDMDL
MODEL 6
REMARK VINA RESULT:      -8.2      2.725      3.151
REMARK  6 active torsions:
REMARK  status: ('A' for Active; 'I' for Inactive)
REMARK    1  A    between atoms: N_4  and  C_5 
REMARK    2  A    between atoms: C_13  and  C_14 
REMARK       I    between atoms: C_14  and  N_15 
REMARK    3  A    between atoms: N_15  and  C_16 
REMARK    4  A    between atoms: C_16  and  C_17 
REMARK    5  A    between atoms: C_17  and  O_18 
REMARK    6  A    between atoms: C_17  and  C_19 
ROOT
HETATM    1  C   UNL     1     -41.794  56.691 -54.203  1.00  0.00     0.257 C 
HETATM    2  N   UNL     1     -42.858  56.549 -55.061  1.00  0.00    -0.354 N 
HETATM    3  O   UNL     1     -41.248  57.783 -54.060  1.00  0.00    -0.267 OA
HETATM    4  H   UNL     1     -43.284  55.636 -55.167  1.00  0.00     0.162 HD
ENDROOT
BRANCH   1   5
HETATM    5  C   UNL     1     -41.367  55.513 -53.468  1.00  0.00     0.098 C 
HETATM    6  C   UNL     1     -41.482  55.316 -52.066  1.00  0.00     0.070 C 
HETATM    7  C   UNL     1     -42.048  56.246 -51.052  1.00  0.00     0.073 C 
HETATM    8  N   UNL     1     -40.963  54.152 -51.671  1.00  0.00    -0.170 NA
HETATM    9  N   UNL     1     -40.599  53.506 -52.814  1.00  0.00    -0.221 N 
HETATM   10  C   UNL     1     -40.743  54.358 -53.901  1.00  0.00     0.145 C 
HETATM   11 CL   UNL     1     -40.104  53.999 -55.448  1.00  0.00    -0.061 Cl
BRANCH   9  12
HETATM   12  C   UNL     1     -40.179  52.141 -52.712  1.00  0.00     0.060 A 
HETATM   13  C   UNL     1     -40.098  51.286 -53.817  1.00  0.00     0.031 A 
HETATM   14  C   UNL     1     -39.699  49.954 -53.653  1.00  0.00     0.002 A 
HETATM   15  C   UNL     1     -39.390  49.460 -52.387  1.00  0.00     0.000 A 
HETATM   16  C   UNL     1     -39.490  50.293 -51.278  1.00  0.00     0.002 A 
HETATM   17  C   UNL     1     -39.889  51.622 -51.437  1.00  0.00     0.031 A 
ENDBRANCH   9  12
ENDBRANCH   1   5
BRANCH   2  18
HETATM   18  C   UNL     1     -43.319  57.639 -55.916  1.00  0.00     0.159 C 
BRANCH  18  19
HETATM   19  C   UNL     1     -43.305  57.292 -57.424  1.00  0.00     0.169 C 
BRANCH  19  20
HETATM   20  O   UNL     1     -44.607  56.995 -57.931  1.00  0.00    -0.389 OA
HETATM   21  H   UNL     1     -44.863  56.103 -57.615  1.00  0.00     0.210 HD
ENDBRANCH  19  20
BRANCH  19  22
HETATM   22  C   UNL     1     -42.741  58.442 -58.235  1.00  0.00    -0.025 A 
HETATM   23  C   UNL     1     -42.076  59.500 -57.597  1.00  0.00     0.053 A 
HETATM   24  C   UNL     1     -41.576  60.566 -58.345  1.00  0.00     0.138 A 
HETATM   25  F   UNL     1     -40.948  61.561 -57.698  1.00  0.00    -0.204 F 
HETATM   26  C   UNL     1     -41.727  60.601 -59.729  1.00  0.00     0.072 A 
HETATM   27 CL   UNL     1     -41.109  61.918 -60.650  1.00  0.00    -0.081 Cl
HETATM   28  C   UNL     1     -42.389  59.562 -60.376  1.00  0.00     0.028 A 
HETATM   29  C   UNL     1     -42.896  58.491 -59.632  1.00  0.00     0.012 A 
ENDBRANCH  19  22
ENDBRANCH  18  19
ENDBRANCH   2  18
TORSDOF 6
ENDMDL
MODEL 7
REMARK VINA RESULT:      -8.2      4.711      8.849
REMARK  6 active torsions:
REMARK  status: ('A' for Active; 'I' for Inactive)
REMARK    1  A    between atoms: N_4  and  C_5 
REMARK    2  A    between atoms: C_13  and  C_14 
REMARK       I    between atoms: C_14  and  N_15 
REMARK    3  A    between atoms: N_15  and  C_16 
REMARK    4  A    between atoms: C_16  and  C_17 
REMARK    5  A    between atoms: C_17  and  O_18 
REMARK    6  A    between atoms: C_17  and  C_19 
ROOT
HETATM    1  C   UNL     1     -40.734  58.613 -53.148  1.00  0.00     0.257 C 
HETATM    2  N   UNL     1     -41.303  57.457 -53.624  1.00  0.00    -0.354 N 
HETATM    3  O   UNL     1     -39.518  58.783 -53.212  1.00  0.00    -0.267 OA
HETATM    4  H   UNL     1     -42.306  57.338 -53.550  1.00  0.00     0.162 HD
ENDROOT
BRANCH   1   5
HETATM    5  C   UNL     1     -41.624  59.617 -52.593  1.00  0.00     0.098 C 
HETATM    6  C   UNL     1     -42.482  60.473 -53.333  1.00  0.00     0.070 C 
HETATM    7  C   UNL     1     -42.660  60.541 -54.809  1.00  0.00     0.073 C 
HETATM    8  N   UNL     1     -43.152  61.324 -52.552  1.00  0.00    -0.170 NA
HETATM    9  N   UNL     1     -42.838  60.971 -51.274  1.00  0.00    -0.221 N 
HETATM   10  C   UNL     1     -41.838  60.008 -51.285  1.00  0.00     0.145 C 
HETATM   11 CL   UNL     1     -40.985  59.548 -49.874  1.00  0.00    -0.061 Cl
BRANCH   9  12
HETATM   12  C   UNL     1     -43.561  61.595 -50.208  1.00  0.00     0.060 A 
HETATM   13  C   UNL     1     -44.463  60.900 -49.393  1.00  0.00     0.031 A 
HETATM   14  C   UNL     1     -45.157  61.568 -48.377  1.00  0.00     0.002 A 
HETATM   15  C   UNL     1     -44.968  62.933 -48.171  1.00  0.00     0.000 A 
HETATM   16  C   UNL     1     -44.092  63.639 -48.988  1.00  0.00     0.002 A 
HETATM   17  C   UNL     1     -43.399  62.978 -50.005  1.00  0.00     0.031 A 
ENDBRANCH   9  12
ENDBRANCH   1   5
BRANCH   2  18
HETATM   18  C   UNL     1     -40.503  56.343 -54.122  1.00  0.00     0.159 C 
BRANCH  18  19
HETATM   19  C   UNL     1     -41.332  55.074 -54.434  1.00  0.00     0.169 C 
BRANCH  19  20
HETATM   20  O   UNL     1     -41.319  54.737 -55.822  1.00  0.00    -0.389 OA
HETATM   21  H   UNL     1     -41.976  54.025 -55.971  1.00  0.00     0.210 HD
ENDBRANCH  19  20
BRANCH  19  22
HETATM   22  C   UNL     1     -40.802  53.882 -53.660  1.00  0.00    -0.025 A 
HETATM   23  C   UNL     1     -40.362  52.735 -54.338  1.00  0.00     0.053 A 
HETATM   24  C   UNL     1     -39.893  51.634 -53.621  1.00  0.00     0.138 A 
HETATM   25  F   UNL     1     -39.484  50.553 -54.306  1.00  0.00    -0.204 F 
HETATM   26  C   UNL     1     -39.855  51.651 -52.230  1.00  0.00     0.072 A 
HETATM   27 CL   UNL     1     -39.276  50.291 -51.347  1.00  0.00    -0.081 Cl
HETATM   28  C   UNL     1     -40.292  52.779 -51.542  1.00  0.00     0.028 A 
HETATM   29  C   UNL     1     -40.766  53.886 -52.254  1.00  0.00     0.012 A 
ENDBRANCH  19  22
ENDBRANCH  18  19
ENDBRANCH   2  18
TORSDOF 6
ENDMDL
MODEL 8
REMARK VINA RESULT:      -8.2      3.311      9.522
REMARK  6 active torsions:
REMARK  status: ('A' for Active; 'I' for Inactive)
REMARK    1  A    between atoms: N_4  and  C_5 
REMARK    2  A    between atoms: C_13  and  C_14 
REMARK       I    between atoms: C_14  and  N_15 
REMARK    3  A    between atoms: N_15  and  C_16 
REMARK    4  A    between atoms: C_16  and  C_17 
REMARK    5  A    between atoms: C_17  and  O_18 
REMARK    6  A    between atoms: C_17  and  C_19 
ROOT
HETATM    1  C   UNL     1     -43.392  56.532 -56.899  1.00  0.00     0.257 C 
HETATM    2  N   UNL     1     -43.265  55.216 -56.526  1.00  0.00    -0.354 N 
HETATM    3  O   UNL     1     -42.932  57.428 -56.194  1.00  0.00    -0.267 OA
HETATM    4  H   UNL     1     -43.661  54.497 -57.120  1.00  0.00     0.162 HD
ENDROOT
BRANCH   1   5
HETATM    5  C   UNL     1     -44.064  56.808 -58.157  1.00  0.00     0.098 C 
HETATM    6  C   UNL     1     -43.512  56.635 -59.454  1.00  0.00     0.070 C 
HETATM    7  C   UNL     1     -42.153  56.149 -59.817  1.00  0.00     0.073 C 
HETATM    8  N   UNL     1     -44.353  57.013 -60.420  1.00  0.00    -0.170 NA
HETATM    9  N   UNL     1     -45.517  57.333 -59.788  1.00  0.00    -0.221 N 
HETATM   10  C   UNL     1     -45.325  57.312 -58.413  1.00  0.00     0.145 C 
HETATM   11 CL   UNL     1     -46.470  57.948 -57.311  1.00  0.00    -0.061 Cl
BRANCH   9  12
HETATM   12  C   UNL     1     -46.670  57.597 -60.594  1.00  0.00     0.060 A 
HETATM   13  C   UNL     1     -47.390  56.588 -61.244  1.00  0.00     0.031 A 
HETATM   14  C   UNL     1     -48.499  56.909 -62.036  1.00  0.00     0.002 A 
HETATM   15  C   UNL     1     -48.893  58.235 -62.196  1.00  0.00     0.000 A 
HETATM   16  C   UNL     1     -48.172  59.250 -61.574  1.00  0.00     0.002 A 
HETATM   17  C   UNL     1     -47.064  58.935 -60.785  1.00  0.00     0.031 A 
ENDBRANCH   9  12
ENDBRANCH   1   5
BRANCH   2  18
HETATM   18  C   UNL     1     -42.688  54.823 -55.244  1.00  0.00     0.159 C 
BRANCH  18  19
HETATM   19  C   UNL     1     -41.157  54.602 -55.296  1.00  0.00     0.169 C 
BRANCH  19  20
HETATM   20  O   UNL     1     -40.421  55.808 -55.087  1.00  0.00    -0.389 OA
HETATM   21  H   UNL     1     -39.896  55.991 -55.894  1.00  0.00     0.210 HD
ENDBRANCH  19  20
BRANCH  19  22
HETATM   22  C   UNL     1     -40.722  53.602 -54.242  1.00  0.00    -0.025 A 
HETATM   23  C   UNL     1     -40.262  52.331 -54.617  1.00  0.00     0.053 A 
HETATM   24  C   UNL     1     -39.882  51.408 -53.643  1.00  0.00     0.138 A 
HETATM   25  F   UNL     1     -39.450  50.200 -54.041  1.00  0.00    -0.204 F 
HETATM   26  C   UNL     1     -39.953  51.727 -52.289  1.00  0.00     0.072 A 
HETATM   27 CL   UNL     1     -39.484  50.585 -51.089  1.00  0.00    -0.081 Cl
HETATM   28  C   UNL     1     -40.413  52.982 -51.900  1.00  0.00     0.028 A 
HETATM   29  C   UNL     1     -40.799  53.912 -52.871  1.00  0.00     0.012 A 
ENDBRANCH  19  22
ENDBRANCH  18  19
ENDBRANCH   2  18
TORSDOF 6
ENDMDL
MODEL 9
REMARK VINA RESULT:      -8.1      4.377      8.533
REMARK  6 active torsions:
REMARK  status: ('A' for Active; 'I' for Inactive)
REMARK    1  A    between atoms: N_4  and  C_5 
REMARK    2  A    between atoms: C_13  and  C_14 
REMARK       I    between atoms: C_14  and  N_15 
REMARK    3  A    between atoms: N_15  and  C_16 
REMARK    4  A    between atoms: C_16  and  C_17 
REMARK    5  A    between atoms: C_17  and  O_18 
REMARK    6  A    between atoms: C_17  and  C_19 
ROOT
HETATM    1  C   UNL     1     -42.706  55.902 -52.849  1.00  0.00     0.257 C 
HETATM    2  N   UNL     1     -42.093  55.649 -54.053  1.00  0.00    -0.354 N 
HETATM    3  O   UNL     1     -43.288  55.003 -52.244  1.00  0.00    -0.267 OA
HETATM    4  H   UNL     1     -41.629  56.409 -54.536  1.00  0.00     0.162 HD
ENDROOT
BRANCH   1   5
HETATM    5  C   UNL     1     -42.618  57.253 -52.325  1.00  0.00     0.098 C 
HETATM    6  C   UNL     1     -41.804  57.676 -51.240  1.00  0.00     0.070 C 
HETATM    7  C   UNL     1     -40.882  56.854 -50.410  1.00  0.00     0.073 C 
HETATM    8  N   UNL     1     -41.964  58.970 -50.957  1.00  0.00    -0.170 NA
HETATM    9  N   UNL     1     -42.799  59.455 -51.919  1.00  0.00    -0.221 N 
HETATM   10  C   UNL     1     -43.282  58.408 -52.692  1.00  0.00     0.145 C 
HETATM   11 CL   UNL     1     -44.578  58.596 -53.795  1.00  0.00    -0.061 Cl
BRANCH   9  12
HETATM   12  C   UNL     1     -43.004  60.870 -51.981  1.00  0.00     0.060 A 
HETATM   13  C   UNL     1     -42.942  61.596 -53.176  1.00  0.00     0.031 A 
HETATM   14  C   UNL     1     -43.132  62.983 -53.172  1.00  0.00     0.002 A 
HETATM   15  C   UNL     1     -43.374  63.660 -51.979  1.00  0.00     0.000 A 
HETATM   16  C   UNL     1     -43.414  62.954 -50.781  1.00  0.00     0.002 A 
HETATM   17  C   UNL     1     -43.223  61.570 -50.780  1.00  0.00     0.031 A 
ENDBRANCH   9  12
ENDBRANCH   1   5
BRANCH   2  18
HETATM   18  C   UNL     1     -42.190  54.354 -54.719  1.00  0.00     0.159 C 
BRANCH  18  19
HETATM   19  C   UNL     1     -40.817  53.728 -55.060  1.00  0.00     0.169 C 
BRANCH  19  20
HETATM   20  O   UNL     1     -39.784  54.706 -55.188  1.00  0.00    -0.389 OA
HETATM   21  H   UNL     1     -39.554  54.787 -56.137  1.00  0.00     0.210 HD
ENDBRANCH  19  20
BRANCH  19  22
HETATM   22  C   UNL     1     -40.395  52.742 -53.988  1.00  0.00    -0.025 A 
HETATM   23  C   UNL     1     -40.078  51.418 -54.327  1.00  0.00     0.053 A 
HETATM   24  C   UNL     1     -39.709  50.509 -53.335  1.00  0.00     0.138 A 
HETATM   25  F   UNL     1     -39.416  49.250 -53.699  1.00  0.00    -0.204 F 
HETATM   26  C   UNL     1     -39.651  50.895 -51.999  1.00  0.00     0.072 A 
HETATM   27 CL   UNL     1     -39.195  49.772 -50.776  1.00  0.00    -0.081 Cl
HETATM   28  C   UNL     1     -39.967  52.204 -51.645  1.00  0.00     0.028 A 
HETATM   29  C   UNL     1     -40.341  53.120 -52.634  1.00  0.00     0.012 A 
ENDBRANCH  19  22
ENDBRANCH  18  19
ENDBRANCH   2  18
TORSDOF 6
ENDMDL
MODEL 10
REMARK VINA RESULT:      -8.1      4.035      5.462
REMARK  6 active torsions:
REMARK  status: ('A' for Active; 'I' for Inactive)
REMARK    1  A    between atoms: N_4  and  C_5 
REMARK    2  A    between atoms: C_13  and  C_14 
REMARK       I    between atoms: C_14  and  N_15 
REMARK    3  A    between atoms: N_15  and  C_16 
REMARK    4  A    between atoms: C_16  and  C_17 
REMARK    5  A    between atoms: C_17  and  O_18 
REMARK    6  A    between atoms: C_17  and  C_19 
ROOT
HETATM    1  C   UNL     1     -42.372  56.491 -53.351  1.00  0.00     0.257 C 
HETATM    2  N   UNL     1     -41.797  57.190 -54.385  1.00  0.00    -0.354 N 
HETATM    3  O   UNL     1     -43.472  56.819 -52.911  1.00  0.00    -0.267 OA
HETATM    4  H   UNL     1     -40.886  56.905 -54.722  1.00  0.00     0.162 HD
ENDROOT
BRANCH   1   5
HETATM    5  C   UNL     1     -41.639  55.352 -52.825  1.00  0.00     0.098 C 
HETATM    6  C   UNL     1     -41.114  55.231 -51.511  1.00  0.00     0.070 C 
HETATM    7  C   UNL     1     -41.188  56.218 -50.399  1.00  0.00     0.073 C 
HETATM    8  N   UNL     1     -40.451  54.087 -51.330  1.00  0.00    -0.170 NA
HETATM    9  N   UNL     1     -40.622  53.379 -52.482  1.00  0.00    -0.221 N 
HETATM   10  C   UNL     1     -41.251  54.173 -53.431  1.00  0.00     0.145 C 
HETATM   11 CL   UNL     1     -41.361  53.728 -55.081  1.00  0.00    -0.061 Cl
BRANCH   9  12
HETATM   12  C   UNL     1     -40.175  52.020 -52.508  1.00  0.00     0.060 A 
HETATM   13  C   UNL     1     -40.062  51.280 -53.691  1.00  0.00     0.031 A 
HETATM   14  C   UNL     1     -39.636  49.947 -53.653  1.00  0.00     0.002 A 
HETATM   15  C   UNL     1     -39.331  49.336 -52.439  1.00  0.00     0.000 A 
HETATM   16  C   UNL     1     -39.462  50.053 -51.254  1.00  0.00     0.002 A 
HETATM   17  C   UNL     1     -39.888  51.383 -51.287  1.00  0.00     0.031 A 
ENDBRANCH   9  12
ENDBRANCH   1   5
BRANCH   2  18
HETATM   18  C   UNL     1     -42.398  58.402 -54.933  1.00  0.00     0.159 C 
BRANCH  18  19
HETATM   19  C   UNL     1     -41.708  59.704 -54.460  1.00  0.00     0.169 C 
BRANCH  19  20
HETATM   20  O   UNL     1     -41.861  60.776 -55.391  1.00  0.00    -0.389 OA
HETATM   21  H   UNL     1     -40.989  60.953 -55.801  1.00  0.00     0.210 HD
ENDBRANCH  19  20
BRANCH  19  22
HETATM   22  C   UNL     1     -42.276  60.159 -53.129  1.00  0.00    -0.025 A 
HETATM   23  C   UNL     1     -41.622  59.833 -51.931  1.00  0.00     0.053 A 
HETATM   24  C   UNL     1     -42.158  60.237 -50.708  1.00  0.00     0.138 A 
HETATM   25  F   UNL     1     -41.505  59.903 -49.583  1.00  0.00    -0.204 F 
HETATM   26  C   UNL     1     -43.344  60.964 -50.653  1.00  0.00     0.072 A 
HETATM   27 CL   UNL     1     -44.003  61.461 -49.142  1.00  0.00    -0.081 Cl
HETATM   28  C   UNL     1     -44.007  61.291 -51.832  1.00  0.00     0.028 A 
HETATM   29  C   UNL     1     -43.478  60.887 -53.062  1.00  0.00     0.012 A 
ENDBRANCH  19  22
ENDBRANCH  18  19
ENDBRANCH   2  18
TORSDOF 6
ENDMDL
