MODEL 1
REMARK VINA RESULT:      -7.7      0.000      0.000
REMARK  5 active torsions:
REMARK  status: ('A' for Active; 'I' for Inactive)
REMARK    1  A    between atoms: C_8  and  C_9 
REMARK       I    between atoms: N_10  and  C_11 
REMARK       I    between atoms: C_11  and  N_12 
REMARK    2  A    between atoms: N_12  and  C_13 
REMARK    3  A    between atoms: C_15  and  O_16 
REMARK    4  A    between atoms: O_16  and  C_17 
REMARK    5  A    between atoms: C_17  and  C_18 
ROOT
HETATM    1  C   UNL     1     -43.379  58.955 -55.126  1.00  0.00     0.126 C 
HETATM    2  N   UNL     1     -42.843  58.152 -54.028  1.00  0.00    -0.325 N 
HETATM    3  C   UNL     1     -41.604  58.453 -53.563  1.00  0.00     0.323 C 
HETATM    4  N   UNL     1     -40.872  57.678 -52.741  1.00  0.00    -0.309 N 
HETATM    5  O   UNL     1     -40.995  59.445 -53.992  1.00  0.00    -0.247 OA
HETATM    6  C   UNL     1     -43.860  57.246 -53.526  1.00  0.00     0.128 C 
HETATM    7  C   UNL     1     -45.017  57.312 -54.516  1.00  0.00     0.022 C 
HETATM    8  C   UNL     1     -44.889  58.705 -55.107  1.00  0.00     0.032 C 
HETATM    9  H   UNL     1     -39.913  57.989 -52.849  1.00  0.00     0.170 HD
ENDROOT
BRANCH   4  10
HETATM   10  C   UNL     1     -41.009  56.584 -51.878  1.00  0.00     0.039 A 
HETATM   11  C   UNL     1     -41.094  55.250 -52.258  1.00  0.00     0.066 A 
HETATM   12  C   UNL     1     -41.235  54.230 -51.303  1.00  0.00     0.071 A 
HETATM   13  C   UNL     1     -41.370  54.561 -49.955  1.00  0.00     0.037 A 
HETATM   14  C   UNL     1     -41.356  55.897 -49.567  1.00  0.00     0.005 A 
HETATM   15  C   UNL     1     -41.182  56.898 -50.522  1.00  0.00     0.030 A 
BRANCH  12  16
HETATM   16  O   UNL     1     -41.232  52.961 -51.817  1.00  0.00    -0.347 OA
BRANCH  16  17
HETATM   17  C   UNL     1     -39.966  52.420 -52.196  1.00  0.00     0.208 C 
BRANCH  17  18
HETATM   18  C   UNL     1     -40.049  51.959 -53.631  1.00  0.00    -0.069 C 
HETATM   19  C   UNL     1     -39.874  50.483 -53.857  1.00  0.00     0.044 C 
HETATM   20  C   UNL     1     -40.298  52.805 -54.645  1.00  0.00     0.016 C 
ENDBRANCH  17  18
ENDBRANCH  16  17
ENDBRANCH  12  16
ENDBRANCH   4  10
BRANCH   1  21
HETATM   21  C   UNL     1     -42.734  58.596 -56.446  1.00  0.00     0.014 A 
HETATM   22  C   UNL     1     -42.501  57.371 -57.061  1.00  0.00     0.034 A 
HETATM   23  C   UNL     1     -42.751  55.962 -56.678  1.00  0.00     0.070 C 
HETATM   24  N   UNL     1     -41.898  57.659 -58.256  1.00  0.00    -0.282 N 
HETATM   25  H   UNL     1     -41.582  57.008 -58.967  1.00  0.00     0.189 HD
HETATM   26  N   UNL     1     -41.711  58.963 -58.474  1.00  0.00    -0.179 NA
HETATM   27  C   UNL     1     -42.183  59.544 -57.368  1.00  0.00     0.061 A 
HETATM   28  C   UNL     1     -42.086  61.019 -57.215  1.00  0.00     0.073 C 
ENDBRANCH   1  21
TORSDOF 5
ENDMDL
MODEL 2
REMARK VINA RESULT:      -7.7      2.942      4.537
REMARK  5 active torsions:
REMARK  status: ('A' for Active; 'I' for Inactive)
REMARK    1  A    between atoms: C_8  and  C_9 
REMARK       I    between atoms: N_10  and  C_11 
REMARK       I    between atoms: C_11  and  N_12 
REMARK    2  A    between atoms: N_12  and  C_13 
REMARK    3  A    between atoms: C_15  and  O_16 
REMARK    4  A    between atoms: O_16  and  C_17 
REMARK    5  A    between atoms: C_17  and  C_18 
ROOT
HETATM    1  C   UNL     1     -43.977  58.851 -52.514  1.00  0.00     0.126 C 
HETATM    2  N   UNL     1     -43.273  57.615 -52.174  1.00  0.00    -0.325 N 
HETATM    3  C   UNL     1     -43.820  56.806 -51.232  1.00  0.00     0.323 C 
HETATM    4  N   UNL     1     -43.195  55.775 -50.633  1.00  0.00    -0.309 N 
HETATM    5  O   UNL     1     -44.935  57.064 -50.753  1.00  0.00    -0.247 OA
HETATM    6  C   UNL     1     -42.150  57.416 -53.073  1.00  0.00     0.128 C 
HETATM    7  C   UNL     1     -41.996  58.712 -53.860  1.00  0.00     0.022 C 
HETATM    8  C   UNL     1     -43.404  59.283 -53.866  1.00  0.00     0.032 C 
HETATM    9  H   UNL     1     -43.711  55.598 -49.779  1.00  0.00     0.170 HD
ENDROOT
BRANCH   4  10
HETATM   10  C   UNL     1     -42.068  54.958 -50.784  1.00  0.00     0.039 A 
HETATM   11  C   UNL     1     -41.855  54.044 -51.809  1.00  0.00     0.066 A 
HETATM   12  C   UNL     1     -40.684  53.270 -51.860  1.00  0.00     0.071 A 
HETATM   13  C   UNL     1     -39.751  53.361 -50.827  1.00  0.00     0.037 A 
HETATM   14  C   UNL     1     -39.985  54.223 -49.759  1.00  0.00     0.005 A 
HETATM   15  C   UNL     1     -41.135  55.010 -49.739  1.00  0.00     0.030 A 
BRANCH  12  16
HETATM   16  O   UNL     1     -40.577  52.466 -52.963  1.00  0.00    -0.347 OA
BRANCH  16  17
HETATM   17  C   UNL     1     -39.341  51.772 -53.139  1.00  0.00     0.208 C 
BRANCH  17  18
HETATM   18  C   UNL     1     -39.638  50.308 -53.356  1.00  0.00    -0.069 C 
HETATM   19  C   UNL     1     -39.658  49.452 -52.121  1.00  0.00     0.044 C 
HETATM   20  C   UNL     1     -39.901  49.800 -54.572  1.00  0.00     0.016 C 
ENDBRANCH  17  18
ENDBRANCH  16  17
ENDBRANCH  12  16
ENDBRANCH   4  10
BRANCH   1  21
HETATM   21  C   UNL     1     -43.814  59.900 -51.437  1.00  0.00     0.014 A 
HETATM   22  C   UNL     1     -42.710  60.297 -50.689  1.00  0.00     0.034 A 
HETATM   23  C   UNL     1     -41.298  59.852 -50.620  1.00  0.00     0.070 C 
HETATM   24  N   UNL     1     -43.150  61.305 -49.875  1.00  0.00    -0.282 N 
HETATM   25  H   UNL     1     -42.617  61.831 -49.191  1.00  0.00     0.189 HD
HETATM   26  N   UNL     1     -44.445  61.599 -50.019  1.00  0.00    -0.179 NA
HETATM   27  C   UNL     1     -44.870  60.730 -50.940  1.00  0.00     0.061 A 
HETATM   28  C   UNL     1     -46.305  60.711 -51.324  1.00  0.00     0.073 C 
ENDBRANCH   1  21
TORSDOF 5
ENDMDL
MODEL 3
REMARK VINA RESULT:      -7.6      2.539      3.446
REMARK  5 active torsions:
REMARK  status: ('A' for Active; 'I' for Inactive)
REMARK    1  A    between atoms: C_8  and  C_9 
REMARK       I    between atoms: N_10  and  C_11 
REMARK       I    between atoms: C_11  and  N_12 
REMARK    2  A    between atoms: N_12  and  C_13 
REMARK    3  A    between atoms: C_15  and  O_16 
REMARK    4  A    between atoms: O_16  and  C_17 
REMARK    5  A    between atoms: C_17  and  C_18 
ROOT
HETATM    1  C   UNL     1     -42.972  57.674 -57.149  1.00  0.00     0.126 C 
HETATM    2  N   UNL     1     -42.634  56.694 -56.118  1.00  0.00    -0.325 N 
HETATM    3  C   UNL     1     -42.834  55.381 -56.395  1.00  0.00     0.323 C 
HETATM    4  N   UNL     1     -42.811  54.383 -55.492  1.00  0.00    -0.309 N 
HETATM    5  O   UNL     1     -43.195  55.025 -57.527  1.00  0.00    -0.247 OA
HETATM    6  C   UNL     1     -41.973  57.348 -55.003  1.00  0.00     0.128 C 
HETATM    7  C   UNL     1     -42.119  58.846 -55.238  1.00  0.00     0.022 C 
HETATM    8  C   UNL     1     -42.230  58.952 -56.749  1.00  0.00     0.032 C 
HETATM    9  H   UNL     1     -43.312  53.612 -55.919  1.00  0.00     0.170 HD
ENDROOT
BRANCH   4  10
HETATM   10  C   UNL     1     -42.389  54.117 -54.184  1.00  0.00     0.039 A 
HETATM   11  C   UNL     1     -41.282  53.361 -53.821  1.00  0.00     0.066 A 
HETATM   12  C   UNL     1     -40.952  53.155 -52.471  1.00  0.00     0.071 A 
HETATM   13  C   UNL     1     -41.790  53.651 -51.474  1.00  0.00     0.037 A 
HETATM   14  C   UNL     1     -42.941  54.352 -51.823  1.00  0.00     0.005 A 
HETATM   15  C   UNL     1     -43.238  54.578 -53.167  1.00  0.00     0.030 A 
BRANCH  12  16
HETATM   16  O   UNL     1     -39.795  52.452 -52.265  1.00  0.00    -0.347 OA
BRANCH  16  17
HETATM   17  C   UNL     1     -39.230  51.791 -53.398  1.00  0.00     0.208 C 
BRANCH  17  18
HETATM   18  C   UNL     1     -39.621  50.335 -53.351  1.00  0.00    -0.069 C 
HETATM   19  C   UNL     1     -39.981  49.709 -54.669  1.00  0.00     0.044 C 
HETATM   20  C   UNL     1     -39.618  49.625 -52.209  1.00  0.00     0.016 C 
ENDBRANCH  17  18
ENDBRANCH  16  17
ENDBRANCH  12  16
ENDBRANCH   4  10
BRANCH   1  21
HETATM   21  C   UNL     1     -44.467  57.868 -57.267  1.00  0.00     0.014 A 
HETATM   22  C   UNL     1     -45.462  58.011 -56.305  1.00  0.00     0.034 A 
HETATM   23  C   UNL     1     -45.471  58.004 -54.824  1.00  0.00     0.070 C 
HETATM   24  N   UNL     1     -46.632  58.172 -56.996  1.00  0.00    -0.282 N 
HETATM   25  H   UNL     1     -47.565  58.302 -56.620  1.00  0.00     0.189 HD
HETATM   26  N   UNL     1     -46.493  58.142 -58.324  1.00  0.00    -0.179 NA
HETATM   27  C   UNL     1     -45.187  57.923 -58.504  1.00  0.00     0.061 A 
HETATM   28  C   UNL     1     -44.653  57.761 -59.881  1.00  0.00     0.073 C 
ENDBRANCH   1  21
TORSDOF 5
ENDMDL
MODEL 4
REMARK VINA RESULT:      -7.5      2.538      4.209
REMARK  5 active torsions:
REMARK  status: ('A' for Active; 'I' for Inactive)
REMARK    1  A    between atoms: C_8  and  C_9 
REMARK       I    between atoms: N_10  and  C_11 
REMARK       I    between atoms: C_11  and  N_12 
REMARK    2  A    between atoms: N_12  and  C_13 
REMARK    3  A    between atoms: C_15  and  O_16 
REMARK    4  A    between atoms: O_16  and  C_17 
REMARK    5  A    between atoms: C_17  and  C_18 
ROOT
HETATM    1  C   UNL     1     -43.105  57.798 -57.167  1.00  0.00     0.126 C 
HETATM    2  N   UNL     1     -42.630  56.735 -56.283  1.00  0.00    -0.325 N 
HETATM    3  C   UNL     1     -42.799  55.449 -56.681  1.00  0.00     0.323 C 
HETATM    4  N   UNL     1     -42.648  54.365 -55.897  1.00  0.00    -0.309 N 
HETATM    5  O   UNL     1     -43.250  55.194 -57.808  1.00  0.00    -0.247 OA
HETATM    6  C   UNL     1     -41.895  57.303 -55.167  1.00  0.00     0.128 C 
HETATM    7  C   UNL     1     -42.127  58.809 -55.224  1.00  0.00     0.022 C 
HETATM    8  C   UNL     1     -42.384  59.065 -56.699  1.00  0.00     0.032 C 
HETATM    9  H   UNL     1     -43.154  53.618 -56.359  1.00  0.00     0.170 HD
ENDROOT
BRANCH   4  10
HETATM   10  C   UNL     1     -42.093  53.988 -54.668  1.00  0.00     0.039 A 
HETATM   11  C   UNL     1     -42.674  54.173 -53.420  1.00  0.00     0.066 A 
HETATM   12  C   UNL     1     -42.023  53.757 -52.247  1.00  0.00     0.071 A 
HETATM   13  C   UNL     1     -40.740  53.218 -52.324  1.00  0.00     0.037 A 
HETATM   14  C   UNL     1     -40.117  53.090 -53.563  1.00  0.00     0.005 A 
HETATM   15  C   UNL     1     -40.789  53.476 -54.722  1.00  0.00     0.030 A 
BRANCH  12  16
HETATM   16  O   UNL     1     -42.745  53.938 -51.097  1.00  0.00    -0.347 OA
BRANCH  16  17
HETATM   17  C   UNL     1     -42.948  55.284 -50.666  1.00  0.00     0.208 C 
BRANCH  17  18
HETATM   18  C   UNL     1     -41.673  55.785 -50.033  1.00  0.00    -0.069 C 
HETATM   19  C   UNL     1     -41.112  54.935 -48.927  1.00  0.00     0.044 C 
HETATM   20  C   UNL     1     -41.053  56.903 -50.449  1.00  0.00     0.016 C 
ENDBRANCH  17  18
ENDBRANCH  16  17
ENDBRANCH  12  16
ENDBRANCH   4  10
BRANCH   1  21
HETATM   21  C   UNL     1     -44.612  57.924 -57.129  1.00  0.00     0.014 A 
HETATM   22  C   UNL     1     -45.514  57.946 -56.070  1.00  0.00     0.034 A 
HETATM   23  C   UNL     1     -45.378  57.829 -54.599  1.00  0.00     0.070 C 
HETATM   24  N   UNL     1     -46.751  58.098 -56.633  1.00  0.00    -0.282 N 
HETATM   25  H   UNL     1     -47.648  58.153 -56.162  1.00  0.00     0.189 HD
HETATM   26  N   UNL     1     -46.741  58.173 -57.966  1.00  0.00    -0.179 NA
HETATM   27  C   UNL     1     -45.451  58.033 -58.285  1.00  0.00     0.061 A 
HETATM   28  C   UNL     1     -45.047  58.000 -59.714  1.00  0.00     0.073 C 
ENDBRANCH   1  21
TORSDOF 5
ENDMDL
MODEL 5
REMARK VINA RESULT:      -7.4      2.223      2.859
REMARK  5 active torsions:
REMARK  status: ('A' for Active; 'I' for Inactive)
REMARK    1  A    between atoms: C_8  and  C_9 
REMARK       I    between atoms: N_10  and  C_11 
REMARK       I    between atoms: C_11  and  N_12 
REMARK    2  A    between atoms: N_12  and  C_13 
REMARK    3  A    between atoms: C_15  and  O_16 
REMARK    4  A    between atoms: O_16  and  C_17 
REMARK    5  A    between atoms: C_17  and  C_18 
ROOT
HETATM    1  C   UNL     1     -43.488  57.296 -54.576  1.00  0.00     0.126 C 
HETATM    2  N   UNL     1     -42.965  56.461 -53.495  1.00  0.00    -0.325 N 
HETATM    3  C   UNL     1     -43.550  56.555 -52.274  1.00  0.00     0.323 C 
HETATM    4  N   UNL     1     -43.048  56.053 -51.130  1.00  0.00    -0.309 N 
HETATM    5  O   UNL     1     -44.562  57.254 -52.114  1.00  0.00    -0.247 OA
HETATM    6  C   UNL     1     -41.972  55.537 -54.012  1.00  0.00     0.128 C 
HETATM    7  C   UNL     1     -41.682  55.977 -55.442  1.00  0.00     0.022 C 
HETATM    8  C   UNL     1     -42.974  56.654 -55.866  1.00  0.00     0.032 C 
HETATM    9  H   UNL     1     -43.509  56.559 -50.382  1.00  0.00     0.170 HD
ENDROOT
BRANCH   4  10
HETATM   10  C   UNL     1     -42.085  55.143 -50.679  1.00  0.00     0.039 A 
HETATM   11  C   UNL     1     -41.837  53.885 -51.214  1.00  0.00     0.066 A 
HETATM   12  C   UNL     1     -40.844  53.050 -50.677  1.00  0.00     0.071 A 
HETATM   13  C   UNL     1     -40.145  53.452 -49.540  1.00  0.00     0.037 A 
HETATM   14  C   UNL     1     -40.431  54.680 -48.951  1.00  0.00     0.005 A 
HETATM   15  C   UNL     1     -41.396  55.514 -49.515  1.00  0.00     0.030 A 
BRANCH  12  16
HETATM   16  O   UNL     1     -40.661  51.871 -51.351  1.00  0.00    -0.347 OA
BRANCH  16  17
HETATM   17  C   UNL     1     -39.444  51.728 -52.084  1.00  0.00     0.208 C 
BRANCH  17  18
HETATM   18  C   UNL     1     -39.782  51.457 -53.529  1.00  0.00    -0.069 C 
HETATM   19  C   UNL     1     -39.599  50.038 -53.991  1.00  0.00     0.044 C 
HETATM   20  C   UNL     1     -40.248  52.413 -54.351  1.00  0.00     0.016 C 
ENDBRANCH  17  18
ENDBRANCH  16  17
ENDBRANCH  12  16
ENDBRANCH   4  10
BRANCH   1  21
HETATM   21  C   UNL     1     -43.064  58.740 -54.420  1.00  0.00     0.014 A 
HETATM   22  C   UNL     1     -41.897  59.316 -53.928  1.00  0.00     0.034 A 
HETATM   23  C   UNL     1     -40.647  58.774 -53.346  1.00  0.00     0.070 C 
HETATM   24  N   UNL     1     -42.067  60.668 -54.046  1.00  0.00    -0.282 N 
HETATM   25  H   UNL     1     -41.419  61.402 -53.784  1.00  0.00     0.189 HD
HETATM   26  N   UNL     1     -43.242  61.029 -54.568  1.00  0.00    -0.179 NA
HETATM   27  C   UNL     1     -43.874  59.869 -54.768  1.00  0.00     0.061 A 
HETATM   28  C   UNL     1     -45.265  59.871 -55.290  1.00  0.00     0.073 C 
ENDBRANCH   1  21
TORSDOF 5
ENDMDL
MODEL 6
REMARK VINA RESULT:      -7.1      2.416      4.738
REMARK  5 active torsions:
REMARK  status: ('A' for Active; 'I' for Inactive)
REMARK    1  A    between atoms: C_8  and  C_9 
REMARK       I    between atoms: N_10  and  C_11 
REMARK       I    between atoms: C_11  and  N_12 
REMARK    2  A    between atoms: N_12  and  C_13 
REMARK    3  A    between atoms: C_15  and  O_16 
REMARK    4  A    between atoms: O_16  and  C_17 
REMARK    5  A    between atoms: C_17  and  C_18 
ROOT
HETATM    1  C   UNL     1     -43.133  59.470 -53.229  1.00  0.00     0.126 C 
HETATM    2  N   UNL     1     -42.604  58.124 -53.447  1.00  0.00    -0.325 N 
HETATM    3  C   UNL     1     -43.210  57.342 -54.375  1.00  0.00     0.323 C 
HETATM    4  N   UNL     1     -43.013  56.018 -54.526  1.00  0.00    -0.309 N 
HETATM    5  O   UNL     1     -44.120  57.797 -55.084  1.00  0.00    -0.247 OA
HETATM    6  C   UNL     1     -41.374  57.942 -52.696  1.00  0.00     0.128 C 
HETATM    7  C   UNL     1     -41.255  59.148 -51.772  1.00  0.00     0.022 C 
HETATM    8  C   UNL     1     -42.014  60.233 -52.517  1.00  0.00     0.032 C 
HETATM    9  H   UNL     1     -43.819  55.676 -55.036  1.00  0.00     0.170 HD
ENDROOT
BRANCH   4  10
HETATM   10  C   UNL     1     -42.116  55.009 -54.154  1.00  0.00     0.039 A 
HETATM   11  C   UNL     1     -41.900  54.545 -52.863  1.00  0.00     0.066 A 
HETATM   12  C   UNL     1     -40.969  53.526 -52.604  1.00  0.00     0.071 A 
HETATM   13  C   UNL     1     -40.191  53.021 -53.645  1.00  0.00     0.037 A 
HETATM   14  C   UNL     1     -40.348  53.525 -54.932  1.00  0.00     0.005 A 
HETATM   15  C   UNL     1     -41.300  54.513 -55.181  1.00  0.00     0.030 A 
BRANCH  12  16
HETATM   16  O   UNL     1     -40.914  53.119 -51.297  1.00  0.00    -0.347 OA
BRANCH  16  17
HETATM   17  C   UNL     1     -39.909  53.717 -50.477  1.00  0.00     0.208 C 
BRANCH  17  18
HETATM   18  C   UNL     1     -40.582  54.400 -49.311  1.00  0.00    -0.069 C 
HETATM   19  C   UNL     1     -40.380  53.757 -47.968  1.00  0.00     0.044 C 
HETATM   20  C   UNL     1     -41.293  55.532 -49.453  1.00  0.00     0.016 C 
ENDBRANCH  17  18
ENDBRANCH  16  17
ENDBRANCH  12  16
ENDBRANCH   4  10
BRANCH   1  21
HETATM   21  C   UNL     1     -44.425  59.440 -52.442  1.00  0.00     0.014 A 
HETATM   22  C   UNL     1     -44.915  58.544 -51.498  1.00  0.00     0.034 A 
HETATM   23  C   UNL     1     -44.406  57.281 -50.915  1.00  0.00     0.070 C 
HETATM   24  N   UNL     1     -46.133  59.034 -51.111  1.00  0.00    -0.282 N 
HETATM   25  H   UNL     1     -46.778  58.638 -50.436  1.00  0.00     0.189 HD
HETATM   26  N   UNL     1     -46.486  60.168 -51.723  1.00  0.00    -0.179 NA
HETATM   27  C   UNL     1     -45.474  60.409 -52.560  1.00  0.00     0.061 A 
HETATM   28  C   UNL     1     -45.540  61.577 -53.475  1.00  0.00     0.073 C 
ENDBRANCH   1  21
TORSDOF 5
ENDMDL
MODEL 7
REMARK VINA RESULT:      -7.1      3.185      7.171
REMARK  5 active torsions:
REMARK  status: ('A' for Active; 'I' for Inactive)
REMARK    1  A    between atoms: C_8  and  C_9 
REMARK       I    between atoms: N_10  and  C_11 
REMARK       I    between atoms: C_11  and  N_12 
REMARK    2  A    between atoms: N_12  and  C_13 
REMARK    3  A    between atoms: C_15  and  O_16 
REMARK    4  A    between atoms: O_16  and  C_17 
REMARK    5  A    between atoms: C_17  and  C_18 
ROOT
HETATM    1  C   UNL     1     -43.366  57.020 -53.342  1.00  0.00     0.126 C 
HETATM    2  N   UNL     1     -43.318  57.010 -54.804  1.00  0.00    -0.325 N 
HETATM    3  C   UNL     1     -42.416  56.196 -55.408  1.00  0.00     0.323 C 
HETATM    4  N   UNL     1     -42.073  56.244 -56.709  1.00  0.00    -0.309 N 
HETATM    5  O   UNL     1     -41.728  55.412 -54.736  1.00  0.00    -0.247 OA
HETATM    6  C   UNL     1     -44.409  57.800 -55.346  1.00  0.00     0.128 C 
HETATM    7  C   UNL     1     -45.029  58.540 -54.167  1.00  0.00     0.022 C 
HETATM    8  C   UNL     1     -44.724  57.632 -52.988  1.00  0.00     0.032 C 
HETATM    9  H   UNL     1     -41.177  55.775 -56.776  1.00  0.00     0.170 HD
ENDROOT
BRANCH   4  10
HETATM   10  C   UNL     1     -42.518  56.774 -57.926  1.00  0.00     0.039 A 
HETATM   11  C   UNL     1     -43.244  56.094 -58.896  1.00  0.00     0.066 A 
HETATM   12  C   UNL     1     -43.636  56.726 -60.087  1.00  0.00     0.071 A 
HETATM   13  C   UNL     1     -43.229  58.036 -60.339  1.00  0.00     0.037 A 
HETATM   14  C   UNL     1     -42.443  58.707 -59.407  1.00  0.00     0.005 A 
HETATM   15  C   UNL     1     -42.089  58.078 -58.214  1.00  0.00     0.030 A 
BRANCH  12  16
HETATM   16  O   UNL     1     -44.407  55.956 -60.917  1.00  0.00    -0.347 OA
BRANCH  16  17
HETATM   17  C   UNL     1     -45.557  55.336 -60.341  1.00  0.00     0.208 C 
BRANCH  17  18
HETATM   18  C   UNL     1     -46.696  56.325 -60.358  1.00  0.00    -0.069 C 
HETATM   19  C   UNL     1     -46.863  57.155 -59.116  1.00  0.00     0.044 C 
HETATM   20  C   UNL     1     -47.497  56.483 -61.426  1.00  0.00     0.016 C 
ENDBRANCH  17  18
ENDBRANCH  16  17
ENDBRANCH  12  16
ENDBRANCH   4  10
BRANCH   1  21
HETATM   21  C   UNL     1     -42.200  57.780 -52.751  1.00  0.00     0.014 A 
HETATM   22  C   UNL     1     -41.548  58.940 -53.155  1.00  0.00     0.034 A 
HETATM   23  C   UNL     1     -41.702  59.860 -54.306  1.00  0.00     0.070 C 
HETATM   24  N   UNL     1     -40.573  59.168 -52.223  1.00  0.00    -0.282 N 
HETATM   25  H   UNL     1     -39.901  59.927 -52.197  1.00  0.00     0.189 HD
HETATM   26  N   UNL     1     -40.525  58.258 -51.247  1.00  0.00    -0.179 NA
HETATM   27  C   UNL     1     -41.485  57.388 -51.573  1.00  0.00     0.061 A 
HETATM   28  C   UNL     1     -41.693  56.177 -50.737  1.00  0.00     0.073 C 
ENDBRANCH   1  21
TORSDOF 5
ENDMDL
MODEL 8
REMARK VINA RESULT:      -7.0      2.775      3.921
REMARK  5 active torsions:
REMARK  status: ('A' for Active; 'I' for Inactive)
REMARK    1  A    between atoms: C_8  and  C_9 
REMARK       I    between atoms: N_10  and  C_11 
REMARK       I    between atoms: C_11  and  N_12 
REMARK    2  A    between atoms: N_12  and  C_13 
REMARK    3  A    between atoms: C_15  and  O_16 
REMARK    4  A    between atoms: O_16  and  C_17 
REMARK    5  A    between atoms: C_17  and  C_18 
ROOT
HETATM    1  C   UNL     1     -44.968  58.569 -53.202  1.00  0.00     0.126 C 
HETATM    2  N   UNL     1     -44.133  57.530 -52.599  1.00  0.00    -0.325 N 
HETATM    3  C   UNL     1     -44.321  57.241 -51.286  1.00  0.00     0.323 C 
HETATM    4  N   UNL     1     -43.490  56.503 -50.526  1.00  0.00    -0.309 N 
HETATM    5  O   UNL     1     -45.243  57.774 -50.651  1.00  0.00    -0.247 OA
HETATM    6  C   UNL     1     -43.335  56.874 -53.619  1.00  0.00     0.128 C 
HETATM    7  C   UNL     1     -43.497  57.703 -54.888  1.00  0.00     0.022 C 
HETATM    8  C   UNL     1     -44.863  58.343 -54.712  1.00  0.00     0.032 C 
HETATM    9  H   UNL     1     -43.707  56.746 -49.565  1.00  0.00     0.170 HD
ENDROOT
BRANCH   4  10
HETATM   10  C   UNL     1     -42.427  55.600 -50.647  1.00  0.00     0.039 A 
HETATM   11  C   UNL     1     -42.372  54.517 -51.515  1.00  0.00     0.066 A 
HETATM   12  C   UNL     1     -41.252  53.670 -51.550  1.00  0.00     0.071 A 
HETATM   13  C   UNL     1     -40.208  53.870 -50.648  1.00  0.00     0.037 A 
HETATM   14  C   UNL     1     -40.280  54.910 -49.726  1.00  0.00     0.005 A 
HETATM   15  C   UNL     1     -41.383  55.763 -49.725  1.00  0.00     0.030 A 
BRANCH  12  16
HETATM   16  O   UNL     1     -41.306  52.688 -52.504  1.00  0.00    -0.347 OA
BRANCH  16  17
HETATM   17  C   UNL     1     -40.389  52.795 -53.593  1.00  0.00     0.208 C 
BRANCH  17  18
HETATM   18  C   UNL     1     -40.897  53.847 -54.549  1.00  0.00    -0.069 C 
HETATM   19  C   UNL     1     -42.289  53.638 -55.074  1.00  0.00     0.044 C 
HETATM   20  C   UNL     1     -40.168  54.924 -54.888  1.00  0.00     0.016 C 
ENDBRANCH  17  18
ENDBRANCH  16  17
ENDBRANCH  12  16
ENDBRANCH   4  10
BRANCH   1  21
HETATM   21  C   UNL     1     -44.530  59.953 -52.776  1.00  0.00     0.014 A 
HETATM   22  C   UNL     1     -43.272  60.539 -52.682  1.00  0.00     0.034 A 
HETATM   23  C   UNL     1     -41.891  60.060 -52.923  1.00  0.00     0.070 C 
HETATM   24  N   UNL     1     -43.487  61.822 -52.256  1.00  0.00    -0.282 N 
HETATM   25  H   UNL     1     -42.796  62.542 -52.074  1.00  0.00     0.189 HD
HETATM   26  N   UNL     1     -44.772  62.125 -52.057  1.00  0.00    -0.179 NA
HETATM   27  C   UNL     1     -45.416  60.988 -52.335  1.00  0.00     0.061 A 
HETATM   28  C   UNL     1     -46.890  60.918 -52.163  1.00  0.00     0.073 C 
ENDBRANCH   1  21
TORSDOF 5
ENDMDL
MODEL 9
REMARK VINA RESULT:      -7.0      2.570      7.669
REMARK  5 active torsions:
REMARK  status: ('A' for Active; 'I' for Inactive)
REMARK    1  A    between atoms: C_8  and  C_9 
REMARK       I    between atoms: N_10  and  C_11 
REMARK       I    between atoms: C_11  and  N_12 
REMARK    2  A    between atoms: N_12  and  C_13 
REMARK    3  A    between atoms: C_15  and  O_16 
REMARK    4  A    between atoms: O_16  and  C_17 
REMARK    5  A    between atoms: C_17  and  C_18 
ROOT
HETATM    1  C   UNL     1     -42.227  56.224 -52.852  1.00  0.00     0.126 C 
HETATM    2  N   UNL     1     -42.475  56.535 -54.259  1.00  0.00    -0.325 N 
HETATM    3  C   UNL     1     -43.440  55.837 -54.908  1.00  0.00     0.323 C 
HETATM    4  N   UNL     1     -43.628  55.823 -56.241  1.00  0.00    -0.309 N 
HETATM    5  O   UNL     1     -44.157  55.033 -54.292  1.00  0.00    -0.247 OA
HETATM    6  C   UNL     1     -41.701  57.698 -54.657  1.00  0.00     0.128 C 
HETATM    7  C   UNL     1     -40.738  57.984 -53.512  1.00  0.00     0.022 C 
HETATM    8  C   UNL     1     -41.466  57.431 -52.299  1.00  0.00     0.032 C 
HETATM    9  H   UNL     1     -44.168  54.987 -56.435  1.00  0.00     0.170 HD
ENDROOT
BRANCH   4  10
HETATM   10  C   UNL     1     -43.267  56.534 -57.392  1.00  0.00     0.039 A 
HETATM   11  C   UNL     1     -43.284  57.916 -57.536  1.00  0.00     0.066 A 
HETATM   12  C   UNL     1     -42.903  58.525 -58.743  1.00  0.00     0.071 A 
HETATM   13  C   UNL     1     -42.575  57.733 -59.842  1.00  0.00     0.037 A 
HETATM   14  C   UNL     1     -42.620  56.346 -59.733  1.00  0.00     0.005 A 
HETATM   15  C   UNL     1     -42.967  55.755 -58.518  1.00  0.00     0.030 A 
BRANCH  12  16
HETATM   16  O   UNL     1     -42.900  59.895 -58.717  1.00  0.00    -0.347 OA
BRANCH  16  17
HETATM   17  C   UNL     1     -41.722  60.528 -58.215  1.00  0.00     0.208 C 
BRANCH  17  18
HETATM   18  C   UNL     1     -41.193  61.465 -59.273  1.00  0.00    -0.069 C 
HETATM   19  C   UNL     1     -40.164  62.460 -58.812  1.00  0.00     0.044 C 
HETATM   20  C   UNL     1     -41.587  61.400 -60.556  1.00  0.00     0.016 C 
ENDBRANCH  17  18
ENDBRANCH  16  17
ENDBRANCH  12  16
ENDBRANCH   4  10
BRANCH   1  21
HETATM   21  C   UNL     1     -41.473  54.922 -52.693  1.00  0.00     0.014 A 
HETATM   22  C   UNL     1     -40.626  54.230 -53.553  1.00  0.00     0.034 A 
HETATM   23  C   UNL     1     -40.154  54.459 -54.938  1.00  0.00     0.070 C 
HETATM   24  N   UNL     1     -40.220  53.119 -52.866  1.00  0.00    -0.282 N 
HETATM   25  H   UNL     1     -39.598  52.383 -53.184  1.00  0.00     0.189 HD
HETATM   26  N   UNL     1     -40.730  53.018 -51.636  1.00  0.00    -0.179 NA
HETATM   27  C   UNL     1     -41.521  54.089 -51.529  1.00  0.00     0.061 A 
HETATM   28  C   UNL     1     -42.324  54.288 -50.294  1.00  0.00     0.073 C 
ENDBRANCH   1  21
TORSDOF 5
ENDMDL
MODEL 10
REMARK VINA RESULT:      -7.0      3.145      7.128
REMARK  5 active torsions:
REMARK  status: ('A' for Active; 'I' for Inactive)
REMARK    1  A    between atoms: C_8  and  C_9 
REMARK       I    between atoms: N_10  and  C_11 
REMARK       I    between atoms: C_11  and  N_12 
REMARK    2  A    between atoms: N_12  and  C_13 
REMARK    3  A    between atoms: C_15  and  O_16 
REMARK    4  A    between atoms: O_16  and  C_17 
REMARK    5  A    between atoms: C_17  and  C_18 
ROOT
HETATM    1  C   UNL     1     -42.378  54.198 -52.476  1.00  0.00     0.126 C 
HETATM    2  N   UNL     1     -42.323  55.647 -52.280  1.00  0.00    -0.325 N 
HETATM    3  C   UNL     1     -41.578  56.381 -53.145  1.00  0.00     0.323 C 
HETATM    4  N   UNL     1     -41.225  57.668 -52.969  1.00  0.00    -0.309 N 
HETATM    5  O   UNL     1     -41.045  55.844 -54.128  1.00  0.00    -0.247 OA
HETATM    6  C   UNL     1     -43.252  56.046 -51.238  1.00  0.00     0.128 C 
HETATM    7  C   UNL     1     -43.736  54.759 -50.581  1.00  0.00     0.022 C 
HETATM    8  C   UNL     1     -43.606  53.731 -51.691  1.00  0.00     0.032 C 
HETATM    9  H   UNL     1     -40.427  57.821 -53.575  1.00  0.00     0.170 HD
ENDROOT
BRANCH   4  10
HETATM   10  C   UNL     1     -41.560  58.785 -52.195  1.00  0.00     0.039 A 
HETATM   11  C   UNL     1     -42.505  59.751 -52.522  1.00  0.00     0.066 A 
HETATM   12  C   UNL     1     -42.759  60.837 -51.670  1.00  0.00     0.071 A 
HETATM   13  C   UNL     1     -42.001  60.997 -50.511  1.00  0.00     0.037 A 
HETATM   14  C   UNL     1     -41.004  60.075 -50.205  1.00  0.00     0.005 A 
HETATM   15  C   UNL     1     -40.785  58.982 -51.044  1.00  0.00     0.030 A 
BRANCH  12  16
HETATM   16  O   UNL     1     -43.765  61.668 -52.085  1.00  0.00    -0.347 OA
BRANCH  16  17
HETATM   17  C   UNL     1     -45.024  61.061 -52.382  1.00  0.00     0.208 C 
BRANCH  17  18
HETATM   18  C   UNL     1     -45.720  60.737 -51.083  1.00  0.00    -0.069 C 
HETATM   19  C   UNL     1     -45.858  59.275 -50.760  1.00  0.00     0.044 C 
HETATM   20  C   UNL     1     -46.162  61.691 -50.245  1.00  0.00     0.016 C 
ENDBRANCH  17  18
ENDBRANCH  16  17
ENDBRANCH  12  16
ENDBRANCH   4  10
BRANCH   1  21
HETATM   21  C   UNL     1     -41.097  53.527 -52.032  1.00  0.00     0.014 A 
HETATM   22  C   UNL     1     -40.323  53.674 -50.886  1.00  0.00     0.034 A 
HETATM   23  C   UNL     1     -40.413  54.539 -49.686  1.00  0.00     0.070 C 
HETATM   24  N   UNL     1     -39.284  52.794 -51.018  1.00  0.00    -0.282 N 
HETATM   25  H   UNL     1     -38.520  52.630 -50.372  1.00  0.00     0.189 HD
HETATM   26  N   UNL     1     -39.306  52.087 -52.151  1.00  0.00    -0.179 NA
HETATM   27  C   UNL     1     -40.384  52.546 -52.794  1.00  0.00     0.061 A 
HETATM   28  C   UNL     1     -40.705  52.031 -54.150  1.00  0.00     0.073 C 
ENDBRANCH   1  21
TORSDOF 5
ENDMDL
