MODEL 1
REMARK VINA RESULT:      -8.3      0.000      0.000
REMARK  4 active torsions:
REMARK  status: ('A' for Active; 'I' for Inactive)
REMARK    1  A    between atoms: C_8  and  N_9 
REMARK       I    between atoms: N_9  and  C_10 
REMARK       I    between atoms: C_10  and  N_11 
REMARK    2  A    between atoms: N_11  and  C_12 
REMARK    3  A    between atoms: C_15  and  O_16 
REMARK    4  A    between atoms: O_16  and  C_17 
ROOT
HETATM    1  C   UNL     1     -42.432  54.738 -55.385  1.00  0.00     0.054 A 
HETATM    2  C   UNL     1     -43.030  54.543 -54.143  1.00  0.00     0.149 A 
HETATM    3  N   UNL     1     -42.347  54.276 -53.000  1.00  0.00    -0.235 NA
HETATM    4  C   UNL     1     -41.003  54.203 -53.091  1.00  0.00     0.169 A 
HETATM    5  C   UNL     1     -40.310  54.392 -54.276  1.00  0.00     0.060 A 
HETATM    6  C   UNL     1     -41.037  54.664 -55.436  1.00  0.00     0.035 A 
ENDROOT
BRANCH   1   7
HETATM    7  N   UNL     1     -43.118  54.993 -56.593  1.00  0.00    -0.307 N 
HETATM    8  C   UNL     1     -43.184  56.204 -57.268  1.00  0.00     0.325 C 
HETATM    9  N   UNL     1     -43.963  56.085 -58.403  1.00  0.00    -0.305 N 
HETATM   10  O   UNL     1     -42.626  57.227 -56.900  1.00  0.00    -0.247 OA
HETATM   11  H   UNL     1     -44.110  55.157 -58.766  1.00  0.00     0.171 HD
HETATM   12  H   UNL     1     -43.704  54.250 -56.940  1.00  0.00     0.170 HD
BRANCH   9  13
HETATM   13  C   UNL     1     -44.395  57.118 -59.222  1.00  0.00     0.086 A 
HETATM   14  C   UNL     1     -43.536  57.759 -60.098  1.00  0.00     0.052 A 
HETATM   15  C   UNL     1     -42.094  57.592 -60.393  1.00  0.00     0.072 C 
HETATM   16  N   UNL     1     -44.290  58.702 -60.737  1.00  0.00    -0.280 N 
HETATM   17  H   UNL     1     -43.995  59.369 -61.441  1.00  0.00     0.189 HD
HETATM   18  N   UNL     1     -45.572  58.708 -60.370  1.00  0.00    -0.177 NA
HETATM   19  C   UNL     1     -45.660  57.739 -59.445  1.00  0.00     0.079 A 
HETATM   20  C   UNL     1     -46.995  57.456 -58.859  1.00  0.00     0.075 C 
ENDBRANCH   9  13
ENDBRANCH   1   7
BRANCH   4  21
HETATM   21  O   UNL     1     -40.228  53.910 -51.972  1.00  0.00    -0.292 OA
BRANCH  21  22
HETATM   22  C   UNL     1     -40.064  52.580 -51.668  1.00  0.00     0.078 A 
HETATM   23  C   UNL     1     -40.394  52.148 -50.382  1.00  0.00     0.040 A 
HETATM   24  C   UNL     1     -40.288  50.795 -50.063  1.00  0.00     0.045 A 
HETATM   25  C   UNL     1     -39.869  49.892 -51.035  1.00  0.00     0.116 A 
HETATM   26  F   UNL     1     -39.768  48.592 -50.726  1.00  0.00    -0.206 F 
HETATM   27  C   UNL     1     -39.559  50.314 -52.325  1.00  0.00     0.045 A 
HETATM   28  C   UNL     1     -39.666  51.667 -52.649  1.00  0.00     0.040 A 
ENDBRANCH  21  22
ENDBRANCH   4  21
TORSDOF 4
ENDMDL
MODEL 2
REMARK VINA RESULT:      -8.2      1.478      2.163
REMARK  4 active torsions:
REMARK  status: ('A' for Active; 'I' for Inactive)
REMARK    1  A    between atoms: C_8  and  N_9 
REMARK       I    between atoms: N_9  and  C_10 
REMARK       I    between atoms: C_10  and  N_11 
REMARK    2  A    between atoms: N_11  and  C_12 
REMARK    3  A    between atoms: C_15  and  O_16 
REMARK    4  A    between atoms: O_16  and  C_17 
ROOT
HETATM    1  C   UNL     1     -43.082  55.994 -54.905  1.00  0.00     0.054 A 
HETATM    2  C   UNL     1     -41.745  56.357 -54.761  1.00  0.00     0.149 A 
HETATM    3  N   UNL     1     -40.888  55.781 -53.879  1.00  0.00    -0.235 NA
HETATM    4  C   UNL     1     -41.380  54.792 -53.103  1.00  0.00     0.169 A 
HETATM    5  C   UNL     1     -42.690  54.348 -53.177  1.00  0.00     0.060 A 
HETATM    6  C   UNL     1     -43.550  54.959 -54.091  1.00  0.00     0.035 A 
ENDROOT
BRANCH   1   7
HETATM    7  N   UNL     1     -44.000  56.592 -55.797  1.00  0.00    -0.307 N 
HETATM    8  C   UNL     1     -43.773  56.914 -57.127  1.00  0.00     0.325 C 
HETATM    9  N   UNL     1     -44.892  57.506 -57.681  1.00  0.00    -0.305 N 
HETATM   10  O   UNL     1     -42.724  56.700 -57.716  1.00  0.00    -0.247 OA
HETATM   11  H   UNL     1     -45.772  57.353 -57.216  1.00  0.00     0.171 HD
HETATM   12  H   UNL     1     -44.868  56.911 -55.397  1.00  0.00     0.170 HD
BRANCH   9  13
HETATM   13  C   UNL     1     -44.976  58.114 -58.926  1.00  0.00     0.086 A 
HETATM   14  C   UNL     1     -45.863  57.672 -59.893  1.00  0.00     0.052 A 
HETATM   15  C   UNL     1     -46.848  56.568 -59.921  1.00  0.00     0.072 C 
HETATM   16  N   UNL     1     -45.679  58.492 -60.969  1.00  0.00    -0.280 N 
HETATM   17  H   UNL     1     -46.149  58.463 -61.868  1.00  0.00     0.189 HD
HETATM   18  N   UNL     1     -44.769  59.447 -60.772  1.00  0.00    -0.177 NA
HETATM   19  C   UNL     1     -44.329  59.237 -59.521  1.00  0.00     0.079 A 
HETATM   20  C   UNL     1     -43.320  60.179 -58.972  1.00  0.00     0.075 C 
ENDBRANCH   9  13
ENDBRANCH   1   7
BRANCH   4  21
HETATM   21  O   UNL     1     -40.576  54.163 -52.156  1.00  0.00    -0.292 OA
BRANCH  21  22
HETATM   22  C   UNL     1     -40.200  52.870 -52.428  1.00  0.00     0.078 A 
HETATM   23  C   UNL     1     -39.905  52.026 -51.357  1.00  0.00     0.040 A 
HETATM   24  C   UNL     1     -39.572  50.694 -51.602  1.00  0.00     0.045 A 
HETATM   25  C   UNL     1     -39.554  50.221 -52.911  1.00  0.00     0.116 A 
HETATM   26  F   UNL     1     -39.235  48.941 -53.144  1.00  0.00    -0.206 F 
HETATM   27  C   UNL     1     -39.869  51.054 -53.982  1.00  0.00     0.045 A 
HETATM   28  C   UNL     1     -40.204  52.387 -53.740  1.00  0.00     0.040 A 
ENDBRANCH  21  22
ENDBRANCH   4  21
TORSDOF 4
ENDMDL
MODEL 3
REMARK VINA RESULT:      -7.7      4.211      5.811
REMARK  4 active torsions:
REMARK  status: ('A' for Active; 'I' for Inactive)
REMARK    1  A    between atoms: C_8  and  N_9 
REMARK       I    between atoms: N_9  and  C_10 
REMARK       I    between atoms: C_10  and  N_11 
REMARK    2  A    between atoms: N_11  and  C_12 
REMARK    3  A    between atoms: C_15  and  O_16 
REMARK    4  A    between atoms: O_16  and  C_17 
ROOT
HETATM    1  C   UNL     1     -41.957  56.062 -54.006  1.00  0.00     0.054 A 
HETATM    2  C   UNL     1     -40.642  55.882 -54.425  1.00  0.00     0.149 A 
HETATM    3  N   UNL     1     -40.093  54.676 -54.722  1.00  0.00    -0.235 NA
HETATM    4  C   UNL     1     -40.889  53.593 -54.604  1.00  0.00     0.169 A 
HETATM    5  C   UNL     1     -42.215  53.665 -54.207  1.00  0.00     0.060 A 
HETATM    6  C   UNL     1     -42.753  54.917 -53.905  1.00  0.00     0.035 A 
ENDROOT
BRANCH   1   7
HETATM    7  N   UNL     1     -42.547  57.300 -53.668  1.00  0.00    -0.307 N 
HETATM    8  C   UNL     1     -42.695  57.826 -52.392  1.00  0.00     0.325 C 
HETATM    9  N   UNL     1     -43.337  59.048 -52.443  1.00  0.00    -0.305 N 
HETATM   10  O   UNL     1     -42.307  57.275 -51.373  1.00  0.00    -0.247 OA
HETATM   11  H   UNL     1     -43.331  59.536 -53.324  1.00  0.00     0.171 HD
HETATM   12  H   UNL     1     -42.998  57.799 -54.417  1.00  0.00     0.170 HD
BRANCH   9  13
HETATM   13  C   UNL     1     -43.810  59.780 -51.363  1.00  0.00     0.086 A 
HETATM   14  C   UNL     1     -42.951  60.360 -50.445  1.00  0.00     0.052 A 
HETATM   15  C   UNL     1     -41.476  60.376 -50.321  1.00  0.00     0.072 C 
HETATM   16  N   UNL     1     -43.749  60.995 -49.537  1.00  0.00    -0.280 N 
HETATM   17  H   UNL     1     -43.470  61.521 -48.716  1.00  0.00     0.189 HD
HETATM   18  N   UNL     1     -45.053  60.901 -49.805  1.00  0.00    -0.177 NA
HETATM   19  C   UNL     1     -45.113  60.164 -50.925  1.00  0.00     0.079 A 
HETATM   20  C   UNL     1     -46.449  59.911 -51.520  1.00  0.00     0.075 C 
ENDBRANCH   9  13
ENDBRANCH   1   7
BRANCH   4  21
HETATM   21  O   UNL     1     -40.400  52.317 -54.867  1.00  0.00    -0.292 OA
BRANCH  21  22
HETATM   22  C   UNL     1     -40.046  51.557 -53.778  1.00  0.00     0.078 A 
HETATM   23  C   UNL     1     -39.914  52.190 -52.541  1.00  0.00     0.040 A 
HETATM   24  C   UNL     1     -39.607  51.434 -51.411  1.00  0.00     0.045 A 
HETATM   25  C   UNL     1     -39.452  50.056 -51.529  1.00  0.00     0.116 A 
HETATM   26  F   UNL     1     -39.159  49.330 -50.441  1.00  0.00    -0.206 F 
HETATM   27  C   UNL     1     -39.604  49.416 -52.757  1.00  0.00     0.045 A 
HETATM   28  C   UNL     1     -39.912  50.170 -53.890  1.00  0.00     0.040 A 
ENDBRANCH  21  22
ENDBRANCH   4  21
TORSDOF 4
ENDMDL
MODEL 4
REMARK VINA RESULT:      -7.7      1.835      2.288
REMARK  4 active torsions:
REMARK  status: ('A' for Active; 'I' for Inactive)
REMARK    1  A    between atoms: C_8  and  N_9 
REMARK       I    between atoms: N_9  and  C_10 
REMARK       I    between atoms: C_10  and  N_11 
REMARK    2  A    between atoms: N_11  and  C_12 
REMARK    3  A    between atoms: C_15  and  O_16 
REMARK    4  A    between atoms: O_16  and  C_17 
ROOT
HETATM    1  C   UNL     1     -43.278  56.265 -54.655  1.00  0.00     0.054 A 
HETATM    2  C   UNL     1     -41.952  56.674 -54.533  1.00  0.00     0.149 A 
HETATM    3  N   UNL     1     -41.031  56.057 -53.749  1.00  0.00    -0.235 NA
HETATM    4  C   UNL     1     -41.443  54.977 -53.052  1.00  0.00     0.169 A 
HETATM    5  C   UNL     1     -42.735  54.482 -53.113  1.00  0.00     0.060 A 
HETATM    6  C   UNL     1     -43.662  55.136 -53.926  1.00  0.00     0.035 A 
ENDROOT
BRANCH   1   7
HETATM    7  N   UNL     1     -44.261  56.900 -55.444  1.00  0.00    -0.307 N 
HETATM    8  C   UNL     1     -44.215  57.109 -56.815  1.00  0.00     0.325 C 
HETATM    9  N   UNL     1     -45.344  57.783 -57.242  1.00  0.00    -0.305 N 
HETATM   10  O   UNL     1     -43.298  56.745 -57.535  1.00  0.00    -0.247 OA
HETATM   11  H   UNL     1     -46.151  57.758 -56.639  1.00  0.00     0.171 HD
HETATM   12  H   UNL     1     -45.020  57.337 -54.946  1.00  0.00     0.170 HD
BRANCH   9  13
HETATM   13  C   UNL     1     -45.562  58.315 -58.504  1.00  0.00     0.086 A 
HETATM   14  C   UNL     1     -45.089  59.566 -58.859  1.00  0.00     0.052 A 
HETATM   15  C   UNL     1     -44.326  60.597 -58.119  1.00  0.00     0.072 C 
HETATM   16  N   UNL     1     -45.478  59.760 -60.154  1.00  0.00    -0.280 N 
HETATM   17  H   UNL     1     -45.318  60.569 -60.743  1.00  0.00     0.189 HD
HETATM   18  N   UNL     1     -46.140  58.727 -60.678  1.00  0.00    -0.177 NA
HETATM   19  C   UNL     1     -46.198  57.826 -59.685  1.00  0.00     0.079 A 
HETATM   20  C   UNL     1     -46.845  56.520 -59.968  1.00  0.00     0.075 C 
ENDBRANCH   9  13
ENDBRANCH   1   7
BRANCH   4  21
HETATM   21  O   UNL     1     -40.570  54.300 -52.206  1.00  0.00    -0.292 OA
BRANCH  21  22
HETATM   22  C   UNL     1     -40.284  52.996 -52.531  1.00  0.00     0.078 A 
HETATM   23  C   UNL     1     -40.334  52.620 -53.874  1.00  0.00     0.040 A 
HETATM   24  C   UNL     1     -39.997  51.316 -54.236  1.00  0.00     0.045 A 
HETATM   25  C   UNL     1     -39.601  50.412 -53.255  1.00  0.00     0.116 A 
HETATM   26  F   UNL     1     -39.276  49.161 -53.606  1.00  0.00    -0.206 F 
HETATM   27  C   UNL     1     -39.528  50.788 -51.916  1.00  0.00     0.045 A 
HETATM   28  C   UNL     1     -39.863  52.093 -51.551  1.00  0.00     0.040 A 
ENDBRANCH  21  22
ENDBRANCH   4  21
TORSDOF 4
ENDMDL
MODEL 5
REMARK VINA RESULT:      -7.6      4.732      5.190
REMARK  4 active torsions:
REMARK  status: ('A' for Active; 'I' for Inactive)
REMARK    1  A    between atoms: C_8  and  N_9 
REMARK       I    between atoms: N_9  and  C_10 
REMARK       I    between atoms: C_10  and  N_11 
REMARK    2  A    between atoms: N_11  and  C_12 
REMARK    3  A    between atoms: C_15  and  O_16 
REMARK    4  A    between atoms: O_16  and  C_17 
ROOT
HETATM    1  C   UNL     1     -41.979  55.983 -50.526  1.00  0.00     0.054 A 
HETATM    2  C   UNL     1     -42.650  54.797 -50.812  1.00  0.00     0.149 A 
HETATM    3  N   UNL     1     -42.091  53.563 -50.723  1.00  0.00    -0.235 NA
HETATM    4  C   UNL     1     -40.803  53.500 -50.327  1.00  0.00     0.169 A 
HETATM    5  C   UNL     1     -40.050  54.618 -50.008  1.00  0.00     0.060 A 
HETATM    6  C   UNL     1     -40.649  55.875 -50.109  1.00  0.00     0.035 A 
ENDROOT
BRANCH   1   7
HETATM    7  N   UNL     1     -42.528  57.280 -50.632  1.00  0.00    -0.307 N 
HETATM    8  C   UNL     1     -43.228  57.798 -51.712  1.00  0.00     0.325 C 
HETATM    9  N   UNL     1     -43.594  59.108 -51.471  1.00  0.00    -0.305 N 
HETATM   10  O   UNL     1     -43.480  57.172 -52.731  1.00  0.00    -0.247 OA
HETATM   11  H   UNL     1     -43.610  59.413 -50.510  1.00  0.00     0.171 HD
HETATM   12  H   UNL     1     -42.295  57.926 -49.894  1.00  0.00     0.170 HD
BRANCH   9  13
HETATM   13  C   UNL     1     -44.148  59.995 -52.383  1.00  0.00     0.086 A 
HETATM   14  C   UNL     1     -43.423  60.479 -53.458  1.00  0.00     0.052 A 
HETATM   15  C   UNL     1     -42.030  60.260 -53.911  1.00  0.00     0.072 C 
HETATM   16  N   UNL     1     -44.271  61.309 -54.136  1.00  0.00    -0.280 N 
HETATM   17  H   UNL     1     -44.083  61.850 -54.973  1.00  0.00     0.189 HD
HETATM   18  N   UNL     1     -45.494  61.380 -53.608  1.00  0.00    -0.177 NA
HETATM   19  C   UNL     1     -45.442  60.576 -52.534  1.00  0.00     0.079 A 
HETATM   20  C   UNL     1     -46.683  60.400 -51.738  1.00  0.00     0.075 C 
ENDBRANCH   9  13
ENDBRANCH   1   7
BRANCH   4  21
HETATM   21  O   UNL     1     -40.146  52.276 -50.233  1.00  0.00    -0.292 OA
BRANCH  21  22
HETATM   22  C   UNL     1     -39.934  51.598 -51.409  1.00  0.00     0.078 A 
HETATM   23  C   UNL     1     -39.747  50.216 -51.354  1.00  0.00     0.040 A 
HETATM   24  C   UNL     1     -39.584  49.497 -52.537  1.00  0.00     0.045 A 
HETATM   25  C   UNL     1     -39.624  50.165 -53.758  1.00  0.00     0.116 A 
HETATM   26  F   UNL     1     -39.468  49.472 -54.893  1.00  0.00    -0.206 F 
HETATM   27  C   UNL     1     -39.832  51.540 -53.819  1.00  0.00     0.045 A 
HETATM   28  C   UNL     1     -39.998  52.263 -52.637  1.00  0.00     0.040 A 
ENDBRANCH  21  22
ENDBRANCH   4  21
TORSDOF 4
ENDMDL
MODEL 6
REMARK VINA RESULT:      -7.5      1.885      2.591
REMARK  4 active torsions:
REMARK  status: ('A' for Active; 'I' for Inactive)
REMARK    1  A    between atoms: C_8  and  N_9 
REMARK       I    between atoms: N_9  and  C_10 
REMARK       I    between atoms: C_10  and  N_11 
REMARK    2  A    between atoms: N_11  and  C_12 
REMARK    3  A    between atoms: C_15  and  O_16 
REMARK    4  A    between atoms: O_16  and  C_17 
ROOT
HETATM    1  C   UNL     1     -42.844  55.653 -55.593  1.00  0.00     0.054 A 
HETATM    2  C   UNL     1     -41.601  56.143 -55.201  1.00  0.00     0.149 A 
HETATM    3  N   UNL     1     -40.662  55.411 -54.548  1.00  0.00    -0.235 NA
HETATM    4  C   UNL     1     -40.968  54.126 -54.273  1.00  0.00     0.169 A 
HETATM    5  C   UNL     1     -42.171  53.538 -54.631  1.00  0.00     0.060 A 
HETATM    6  C   UNL     1     -43.118  54.314 -55.299  1.00  0.00     0.035 A 
ENDROOT
BRANCH   1   7
HETATM    7  N   UNL     1     -43.847  56.397 -56.252  1.00  0.00    -0.307 N 
HETATM    8  C   UNL     1     -43.869  56.752 -57.593  1.00  0.00     0.325 C 
HETATM    9  N   UNL     1     -44.995  57.500 -57.879  1.00  0.00    -0.305 N 
HETATM   10  O   UNL     1     -43.005  56.442 -58.400  1.00  0.00    -0.247 OA
HETATM   11  H   UNL     1     -45.768  57.432 -57.237  1.00  0.00     0.171 HD
HETATM   12  H   UNL     1     -44.562  56.799 -55.666  1.00  0.00     0.170 HD
BRANCH   9  13
HETATM   13  C   UNL     1     -45.265  58.171 -59.063  1.00  0.00     0.086 A 
HETATM   14  C   UNL     1     -46.121  57.649 -60.017  1.00  0.00     0.052 A 
HETATM   15  C   UNL     1     -46.898  56.391 -60.087  1.00  0.00     0.072 C 
HETATM   16  N   UNL     1     -46.153  58.565 -61.030  1.00  0.00    -0.280 N 
HETATM   17  H   UNL     1     -46.667  58.517 -61.903  1.00  0.00     0.189 HD
HETATM   18  N   UNL     1     -45.413  59.650 -60.801  1.00  0.00    -0.177 NA
HETATM   19  C   UNL     1     -44.863  59.433 -59.596  1.00  0.00     0.079 A 
HETATM   20  C   UNL     1     -44.001  60.497 -59.022  1.00  0.00     0.075 C 
ENDBRANCH   9  13
ENDBRANCH   1   7
BRANCH   4  21
HETATM   21  O   UNL     1     -40.072  53.312 -53.586  1.00  0.00    -0.292 OA
BRANCH  21  22
HETATM   22  C   UNL     1     -40.215  53.254 -52.221  1.00  0.00     0.078 A 
HETATM   23  C   UNL     1     -40.612  54.409 -51.546  1.00  0.00     0.040 A 
HETATM   24  C   UNL     1     -40.816  54.364 -50.167  1.00  0.00     0.045 A 
HETATM   25  C   UNL     1     -40.635  53.164 -49.486  1.00  0.00     0.116 A 
HETATM   26  F   UNL     1     -40.832  53.123 -48.161  1.00  0.00    -0.206 F 
HETATM   27  C   UNL     1     -40.260  52.004 -50.158  1.00  0.00     0.045 A 
HETATM   28  C   UNL     1     -40.057  52.045 -51.538  1.00  0.00     0.040 A 
ENDBRANCH  21  22
ENDBRANCH   4  21
TORSDOF 4
ENDMDL
MODEL 7
REMARK VINA RESULT:      -7.5      5.165      6.335
REMARK  4 active torsions:
REMARK  status: ('A' for Active; 'I' for Inactive)
REMARK    1  A    between atoms: C_8  and  N_9 
REMARK       I    between atoms: N_9  and  C_10 
REMARK       I    between atoms: C_10  and  N_11 
REMARK    2  A    between atoms: N_11  and  C_12 
REMARK    3  A    between atoms: C_15  and  O_16 
REMARK    4  A    between atoms: O_16  and  C_17 
ROOT
HETATM    1  C   UNL     1     -43.138  56.330 -51.581  1.00  0.00     0.054 A 
HETATM    2  C   UNL     1     -41.941  56.466 -52.281  1.00  0.00     0.149 A 
HETATM    3  N   UNL     1     -40.913  55.581 -52.216  1.00  0.00    -0.235 NA
HETATM    4  C   UNL     1     -41.081  54.503 -51.421  1.00  0.00     0.169 A 
HETATM    5  C   UNL     1     -42.237  54.268 -50.694  1.00  0.00     0.060 A 
HETATM    6  C   UNL     1     -43.276  55.195 -50.777  1.00  0.00     0.035 A 
ENDROOT
BRANCH   1   7
HETATM    7  N   UNL     1     -44.212  57.245 -51.611  1.00  0.00    -0.307 N 
HETATM    8  C   UNL     1     -44.146  58.609 -51.362  1.00  0.00     0.325 C 
HETATM    9  N   UNL     1     -45.399  59.182 -51.460  1.00  0.00    -0.305 N 
HETATM   10  O   UNL     1     -43.116  59.209 -51.094  1.00  0.00    -0.247 OA
HETATM   11  H   UNL     1     -46.100  58.673 -51.975  1.00  0.00     0.171 HD
HETATM   12  H   UNL     1     -45.133  56.850 -51.719  1.00  0.00     0.170 HD
BRANCH   9  13
HETATM   13  C   UNL     1     -45.747  60.479 -51.109  1.00  0.00     0.086 A 
HETATM   14  C   UNL     1     -46.193  61.392 -52.047  1.00  0.00     0.052 A 
HETATM   15  C   UNL     1     -46.400  61.308 -53.511  1.00  0.00     0.072 C 
HETATM   16  N   UNL     1     -46.442  62.544 -51.358  1.00  0.00    -0.280 N 
HETATM   17  H   UNL     1     -46.774  63.432 -51.718  1.00  0.00     0.189 HD
HETATM   18  N   UNL     1     -46.223  62.446 -50.045  1.00  0.00    -0.177 NA
HETATM   19  C   UNL     1     -45.801  61.184 -49.869  1.00  0.00     0.079 A 
HETATM   20  C   UNL     1     -45.510  60.736 -48.484  1.00  0.00     0.075 C 
ENDBRANCH   9  13
ENDBRANCH   1   7
BRANCH   4  21
HETATM   21  O   UNL     1     -40.069  53.558 -51.280  1.00  0.00    -0.292 OA
BRANCH  21  22
HETATM   22  C   UNL     1     -40.073  52.512 -52.170  1.00  0.00     0.078 A 
HETATM   23  C   UNL     1     -40.442  52.767 -53.492  1.00  0.00     0.040 A 
HETATM   24  C   UNL     1     -40.404  51.734 -54.428  1.00  0.00     0.045 A 
HETATM   25  C   UNL     1     -39.983  50.467 -54.035  1.00  0.00     0.116 A 
HETATM   26  F   UNL     1     -39.946  49.476 -54.936  1.00  0.00    -0.206 F 
HETATM   27  C   UNL     1     -39.593  50.213 -52.722  1.00  0.00     0.045 A 
HETATM   28  C   UNL     1     -39.628  51.245 -51.783  1.00  0.00     0.040 A 
ENDBRANCH  21  22
ENDBRANCH   4  21
TORSDOF 4
ENDMDL
MODEL 8
REMARK VINA RESULT:      -7.3      3.802      4.447
REMARK  4 active torsions:
REMARK  status: ('A' for Active; 'I' for Inactive)
REMARK    1  A    between atoms: C_8  and  N_9 
REMARK       I    between atoms: N_9  and  C_10 
REMARK       I    between atoms: C_10  and  N_11 
REMARK    2  A    between atoms: N_11  and  C_12 
REMARK    3  A    between atoms: C_15  and  O_16 
REMARK    4  A    between atoms: O_16  and  C_17 
ROOT
HETATM    1  C   UNL     1     -42.122  56.236 -53.839  1.00  0.00     0.054 A 
HETATM    2  C   UNL     1     -40.807  56.120 -54.284  1.00  0.00     0.149 A 
HETATM    3  N   UNL     1     -40.217  54.945 -54.624  1.00  0.00    -0.235 NA
HETATM    4  C   UNL     1     -40.969  53.829 -54.522  1.00  0.00     0.169 A 
HETATM    5  C   UNL     1     -42.289  53.838 -54.102  1.00  0.00     0.060 A 
HETATM    6  C   UNL     1     -42.870  55.059 -53.758  1.00  0.00     0.035 A 
ENDROOT
BRANCH   1   7
HETATM    7  N   UNL     1     -42.753  57.440 -53.457  1.00  0.00    -0.307 N 
HETATM    8  C   UNL     1     -43.872  58.012 -54.046  1.00  0.00     0.325 C 
HETATM    9  N   UNL     1     -44.194  59.202 -53.422  1.00  0.00    -0.305 N 
HETATM   10  O   UNL     1     -44.479  57.522 -54.986  1.00  0.00    -0.247 OA
HETATM   11  H   UNL     1     -43.831  59.349 -52.494  1.00  0.00     0.171 HD
HETATM   12  H   UNL     1     -42.280  57.991 -52.758  1.00  0.00     0.170 HD
BRANCH   9  13
HETATM   13  C   UNL     1     -45.136  60.130 -53.844  1.00  0.00     0.086 A 
HETATM   14  C   UNL     1     -46.125  60.600 -52.999  1.00  0.00     0.052 A 
HETATM   15  C   UNL     1     -46.464  60.302 -51.588  1.00  0.00     0.072 C 
HETATM   16  N   UNL     1     -46.856  61.487 -53.736  1.00  0.00    -0.280 N 
HETATM   17  H   UNL     1     -47.669  62.021 -53.449  1.00  0.00     0.189 HD
HETATM   18  N   UNL     1     -46.406  61.655 -54.980  1.00  0.00    -0.177 NA
HETATM   19  C   UNL     1     -45.347  60.835 -55.067  1.00  0.00     0.079 A 
HETATM   20  C   UNL     1     -44.581  60.822 -56.339  1.00  0.00     0.075 C 
ENDBRANCH   9  13
ENDBRANCH   1   7
BRANCH   4  21
HETATM   21  O   UNL     1     -40.435  52.580 -54.828  1.00  0.00    -0.292 OA
BRANCH  21  22
HETATM   22  C   UNL     1     -40.092  51.780 -53.766  1.00  0.00     0.078 A 
HETATM   23  C   UNL     1     -39.964  52.367 -52.506  1.00  0.00     0.040 A 
HETATM   24  C   UNL     1     -39.670  51.569 -51.401  1.00  0.00     0.045 A 
HETATM   25  C   UNL     1     -39.523  50.195 -51.567  1.00  0.00     0.116 A 
HETATM   26  F   UNL     1     -39.242  49.430 -50.505  1.00  0.00    -0.206 F 
HETATM   27  C   UNL     1     -39.671  49.601 -52.818  1.00  0.00     0.045 A 
HETATM   28  C   UNL     1     -39.967  50.397 -53.926  1.00  0.00     0.040 A 
ENDBRANCH  21  22
ENDBRANCH   4  21
TORSDOF 4
ENDMDL
MODEL 9
REMARK VINA RESULT:      -7.3      5.292      6.432
REMARK  4 active torsions:
REMARK  status: ('A' for Active; 'I' for Inactive)
REMARK    1  A    between atoms: C_8  and  N_9 
REMARK       I    between atoms: N_9  and  C_10 
REMARK       I    between atoms: C_10  and  N_11 
REMARK    2  A    between atoms: N_11  and  C_12 
REMARK    3  A    between atoms: C_15  and  O_16 
REMARK    4  A    between atoms: O_16  and  C_17 
ROOT
HETATM    1  C   UNL     1     -43.331  56.201 -50.837  1.00  0.00     0.054 A 
HETATM    2  C   UNL     1     -43.446  54.821 -50.688  1.00  0.00     0.149 A 
HETATM    3  N   UNL     1     -42.396  53.960 -50.716  1.00  0.00    -0.235 NA
HETATM    4  C   UNL     1     -41.170  54.493 -50.896  1.00  0.00     0.169 A 
HETATM    5  C   UNL     1     -40.946  55.852 -51.042  1.00  0.00     0.060 A 
HETATM    6  C   UNL     1     -42.043  56.715 -51.011  1.00  0.00     0.035 A 
ENDROOT
BRANCH   1   7
HETATM    7  N   UNL     1     -44.405  57.117 -50.835  1.00  0.00    -0.307 N 
HETATM    8  C   UNL     1     -44.329  58.485 -51.051  1.00  0.00     0.325 C 
HETATM    9  N   UNL     1     -45.579  59.064 -50.952  1.00  0.00    -0.305 N 
HETATM   10  O   UNL     1     -43.292  59.085 -51.294  1.00  0.00    -0.247 OA
HETATM   11  H   UNL     1     -46.377  58.458 -51.057  1.00  0.00     0.171 HD
HETATM   12  H   UNL     1     -45.300  56.756 -50.542  1.00  0.00     0.170 HD
BRANCH   9  13
HETATM   13  C   UNL     1     -45.864  60.422 -50.935  1.00  0.00     0.086 A 
HETATM   14  C   UNL     1     -45.818  61.161 -49.765  1.00  0.00     0.052 A 
HETATM   15  C   UNL     1     -45.512  60.800 -48.362  1.00  0.00     0.072 C 
HETATM   16  N   UNL     1     -46.145  62.439 -50.118  1.00  0.00    -0.280 N 
HETATM   17  H   UNL     1     -46.223  63.254 -49.520  1.00  0.00     0.189 HD
HETATM   18  N   UNL     1     -46.372  62.598 -51.423  1.00  0.00    -0.177 NA
HETATM   19  C   UNL     1     -46.199  61.373 -51.945  1.00  0.00     0.079 A 
HETATM   20  C   UNL     1     -46.339  61.218 -53.415  1.00  0.00     0.075 C 
ENDBRANCH   9  13
ENDBRANCH   1   7
BRANCH   4  21
HETATM   21  O   UNL     1     -40.042  53.679 -50.961  1.00  0.00    -0.292 OA
BRANCH  21  22
HETATM   22  C   UNL     1     -40.004  52.760 -51.982  1.00  0.00     0.078 A 
HETATM   23  C   UNL     1     -39.642  51.447 -51.679  1.00  0.00     0.040 A 
HETATM   24  C   UNL     1     -39.647  50.482 -52.687  1.00  0.00     0.045 A 
HETATM   25  C   UNL     1     -40.028  50.840 -53.977  1.00  0.00     0.116 A 
HETATM   26  F   UNL     1     -40.033  49.911 -54.943  1.00  0.00    -0.206 F 
HETATM   27  C   UNL     1     -40.411  52.144 -54.279  1.00  0.00     0.045 A 
HETATM   28  C   UNL     1     -40.409  53.111 -53.273  1.00  0.00     0.040 A 
ENDBRANCH  21  22
ENDBRANCH   4  21
TORSDOF 4
ENDMDL
MODEL 10
REMARK VINA RESULT:      -7.2      6.765      8.596
REMARK  4 active torsions:
REMARK  status: ('A' for Active; 'I' for Inactive)
REMARK    1  A    between atoms: C_8  and  N_9 
REMARK       I    between atoms: N_9  and  C_10 
REMARK       I    between atoms: C_10  and  N_11 
REMARK    2  A    between atoms: N_11  and  C_12 
REMARK    3  A    between atoms: C_15  and  O_16 
REMARK    4  A    between atoms: O_16  and  C_17 
ROOT
HETATM    1  C   UNL     1     -43.734  58.845 -51.611  1.00  0.00     0.054 A 
HETATM    2  C   UNL     1     -44.736  58.119 -52.250  1.00  0.00     0.149 A 
HETATM    3  N   UNL     1     -44.514  57.226 -53.248  1.00  0.00    -0.235 NA
HETATM    4  C   UNL     1     -43.233  57.038 -53.630  1.00  0.00     0.169 A 
HETATM    5  C   UNL     1     -42.163  57.701 -53.051  1.00  0.00     0.060 A 
HETATM    6  C   UNL     1     -42.420  58.615 -52.028  1.00  0.00     0.035 A 
ENDROOT
BRANCH   1   7
HETATM    7  N   UNL     1     -43.938  59.796 -50.587  1.00  0.00    -0.307 N 
HETATM    8  C   UNL     1     -45.057  59.913 -49.776  1.00  0.00     0.325 C 
HETATM    9  N   UNL     1     -44.915  60.974 -48.901  1.00  0.00    -0.305 N 
HETATM   10  O   UNL     1     -46.029  59.174 -49.836  1.00  0.00    -0.247 OA
HETATM   11  H   UNL     1     -43.980  61.307 -48.729  1.00  0.00     0.171 HD
HETATM   12  H   UNL     1     -43.248  60.527 -50.512  1.00  0.00     0.170 HD
BRANCH   9  13
HETATM   13  C   UNL     1     -45.894  61.497 -48.069  1.00  0.00     0.086 A 
HETATM   14  C   UNL     1     -46.741  62.508 -48.488  1.00  0.00     0.052 A 
HETATM   15  C   UNL     1     -46.856  63.260 -49.759  1.00  0.00     0.072 C 
HETATM   16  N   UNL     1     -47.566  62.766 -47.430  1.00  0.00    -0.280 N 
HETATM   17  H   UNL     1     -48.308  63.454 -47.367  1.00  0.00     0.189 HD
HETATM   18  N   UNL     1     -47.344  61.988 -46.370  1.00  0.00    -0.177 NA
HETATM   19  C   UNL     1     -46.326  61.197 -46.742  1.00  0.00     0.079 A 
HETATM   20  C   UNL     1     -45.859  60.165 -45.781  1.00  0.00     0.075 C 
ENDBRANCH   9  13
ENDBRANCH   1   7
BRANCH   4  21
HETATM   21  O   UNL     1     -42.919  56.158 -54.661  1.00  0.00    -0.292 OA
BRANCH  21  22
HETATM   22  C   UNL     1     -42.130  55.083 -54.335  1.00  0.00     0.078 A 
HETATM   23  C   UNL     1     -40.977  54.853 -55.087  1.00  0.00     0.040 A 
HETATM   24  C   UNL     1     -40.130  53.799 -54.744  1.00  0.00     0.045 A 
HETATM   25  C   UNL     1     -40.438  53.002 -53.646  1.00  0.00     0.116 A 
HETATM   26  F   UNL     1     -39.622  51.991 -53.316  1.00  0.00    -0.206 F 
HETATM   27  C   UNL     1     -41.575  53.240 -52.878  1.00  0.00     0.045 A 
HETATM   28  C   UNL     1     -42.424  54.295 -53.219  1.00  0.00     0.040 A 
ENDBRANCH  21  22
ENDBRANCH   4  21
TORSDOF 4
ENDMDL
