MODEL 1
REMARK VINA RESULT:      -8.2      0.000      0.000
REMARK  8 active torsions:
REMARK  status: ('A' for Active; 'I' for Inactive)
REMARK    1  A    between atoms: O_2  and  C_3 
REMARK    2  A    between atoms: C_5  and  C_6 
REMARK    3  A    between atoms: C_6  and  N_7 
REMARK    4  A    between atoms: C_16  and  C_17 
REMARK    5  A    between atoms: C_17  and  N_18 
REMARK    6  A    between atoms: C_22  and  O_23 
REMARK    7  A    between atoms: C_22  and  C_24 
REMARK    8  A    between atoms: C_34  and  O_35 
ROOT
HETATM    1  N   UNL     1     -42.677  54.640 -54.390  1.00  0.00    -0.061 N 
HETATM    2  H   UNL     1     -43.003  53.736 -54.031  1.00  0.00     0.280 HD
HETATM    3  C   UNL     1     -43.605  55.659 -53.771  1.00  0.00     0.276 C 
HETATM    4  C   UNL     1     -43.201  57.090 -53.961  1.00  0.00     0.002 A 
HETATM    5  C   UNL     1     -43.157  57.634 -55.243  1.00  0.00     0.076 A 
HETATM    6  O   UNL     1     -43.532  56.892 -56.327  1.00  0.00    -0.349 OA
HETATM    7  C   UNL     1     -42.568  55.876 -56.638  1.00  0.00     0.203 C 
HETATM    8  C   UNL     1     -42.858  54.556 -55.905  1.00  0.00     0.262 C 
HETATM    9  C   UNL     1     -42.871  57.909 -52.864  1.00  0.00     0.020 A 
HETATM   10  C   UNL     1     -42.484  59.249 -53.045  1.00  0.00    -0.032 A 
HETATM   11  C   UNL     1     -42.453  59.764 -54.349  1.00  0.00     0.011 A 
HETATM   12  C   UNL     1     -42.808  58.966 -55.440  1.00  0.00     0.038 A 
ENDROOT
BRANCH  10  13
HETATM   13  C   UNL     1     -42.102  60.106 -51.860  1.00  0.00     0.273 C 
BRANCH  13  14
HETATM   14  N   UNL     1     -43.055  61.235 -51.506  1.00  0.00    -0.067 N 
HETATM   15  H   UNL     1     -43.018  61.865 -52.320  1.00  0.00     0.280 HD
HETATM   16  C   UNL     1     -44.492  60.790 -51.401  1.00  0.00     0.238 C 
HETATM   17  C   UNL     1     -45.397  61.997 -51.192  1.00  0.00     0.071 C 
HETATM   18  C   UNL     1     -44.998  62.837 -49.960  1.00  0.00     0.089 C 
HETATM   19  C   UNL     1     -43.525  63.253 -50.162  1.00  0.00     0.071 C 
HETATM   20  C   UNL     1     -42.613  62.050 -50.317  1.00  0.00     0.238 C 
BRANCH  18  21
HETATM   21  O   UNL     1     -45.764  64.041 -50.035  1.00  0.00    -0.385 OA
HETATM   22  H   UNL     1     -45.173  64.812 -50.132  1.00  0.00     0.211 HD
ENDBRANCH  18  21
BRANCH  18  23
HETATM   23  C   UNL     1     -45.253  62.193 -48.601  1.00  0.00    -0.006 A 
HETATM   24  C   UNL     1     -45.812  60.925 -48.448  1.00  0.00     0.126 A 
HETATM   25  N   UNL     1     -45.993  60.300 -47.265  1.00  0.00    -0.272 NA
HETATM   26  C   UNL     1     -45.684  60.987 -46.149  1.00  0.00     0.116 A 
HETATM   27  C   UNL     1     -45.181  62.273 -46.171  1.00  0.00     0.020 A 
HETATM   28  C   UNL     1     -44.968  62.878 -47.409  1.00  0.00     0.013 A 
ENDBRANCH  18  23
ENDBRANCH  13  14
ENDBRANCH  10  13
BRANCH   1  29
HETATM   29  C   UNL     1     -41.206  54.708 -53.991  1.00  0.00     0.276 C 
BRANCH  29  30
HETATM   30  C   UNL     1     -40.702  53.649 -53.041  1.00  0.00     0.004 A 
HETATM   31  C   UNL     1     -40.243  52.411 -53.522  1.00  0.00     0.048 A 
HETATM   32  C   UNL     1     -39.815  51.408 -52.648  1.00  0.00     0.069 A 
HETATM   33  C   UNL     1     -39.785  51.660 -51.281  1.00  0.00     0.039 A 
HETATM   34  C   UNL     1     -40.190  52.905 -50.786  1.00  0.00     0.040 A 
HETATM   35  C   UNL     1     -40.648  53.898 -51.654  1.00  0.00     0.076 A 
BRANCH  32  36
HETATM   36  O   UNL     1     -39.480  50.234 -53.260  1.00  0.00    -0.356 OA
HETATM   37  C   UNL     1     -39.892  50.066 -54.613  1.00  0.00     0.210 C 
ENDBRANCH  32  36
BRANCH  35  38
HETATM   38  O   UNL     1     -41.107  55.122 -51.246  1.00  0.00    -0.355 OA
HETATM   39  C   UNL     1     -42.222  55.144 -50.356  1.00  0.00     0.210 C 
ENDBRANCH  35  38
ENDBRANCH  29  30
ENDBRANCH   1  29
TORSDOF 8
ENDMDL
MODEL 2
REMARK VINA RESULT:      -8.1      4.311      8.439
REMARK  8 active torsions:
REMARK  status: ('A' for Active; 'I' for Inactive)
REMARK    1  A    between atoms: O_2  and  C_3 
REMARK    2  A    between atoms: C_5  and  C_6 
REMARK    3  A    between atoms: C_6  and  N_7 
REMARK    4  A    between atoms: C_16  and  C_17 
REMARK    5  A    between atoms: C_17  and  N_18 
REMARK    6  A    between atoms: C_22  and  O_23 
REMARK    7  A    between atoms: C_22  and  C_24 
REMARK    8  A    between atoms: C_34  and  O_35 
ROOT
HETATM    1  N   UNL     1     -42.578  60.970 -57.777  1.00  0.00    -0.061 N 
HETATM    2  H   UNL     1     -41.935  61.669 -57.390  1.00  0.00     0.280 HD
HETATM    3  C   UNL     1     -41.715  59.759 -58.045  1.00  0.00     0.276 C 
HETATM    4  C   UNL     1     -42.462  58.510 -58.408  1.00  0.00     0.002 A 
HETATM    5  C   UNL     1     -43.211  58.467 -59.583  1.00  0.00     0.076 A 
HETATM    6  O   UNL     1     -43.229  59.534 -60.436  1.00  0.00    -0.349 OA
HETATM    7  C   UNL     1     -43.981  60.633 -59.902  1.00  0.00     0.203 C 
HETATM    8  C   UNL     1     -43.105  61.587 -59.072  1.00  0.00     0.262 C 
HETATM    9  C   UNL     1     -42.416  57.366 -57.590  1.00  0.00     0.020 A 
HETATM   10  C   UNL     1     -43.124  56.198 -57.929  1.00  0.00    -0.032 A 
HETATM   11  C   UNL     1     -43.866  56.189 -59.119  1.00  0.00     0.011 A 
HETATM   12  C   UNL     1     -43.892  57.312 -59.952  1.00  0.00     0.038 A 
ENDROOT
BRANCH  10  13
HETATM   13  C   UNL     1     -43.090  54.988 -57.023  1.00  0.00     0.273 C 
BRANCH  13  14
HETATM   14  N   UNL     1     -42.592  55.216 -55.607  1.00  0.00    -0.067 N 
HETATM   15  H   UNL     1     -42.874  56.183 -55.390  1.00  0.00     0.280 HD
HETATM   16  C   UNL     1     -43.286  54.351 -54.585  1.00  0.00     0.238 C 
HETATM   17  C   UNL     1     -42.839  54.743 -53.183  1.00  0.00     0.071 C 
HETATM   18  C   UNL     1     -41.308  54.674 -53.001  1.00  0.00     0.089 C 
HETATM   19  C   UNL     1     -40.691  55.594 -54.076  1.00  0.00     0.071 C 
HETATM   20  C   UNL     1     -41.090  55.173 -55.479  1.00  0.00     0.238 C 
BRANCH  18  21
HETATM   21  O   UNL     1     -41.029  55.292 -51.743  1.00  0.00    -0.385 OA
HETATM   22  H   UNL     1     -41.734  55.928 -51.516  1.00  0.00     0.211 HD
ENDBRANCH  18  21
BRANCH  18  23
HETATM   23  C   UNL     1     -40.698  53.277 -52.992  1.00  0.00    -0.006 A 
HETATM   24  C   UNL     1     -40.148  52.690 -51.853  1.00  0.00     0.126 A 
HETATM   25  N   UNL     1     -39.659  51.433 -51.794  1.00  0.00    -0.272 NA
HETATM   26  C   UNL     1     -39.628  50.726 -52.940  1.00  0.00     0.116 A 
HETATM   27  C   UNL     1     -40.086  51.223 -54.143  1.00  0.00     0.020 A 
HETATM   28  C   UNL     1     -40.623  52.510 -54.166  1.00  0.00     0.013 A 
ENDBRANCH  18  23
ENDBRANCH  13  14
ENDBRANCH  10  13
BRANCH   1  29
HETATM   29  C   UNL     1     -43.672  60.824 -56.724  1.00  0.00     0.276 C 
BRANCH  29  30
HETATM   30  C   UNL     1     -43.340  60.015 -55.494  1.00  0.00     0.004 A 
HETATM   31  C   UNL     1     -42.064  60.086 -54.910  1.00  0.00     0.048 A 
HETATM   32  C   UNL     1     -41.733  59.309 -53.797  1.00  0.00     0.069 A 
HETATM   33  C   UNL     1     -42.700  58.494 -53.220  1.00  0.00     0.039 A 
HETATM   34  C   UNL     1     -43.992  58.447 -53.757  1.00  0.00     0.040 A 
HETATM   35  C   UNL     1     -44.317  59.199 -54.888  1.00  0.00     0.076 A 
BRANCH  32  36
HETATM   36  O   UNL     1     -40.432  59.424 -53.397  1.00  0.00    -0.356 OA
HETATM   37  C   UNL     1     -40.075  58.807 -52.163  1.00  0.00     0.210 C 
ENDBRANCH  32  36
BRANCH  35  38
HETATM   38  O   UNL     1     -45.541  59.172 -55.502  1.00  0.00    -0.355 OA
HETATM   39  C   UNL     1     -45.836  58.049 -56.331  1.00  0.00     0.210 C 
ENDBRANCH  35  38
ENDBRANCH  29  30
ENDBRANCH   1  29
TORSDOF 8
ENDMDL
MODEL 3
REMARK VINA RESULT:      -8.1      3.584      7.531
REMARK  8 active torsions:
REMARK  status: ('A' for Active; 'I' for Inactive)
REMARK    1  A    between atoms: O_2  and  C_3 
REMARK    2  A    between atoms: C_5  and  C_6 
REMARK    3  A    between atoms: C_6  and  N_7 
REMARK    4  A    between atoms: C_16  and  C_17 
REMARK    5  A    between atoms: C_17  and  N_18 
REMARK    6  A    between atoms: C_22  and  O_23 
REMARK    7  A    between atoms: C_22  and  C_24 
REMARK    8  A    between atoms: C_34  and  O_35 
ROOT
HETATM    1  N   UNL     1     -41.954  56.053 -51.647  1.00  0.00    -0.061 N 
HETATM    2  H   UNL     1     -41.193  55.542 -51.187  1.00  0.00     0.280 HD
HETATM    3  C   UNL     1     -41.386  57.426 -51.920  1.00  0.00     0.276 C 
HETATM    4  C   UNL     1     -42.231  58.303 -52.795  1.00  0.00     0.002 A 
HETATM    5  C   UNL     1     -43.491  58.707 -52.360  1.00  0.00     0.076 A 
HETATM    6  O   UNL     1     -43.946  58.356 -51.121  1.00  0.00    -0.349 OA
HETATM    7  C   UNL     1     -44.280  56.963 -51.049  1.00  0.00     0.203 C 
HETATM    8  C   UNL     1     -43.081  56.101 -50.617  1.00  0.00     0.262 C 
HETATM    9  C   UNL     1     -41.772  58.743 -54.051  1.00  0.00     0.020 A 
HETATM   10  C   UNL     1     -42.570  59.559 -54.874  1.00  0.00    -0.032 A 
HETATM   11  C   UNL     1     -43.832  59.948 -54.405  1.00  0.00     0.011 A 
HETATM   12  C   UNL     1     -44.282  59.541 -53.145  1.00  0.00     0.038 A 
ENDROOT
BRANCH  10  13
HETATM   13  C   UNL     1     -42.075  59.996 -56.234  1.00  0.00     0.273 C 
BRANCH  13  14
HETATM   14  N   UNL     1     -42.088  58.944 -57.329  1.00  0.00    -0.067 N 
HETATM   15  H   UNL     1     -41.137  58.548 -57.314  1.00  0.00     0.280 HD
HETATM   16  C   UNL     1     -43.013  57.790 -57.036  1.00  0.00     0.238 C 
HETATM   17  C   UNL     1     -42.858  56.715 -58.103  1.00  0.00     0.071 C 
HETATM   18  C   UNL     1     -43.094  57.250 -59.532  1.00  0.00     0.089 C 
HETATM   19  C   UNL     1     -42.100  58.413 -59.741  1.00  0.00     0.071 C 
HETATM   20  C   UNL     1     -42.289  59.512 -58.711  1.00  0.00     0.238 C 
BRANCH  18  21
HETATM   21  O   UNL     1     -42.680  56.210 -60.419  1.00  0.00    -0.385 OA
HETATM   22  H   UNL     1     -41.834  55.826 -60.119  1.00  0.00     0.211 HD
ENDBRANCH  18  21
BRANCH  18  23
HETATM   23  C   UNL     1     -44.531  57.627 -59.875  1.00  0.00    -0.006 A 
HETATM   24  C   UNL     1     -44.891  58.861 -60.414  1.00  0.00     0.126 A 
HETATM   25  N   UNL     1     -46.142  59.204 -60.789  1.00  0.00    -0.272 NA
HETATM   26  C   UNL     1     -47.125  58.315 -60.548  1.00  0.00     0.116 A 
HETATM   27  C   UNL     1     -46.901  57.084 -59.963  1.00  0.00     0.020 A 
HETATM   28  C   UNL     1     -45.592  56.742 -59.623  1.00  0.00     0.013 A 
ENDBRANCH  18  23
ENDBRANCH  13  14
ENDBRANCH  10  13
BRANCH   1  29
HETATM   29  C   UNL     1     -42.318  55.198 -52.857  1.00  0.00     0.276 C 
BRANCH  29  30
HETATM   30  C   UNL     1     -41.464  53.983 -53.123  1.00  0.00     0.004 A 
HETATM   31  C   UNL     1     -40.886  53.265 -52.063  1.00  0.00     0.048 A 
HETATM   32  C   UNL     1     -40.058  52.164 -52.300  1.00  0.00     0.069 A 
HETATM   33  C   UNL     1     -39.851  51.734 -53.607  1.00  0.00     0.039 A 
HETATM   34  C   UNL     1     -40.459  52.405 -54.673  1.00  0.00     0.040 A 
HETATM   35  C   UNL     1     -41.261  53.525 -54.441  1.00  0.00     0.076 A 
BRANCH  32  36
HETATM   36  O   UNL     1     -39.504  51.623 -51.176  1.00  0.00    -0.356 OA
HETATM   37  C   UNL     1     -39.514  50.203 -51.064  1.00  0.00     0.210 C 
ENDBRANCH  32  36
BRANCH  35  38
HETATM   38  O   UNL     1     -41.852  54.265 -55.431  1.00  0.00    -0.355 OA
HETATM   39  C   UNL     1     -43.177  53.906 -55.819  1.00  0.00     0.210 C 
ENDBRANCH  35  38
ENDBRANCH  29  30
ENDBRANCH   1  29
TORSDOF 8
ENDMDL
MODEL 4
REMARK VINA RESULT:      -8.1      3.119      8.084
REMARK  8 active torsions:
REMARK  status: ('A' for Active; 'I' for Inactive)
REMARK    1  A    between atoms: O_2  and  C_3 
REMARK    2  A    between atoms: C_5  and  C_6 
REMARK    3  A    between atoms: C_6  and  N_7 
REMARK    4  A    between atoms: C_16  and  C_17 
REMARK    5  A    between atoms: C_17  and  N_18 
REMARK    6  A    between atoms: C_22  and  O_23 
REMARK    7  A    between atoms: C_22  and  C_24 
REMARK    8  A    between atoms: C_34  and  O_35 
ROOT
HETATM    1  N   UNL     1     -41.648  55.613 -49.943  1.00  0.00    -0.061 N 
HETATM    2  H   UNL     1     -42.156  56.085 -49.187  1.00  0.00     0.280 HD
HETATM    3  C   UNL     1     -42.689  54.766 -50.637  1.00  0.00     0.276 C 
HETATM    4  C   UNL     1     -42.248  54.142 -51.928  1.00  0.00     0.002 A 
HETATM    5  C   UNL     1     -41.217  53.205 -51.928  1.00  0.00     0.076 A 
HETATM    6  O   UNL     1     -40.637  52.807 -50.756  1.00  0.00    -0.349 OA
HETATM    7  C   UNL     1     -39.811  53.836 -50.193  1.00  0.00     0.203 C 
HETATM    8  C   UNL     1     -40.596  54.755 -49.242  1.00  0.00     0.262 C 
HETATM    9  C   UNL     1     -42.864  54.474 -53.149  1.00  0.00     0.020 A 
HETATM   10  C   UNL     1     -42.443  53.894 -54.360  1.00  0.00    -0.032 A 
HETATM   11  C   UNL     1     -41.403  52.954 -54.323  1.00  0.00     0.011 A 
HETATM   12  C   UNL     1     -40.808  52.596 -53.110  1.00  0.00     0.038 A 
ENDROOT
BRANCH  10  13
HETATM   13  C   UNL     1     -43.094  54.286 -55.667  1.00  0.00     0.273 C 
BRANCH  13  14
HETATM   14  N   UNL     1     -42.856  55.709 -56.142  1.00  0.00    -0.067 N 
HETATM   15  H   UNL     1     -41.902  55.928 -55.823  1.00  0.00     0.280 HD
HETATM   16  C   UNL     1     -42.824  55.837 -57.644  1.00  0.00     0.238 C 
HETATM   17  C   UNL     1     -42.436  57.257 -58.036  1.00  0.00     0.071 C 
HETATM   18  C   UNL     1     -43.367  58.323 -57.421  1.00  0.00     0.089 C 
HETATM   19  C   UNL     1     -43.326  58.120 -55.891  1.00  0.00     0.071 C 
HETATM   20  C   UNL     1     -43.764  56.722 -55.493  1.00  0.00     0.238 C 
BRANCH  18  21
HETATM   21  O   UNL     1     -42.746  59.585 -57.670  1.00  0.00    -0.385 OA
HETATM   22  H   UNL     1     -42.587  59.701 -58.627  1.00  0.00     0.211 HD
ENDBRANCH  18  21
BRANCH  18  23
HETATM   23  C   UNL     1     -44.786  58.373 -57.977  1.00  0.00    -0.006 A 
HETATM   24  C   UNL     1     -45.114  57.979 -59.273  1.00  0.00     0.126 A 
HETATM   25  N   UNL     1     -46.367  57.948 -59.777  1.00  0.00    -0.272 NA
HETATM   26  C   UNL     1     -47.359  58.410 -58.993  1.00  0.00     0.116 A 
HETATM   27  C   UNL     1     -47.150  58.884 -57.713  1.00  0.00     0.020 A 
HETATM   28  C   UNL     1     -45.851  58.866 -57.206  1.00  0.00     0.013 A 
ENDBRANCH  18  23
ENDBRANCH  13  14
ENDBRANCH  10  13
BRANCH   1  29
HETATM   29  C   UNL     1     -41.021  56.744 -50.753  1.00  0.00     0.276 C 
BRANCH  29  30
HETATM   30  C   UNL     1     -41.858  57.979 -50.972  1.00  0.00     0.004 A 
HETATM   31  C   UNL     1     -43.092  57.903 -51.639  1.00  0.00     0.048 A 
HETATM   32  C   UNL     1     -43.855  59.048 -51.885  1.00  0.00     0.069 A 
HETATM   33  C   UNL     1     -43.414  60.278 -51.409  1.00  0.00     0.039 A 
HETATM   34  C   UNL     1     -42.211  60.367 -50.699  1.00  0.00     0.040 A 
HETATM   35  C   UNL     1     -41.432  59.230 -50.479  1.00  0.00     0.076 A 
BRANCH  32  36
HETATM   36  O   UNL     1     -44.986  58.824 -52.616  1.00  0.00    -0.356 OA
HETATM   37  C   UNL     1     -45.485  59.912 -53.390  1.00  0.00     0.210 C 
ENDBRANCH  32  36
BRANCH  35  38
HETATM   38  O   UNL     1     -40.222  59.241 -49.837  1.00  0.00    -0.355 OA
HETATM   39  C   UNL     1     -39.082  59.656 -50.588  1.00  0.00     0.210 C 
ENDBRANCH  35  38
ENDBRANCH  29  30
ENDBRANCH   1  29
TORSDOF 8
ENDMDL
MODEL 5
REMARK VINA RESULT:      -8.1      3.051      7.781
REMARK  8 active torsions:
REMARK  status: ('A' for Active; 'I' for Inactive)
REMARK    1  A    between atoms: O_2  and  C_3 
REMARK    2  A    between atoms: C_5  and  C_6 
REMARK    3  A    between atoms: C_6  and  N_7 
REMARK    4  A    between atoms: C_16  and  C_17 
REMARK    5  A    between atoms: C_17  and  N_18 
REMARK    6  A    between atoms: C_22  and  O_23 
REMARK    7  A    between atoms: C_22  and  C_24 
REMARK    8  A    between atoms: C_34  and  O_35 
ROOT
HETATM    1  N   UNL     1     -44.000  60.159 -56.183  1.00  0.00    -0.061 N 
HETATM    2  H   UNL     1     -44.417  60.083 -57.116  1.00  0.00     0.280 HD
HETATM    3  C   UNL     1     -45.080  59.687 -55.238  1.00  0.00     0.276 C 
HETATM    4  C   UNL     1     -44.643  59.487 -53.817  1.00  0.00     0.002 A 
HETATM    5  C   UNL     1     -44.204  60.577 -53.068  1.00  0.00     0.076 A 
HETATM    6  O   UNL     1     -44.218  61.837 -53.596  1.00  0.00    -0.349 OA
HETATM    7  C   UNL     1     -43.200  62.009 -54.592  1.00  0.00     0.203 C 
HETATM    8  C   UNL     1     -43.698  61.646 -56.001  1.00  0.00     0.262 C 
HETATM    9  C   UNL     1     -44.676  58.217 -53.213  1.00  0.00     0.020 A 
HETATM   10  C   UNL     1     -44.258  58.030 -51.882  1.00  0.00    -0.032 A 
HETATM   11  C   UNL     1     -43.824  59.149 -51.157  1.00  0.00     0.011 A 
HETATM   12  C   UNL     1     -43.817  60.419 -51.741  1.00  0.00     0.038 A 
ENDROOT
BRANCH  10  13
HETATM   13  C   UNL     1     -44.270  56.653 -51.258  1.00  0.00     0.273 C 
BRANCH  13  14
HETATM   14  N   UNL     1     -42.961  56.170 -50.658  1.00  0.00    -0.067 N 
HETATM   15  H   UNL     1     -42.835  56.754 -49.819  1.00  0.00     0.280 HD
HETATM   16  C   UNL     1     -43.024  54.749 -50.160  1.00  0.00     0.238 C 
HETATM   17  C   UNL     1     -41.728  54.391 -49.443  1.00  0.00     0.071 C 
HETATM   18  C   UNL     1     -40.479  54.602 -50.325  1.00  0.00     0.089 C 
HETATM   19  C   UNL     1     -40.496  56.079 -50.775  1.00  0.00     0.071 C 
HETATM   20  C   UNL     1     -41.763  56.425 -51.537  1.00  0.00     0.238 C 
BRANCH  18  21
HETATM   21  O   UNL     1     -39.352  54.465 -49.458  1.00  0.00    -0.385 OA
HETATM   22  H   UNL     1     -39.457  55.039 -48.675  1.00  0.00     0.211 HD
ENDBRANCH  18  21
BRANCH  18  23
HETATM   23  C   UNL     1     -40.308  53.629 -51.486  1.00  0.00    -0.006 A 
HETATM   24  C   UNL     1     -39.840  52.325 -51.328  1.00  0.00     0.126 A 
HETATM   25  N   UNL     1     -39.737  51.417 -52.322  1.00  0.00    -0.272 NA
HETATM   26  C   UNL     1     -40.033  51.829 -53.570  1.00  0.00     0.116 A 
HETATM   27  C   UNL     1     -40.448  53.114 -53.860  1.00  0.00     0.020 A 
HETATM   28  C   UNL     1     -40.583  54.018 -52.807  1.00  0.00     0.013 A 
ENDBRANCH  18  23
ENDBRANCH  13  14
ENDBRANCH  10  13
BRANCH   1  29
HETATM   29  C   UNL     1     -42.727  59.320 -56.258  1.00  0.00     0.276 C 
BRANCH  29  30
HETATM   30  C   UNL     1     -42.838  57.959 -56.899  1.00  0.00     0.004 A 
HETATM   31  C   UNL     1     -42.946  56.800 -56.113  1.00  0.00     0.048 A 
HETATM   32  C   UNL     1     -43.005  55.531 -56.696  1.00  0.00     0.069 A 
HETATM   33  C   UNL     1     -43.018  55.416 -58.082  1.00  0.00     0.039 A 
HETATM   34  C   UNL     1     -42.962  56.562 -58.883  1.00  0.00     0.040 A 
HETATM   35  C   UNL     1     -42.871  57.829 -58.303  1.00  0.00     0.076 A 
BRANCH  32  36
HETATM   36  O   UNL     1     -43.022  54.500 -55.801  1.00  0.00    -0.356 OA
HETATM   37  C   UNL     1     -43.721  54.713 -54.578  1.00  0.00     0.210 C 
ENDBRANCH  32  36
BRANCH  35  38
HETATM   38  O   UNL     1     -42.763  58.994 -59.016  1.00  0.00    -0.355 OA
HETATM   39  C   UNL     1     -42.361  58.895 -60.381  1.00  0.00     0.210 C 
ENDBRANCH  35  38
ENDBRANCH  29  30
ENDBRANCH   1  29
TORSDOF 8
ENDMDL
MODEL 6
REMARK VINA RESULT:      -8.0      3.751      7.165
REMARK  8 active torsions:
REMARK  status: ('A' for Active; 'I' for Inactive)
REMARK    1  A    between atoms: O_2  and  C_3 
REMARK    2  A    between atoms: C_5  and  C_6 
REMARK    3  A    between atoms: C_6  and  N_7 
REMARK    4  A    between atoms: C_16  and  C_17 
REMARK    5  A    between atoms: C_17  and  N_18 
REMARK    6  A    between atoms: C_22  and  O_23 
REMARK    7  A    between atoms: C_22  and  C_24 
REMARK    8  A    between atoms: C_34  and  O_35 
ROOT
HETATM    1  N   UNL     1     -41.476  56.549 -52.385  1.00  0.00    -0.061 N 
HETATM    2  H   UNL     1     -40.547  56.355 -51.997  1.00  0.00     0.280 HD
HETATM    3  C   UNL     1     -41.210  57.320 -53.657  1.00  0.00     0.276 C 
HETATM    4  C   UNL     1     -42.405  57.532 -54.537  1.00  0.00     0.002 A 
HETATM    5  C   UNL     1     -43.476  58.297 -54.078  1.00  0.00     0.076 A 
HETATM    6  O   UNL     1     -43.427  58.900 -52.854  1.00  0.00    -0.349 OA
HETATM    7  C   UNL     1     -43.543  57.951 -51.785  1.00  0.00     0.203 C 
HETATM    8  C   UNL     1     -42.174  57.413 -51.335  1.00  0.00     0.262 C 
HETATM    9  C   UNL     1     -42.468  56.984 -55.832  1.00  0.00     0.020 A 
HETATM   10  C   UNL     1     -43.594  57.178 -56.653  1.00  0.00    -0.032 A 
HETATM   11  C   UNL     1     -44.653  57.953 -56.160  1.00  0.00     0.011 A 
HETATM   12  C   UNL     1     -44.585  58.527 -54.887  1.00  0.00     0.038 A 
ENDROOT
BRANCH  10  13
HETATM   13  C   UNL     1     -43.658  56.555 -58.029  1.00  0.00     0.273 C 
BRANCH  13  14
HETATM   14  N   UNL     1     -43.421  57.486 -59.205  1.00  0.00    -0.067 N 
HETATM   15  H   UNL     1     -43.545  56.887 -60.034  1.00  0.00     0.280 HD
HETATM   16  C   UNL     1     -44.463  58.569 -59.326  1.00  0.00     0.238 C 
HETATM   17  C   UNL     1     -44.240  59.364 -60.606  1.00  0.00     0.071 C 
HETATM   18  C   UNL     1     -42.821  59.964 -60.698  1.00  0.00     0.089 C 
HETATM   19  C   UNL     1     -41.831  58.786 -60.577  1.00  0.00     0.071 C 
HETATM   20  C   UNL     1     -42.014  58.024 -59.276  1.00  0.00     0.238 C 
BRANCH  18  21
HETATM   21  O   UNL     1     -42.685  60.460 -62.032  1.00  0.00    -0.385 OA
HETATM   22  H   UNL     1     -41.932  61.080 -62.086  1.00  0.00     0.211 HD
ENDBRANCH  18  21
BRANCH  18  23
HETATM   23  C   UNL     1     -42.512  61.103 -59.733  1.00  0.00    -0.006 A 
HETATM   24  C   UNL     1     -43.499  61.861 -59.103  1.00  0.00     0.126 A 
HETATM   25  N   UNL     1     -43.263  62.832 -58.195  1.00  0.00    -0.272 NA
HETATM   26  C   UNL     1     -41.977  63.143 -57.943  1.00  0.00     0.116 A 
HETATM   27  C   UNL     1     -40.914  62.506 -58.551  1.00  0.00     0.020 A 
HETATM   28  C   UNL     1     -41.188  61.479 -59.454  1.00  0.00     0.013 A 
ENDBRANCH  18  23
ENDBRANCH  13  14
ENDBRANCH  10  13
BRANCH   1  29
HETATM   29  C   UNL     1     -42.131  55.178 -52.528  1.00  0.00     0.276 C 
BRANCH  29  30
HETATM   30  C   UNL     1     -41.230  53.972 -52.424  1.00  0.00     0.004 A 
HETATM   31  C   UNL     1     -40.982  53.161 -53.544  1.00  0.00     0.048 A 
HETATM   32  C   UNL     1     -40.185  52.017 -53.448  1.00  0.00     0.069 A 
HETATM   33  C   UNL     1     -39.576  51.708 -52.236  1.00  0.00     0.039 A 
HETATM   34  C   UNL     1     -39.770  52.532 -51.121  1.00  0.00     0.040 A 
HETATM   35  C   UNL     1     -40.592  53.658 -51.206  1.00  0.00     0.076 A 
BRANCH  32  36
HETATM   36  O   UNL     1     -40.107  51.287 -54.599  1.00  0.00    -0.356 OA
HETATM   37  C   UNL     1     -39.820  49.897 -54.468  1.00  0.00     0.210 C 
ENDBRANCH  32  36
BRANCH  35  38
HETATM   38  O   UNL     1     -40.871  54.486 -50.151  1.00  0.00    -0.355 OA
HETATM   39  C   UNL     1     -40.392  54.097 -48.865  1.00  0.00     0.210 C 
ENDBRANCH  35  38
ENDBRANCH  29  30
ENDBRANCH   1  29
TORSDOF 8
ENDMDL
MODEL 7
REMARK VINA RESULT:      -8.0      0.768      2.251
REMARK  8 active torsions:
REMARK  status: ('A' for Active; 'I' for Inactive)
REMARK    1  A    between atoms: O_2  and  C_3 
REMARK    2  A    between atoms: C_5  and  C_6 
REMARK    3  A    between atoms: C_6  and  N_7 
REMARK    4  A    between atoms: C_16  and  C_17 
REMARK    5  A    between atoms: C_17  and  N_18 
REMARK    6  A    between atoms: C_22  and  O_23 
REMARK    7  A    between atoms: C_22  and  C_24 
REMARK    8  A    between atoms: C_34  and  O_35 
ROOT
HETATM    1  N   UNL     1     -42.735  54.504 -54.533  1.00  0.00    -0.061 N 
HETATM    2  H   UNL     1     -43.055  53.600 -54.170  1.00  0.00     0.280 HD
HETATM    3  C   UNL     1     -43.625  55.525 -53.864  1.00  0.00     0.276 C 
HETATM    4  C   UNL     1     -43.213  56.954 -54.056  1.00  0.00     0.002 A 
HETATM    5  C   UNL     1     -43.219  57.512 -55.333  1.00  0.00     0.076 A 
HETATM    6  O   UNL     1     -43.648  56.785 -56.408  1.00  0.00    -0.349 OA
HETATM    7  C   UNL     1     -42.709  55.764 -56.771  1.00  0.00     0.203 C 
HETATM    8  C   UNL     1     -42.982  54.438 -56.040  1.00  0.00     0.262 C 
HETATM    9  C   UNL     1     -42.828  57.758 -52.966  1.00  0.00     0.020 A 
HETATM   10  C   UNL     1     -42.434  59.096 -53.150  1.00  0.00    -0.032 A 
HETATM   11  C   UNL     1     -42.454  59.625 -54.448  1.00  0.00     0.011 A 
HETATM   12  C   UNL     1     -42.864  58.842 -55.531  1.00  0.00     0.038 A 
ENDROOT
BRANCH  10  13
HETATM   13  C   UNL     1     -41.994  59.936 -51.973  1.00  0.00     0.273 C 
BRANCH  13  14
HETATM   14  N   UNL     1     -42.900  61.092 -51.588  1.00  0.00    -0.067 N 
HETATM   15  H   UNL     1     -42.804  61.761 -52.365  1.00  0.00     0.280 HD
HETATM   16  C   UNL     1     -44.361  60.717 -51.554  1.00  0.00     0.238 C 
HETATM   17  C   UNL     1     -45.210  61.957 -51.308  1.00  0.00     0.071 C 
HETATM   18  C   UNL     1     -44.813  62.709 -50.020  1.00  0.00     0.089 C 
HETATM   19  C   UNL     1     -43.315  63.058 -50.153  1.00  0.00     0.071 C 
HETATM   20  C   UNL     1     -42.459  61.819 -50.344  1.00  0.00     0.238 C 
BRANCH  18  21
HETATM   21  O   UNL     1     -45.515  63.953 -50.054  1.00  0.00    -0.385 OA
HETATM   22  H   UNL     1     -45.239  64.475 -50.832  1.00  0.00     0.211 HD
ENDBRANCH  18  21
BRANCH  18  23
HETATM   23  C   UNL     1     -45.147  62.009 -48.708  1.00  0.00    -0.006 A 
HETATM   24  C   UNL     1     -45.768  60.762 -48.642  1.00  0.00     0.126 A 
HETATM   25  N   UNL     1     -46.020  60.086 -47.501  1.00  0.00    -0.272 NA
HETATM   26  C   UNL     1     -45.722  60.699 -46.340  1.00  0.00     0.116 A 
HETATM   27  C   UNL     1     -45.161  61.959 -46.275  1.00  0.00     0.020 A 
HETATM   28  C   UNL     1     -44.875  62.617 -47.471  1.00  0.00     0.013 A 
ENDBRANCH  18  23
ENDBRANCH  13  14
ENDBRANCH  10  13
BRANCH   1  29
HETATM   29  C   UNL     1     -41.247  54.552 -54.196  1.00  0.00     0.276 C 
BRANCH  29  30
HETATM   30  C   UNL     1     -40.808  53.869 -52.925  1.00  0.00     0.004 A 
HETATM   31  C   UNL     1     -40.970  54.496 -51.679  1.00  0.00     0.048 A 
HETATM   32  C   UNL     1     -40.527  53.891 -50.499  1.00  0.00     0.069 A 
HETATM   33  C   UNL     1     -39.968  52.618 -50.553  1.00  0.00     0.039 A 
HETATM   34  C   UNL     1     -39.844  51.956 -51.779  1.00  0.00     0.040 A 
HETATM   35  C   UNL     1     -40.257  52.571 -52.963  1.00  0.00     0.076 A 
BRANCH  32  36
HETATM   36  O   UNL     1     -40.678  54.659 -49.381  1.00  0.00    -0.356 OA
HETATM   37  C   UNL     1     -40.408  54.039 -48.126  1.00  0.00     0.210 C 
ENDBRANCH  32  36
BRANCH  35  38
HETATM   38  O   UNL     1     -40.125  52.012 -54.206  1.00  0.00    -0.355 OA
HETATM   39  C   UNL     1     -40.125  50.587 -54.289  1.00  0.00     0.210 C 
ENDBRANCH  35  38
ENDBRANCH  29  30
ENDBRANCH   1  29
TORSDOF 8
ENDMDL
MODEL 8
REMARK VINA RESULT:      -7.9      4.820      9.137
REMARK  8 active torsions:
REMARK  status: ('A' for Active; 'I' for Inactive)
REMARK    1  A    between atoms: O_2  and  C_3 
REMARK    2  A    between atoms: C_5  and  C_6 
REMARK    3  A    between atoms: C_6  and  N_7 
REMARK    4  A    between atoms: C_16  and  C_17 
REMARK    5  A    between atoms: C_17  and  N_18 
REMARK    6  A    between atoms: C_22  and  O_23 
REMARK    7  A    between atoms: C_22  and  C_24 
REMARK    8  A    between atoms: C_34  and  O_35 
ROOT
HETATM    1  N   UNL     1     -46.362  60.598 -58.876  1.00  0.00    -0.061 N 
HETATM    2  H   UNL     1     -47.332  60.396 -59.139  1.00  0.00     0.280 HD
HETATM    3  C   UNL     1     -46.202  60.004 -57.497  1.00  0.00     0.276 C 
HETATM    4  C   UNL     1     -44.797  59.968 -56.975  1.00  0.00     0.002 A 
HETATM    5  C   UNL     1     -44.114  61.160 -56.743  1.00  0.00     0.076 A 
HETATM    6  O   UNL     1     -44.729  62.365 -56.935  1.00  0.00    -0.349 OA
HETATM    7  C   UNL     1     -44.920  62.651 -58.327  1.00  0.00     0.203 C 
HETATM    8  C   UNL     1     -46.266  62.123 -58.850  1.00  0.00     0.262 C 
HETATM    9  C   UNL     1     -44.149  58.750 -56.700  1.00  0.00     0.020 A 
HETATM   10  C   UNL     1     -42.827  58.718 -56.219  1.00  0.00    -0.032 A 
HETATM   11  C   UNL     1     -42.170  59.936 -55.995  1.00  0.00     0.011 A 
HETATM   12  C   UNL     1     -42.818  61.152 -56.236  1.00  0.00     0.038 A 
ENDROOT
BRANCH  10  13
HETATM   13  C   UNL     1     -42.135  57.400 -55.959  1.00  0.00     0.273 C 
BRANCH  13  14
HETATM   14  N   UNL     1     -42.677  56.564 -54.813  1.00  0.00    -0.067 N 
HETATM   15  H   UNL     1     -43.534  57.057 -54.522  1.00  0.00     0.280 HD
HETATM   16  C   UNL     1     -43.123  55.188 -55.238  1.00  0.00     0.238 C 
HETATM   17  C   UNL     1     -43.787  54.472 -54.069  1.00  0.00     0.071 C 
HETATM   18  C   UNL     1     -42.877  54.387 -52.824  1.00  0.00     0.089 C 
HETATM   19  C   UNL     1     -42.485  55.836 -52.461  1.00  0.00     0.071 C 
HETATM   20  C   UNL     1     -41.774  56.534 -53.606  1.00  0.00     0.238 C 
BRANCH  18  21
HETATM   21  O   UNL     1     -43.706  53.921 -51.758  1.00  0.00    -0.385 OA
HETATM   22  H   UNL     1     -44.157  53.095 -52.017  1.00  0.00     0.211 HD
ENDBRANCH  18  21
BRANCH  18  23
HETATM   23  C   UNL     1     -41.676  53.455 -52.937  1.00  0.00    -0.006 A 
HETATM   24  C   UNL     1     -40.789  53.220 -51.888  1.00  0.00     0.126 A 
HETATM   25  N   UNL     1     -39.754  52.354 -51.932  1.00  0.00    -0.272 NA
HETATM   26  C   UNL     1     -39.517  51.734 -53.104  1.00  0.00     0.116 A 
HETATM   27  C   UNL     1     -40.289  51.932 -54.231  1.00  0.00     0.020 A 
HETATM   28  C   UNL     1     -41.375  52.803 -54.143  1.00  0.00     0.013 A 
ENDBRANCH  18  23
ENDBRANCH  13  14
ENDBRANCH  10  13
BRANCH   1  29
HETATM   29  C   UNL     1     -45.523  59.990 -59.996  1.00  0.00     0.276 C 
BRANCH  29  30
HETATM   30  C   UNL     1     -45.703  58.517 -60.267  1.00  0.00     0.004 A 
HETATM   31  C   UNL     1     -44.621  57.628 -60.159  1.00  0.00     0.048 A 
HETATM   32  C   UNL     1     -44.767  56.269 -60.450  1.00  0.00     0.069 A 
HETATM   33  C   UNL     1     -46.021  55.775 -60.796  1.00  0.00     0.039 A 
HETATM   34  C   UNL     1     -47.122  56.636 -60.861  1.00  0.00     0.040 A 
HETATM   35  C   UNL     1     -46.972  58.000 -60.601  1.00  0.00     0.076 A 
BRANCH  32  36
HETATM   36  O   UNL     1     -43.608  55.550 -60.382  1.00  0.00    -0.356 OA
HETATM   37  C   UNL     1     -42.541  56.110 -59.622  1.00  0.00     0.210 C 
ENDBRANCH  32  36
BRANCH  35  38
HETATM   38  O   UNL     1     -47.988  58.915 -60.689  1.00  0.00    -0.355 OA
HETATM   39  C   UNL     1     -48.596  59.099 -61.967  1.00  0.00     0.210 C 
ENDBRANCH  35  38
ENDBRANCH  29  30
ENDBRANCH   1  29
TORSDOF 8
ENDMDL
MODEL 9
REMARK VINA RESULT:      -7.8      1.391      2.633
REMARK  8 active torsions:
REMARK  status: ('A' for Active; 'I' for Inactive)
REMARK    1  A    between atoms: O_2  and  C_3 
REMARK    2  A    between atoms: C_5  and  C_6 
REMARK    3  A    between atoms: C_6  and  N_7 
REMARK    4  A    between atoms: C_16  and  C_17 
REMARK    5  A    between atoms: C_17  and  N_18 
REMARK    6  A    between atoms: C_22  and  O_23 
REMARK    7  A    between atoms: C_22  and  C_24 
REMARK    8  A    between atoms: C_34  and  O_35 
ROOT
HETATM    1  N   UNL     1     -42.554  54.447 -54.220  1.00  0.00    -0.061 N 
HETATM    2  H   UNL     1     -42.858  53.494 -53.995  1.00  0.00     0.280 HD
HETATM    3  C   UNL     1     -43.504  55.344 -53.460  1.00  0.00     0.276 C 
HETATM    4  C   UNL     1     -43.133  56.797 -53.443  1.00  0.00     0.002 A 
HETATM    5  C   UNL     1     -43.107  57.520 -54.633  1.00  0.00     0.076 A 
HETATM    6  O   UNL     1     -43.468  56.933 -55.813  1.00  0.00    -0.349 OA
HETATM    7  C   UNL     1     -42.482  55.996 -56.267  1.00  0.00     0.203 C 
HETATM    8  C   UNL     1     -42.739  54.577 -55.731  1.00  0.00     0.262 C 
HETATM    9  C   UNL     1     -42.818  57.457 -52.240  1.00  0.00     0.020 A 
HETATM   10  C   UNL     1     -42.462  58.818 -52.226  1.00  0.00    -0.032 A 
HETATM   11  C   UNL     1     -42.448  59.516 -53.442  1.00  0.00     0.011 A 
HETATM   12  C   UNL     1     -42.789  58.875 -54.637  1.00  0.00     0.038 A 
ENDROOT
BRANCH  10  13
HETATM   13  C   UNL     1     -42.096  59.504 -50.930  1.00  0.00     0.273 C 
BRANCH  13  14
HETATM   14  N   UNL     1     -43.191  60.320 -50.264  1.00  0.00    -0.067 N 
HETATM   15  H   UNL     1     -43.057  60.152 -49.256  1.00  0.00     0.280 HD
HETATM   16  C   UNL     1     -43.025  61.807 -50.454  1.00  0.00     0.238 C 
HETATM   17  C   UNL     1     -44.070  62.555 -49.637  1.00  0.00     0.071 C 
HETATM   18  C   UNL     1     -45.513  62.123 -49.972  1.00  0.00     0.089 C 
HETATM   19  C   UNL     1     -45.588  60.599 -49.738  1.00  0.00     0.071 C 
HETATM   20  C   UNL     1     -44.584  59.845 -50.592  1.00  0.00     0.238 C 
BRANCH  18  21
HETATM   21  O   UNL     1     -46.348  62.719 -48.977  1.00  0.00    -0.385 OA
HETATM   22  H   UNL     1     -47.124  63.139 -49.394  1.00  0.00     0.211 HD
ENDBRANCH  18  21
BRANCH  18  23
HETATM   23  C   UNL     1     -46.034  62.541 -51.343  1.00  0.00    -0.006 A 
HETATM   24  C   UNL     1     -47.015  61.834 -52.038  1.00  0.00     0.126 A 
HETATM   25  N   UNL     1     -47.544  62.210 -53.221  1.00  0.00    -0.272 NA
HETATM   26  C   UNL     1     -47.027  63.306 -53.810  1.00  0.00     0.116 A 
HETATM   27  C   UNL     1     -46.012  64.054 -53.249  1.00  0.00     0.020 A 
HETATM   28  C   UNL     1     -45.512  63.664 -52.006  1.00  0.00     0.013 A 
ENDBRANCH  18  23
ENDBRANCH  13  14
ENDBRANCH  10  13
BRANCH   1  29
HETATM   29  C   UNL     1     -41.084  54.491 -53.815  1.00  0.00     0.276 C 
BRANCH  29  30
HETATM   30  C   UNL     1     -40.585  53.387 -52.916  1.00  0.00     0.004 A 
HETATM   31  C   UNL     1     -40.176  52.154 -53.450  1.00  0.00     0.048 A 
HETATM   32  C   UNL     1     -39.753  51.110 -52.621  1.00  0.00     0.069 A 
HETATM   33  C   UNL     1     -39.679  51.315 -51.248  1.00  0.00     0.039 A 
HETATM   34  C   UNL     1     -40.034  52.553 -50.701  1.00  0.00     0.040 A 
HETATM   35  C   UNL     1     -40.487  53.588 -51.523  1.00  0.00     0.076 A 
BRANCH  32  36
HETATM   36  O   UNL     1     -39.470  49.948 -53.280  1.00  0.00    -0.356 OA
HETATM   37  C   UNL     1     -39.794  49.892 -54.667  1.00  0.00     0.210 C 
ENDBRANCH  32  36
BRANCH  35  38
HETATM   38  O   UNL     1     -40.898  54.810 -51.063  1.00  0.00    -0.355 OA
HETATM   39  C   UNL     1     -41.669  54.835 -49.863  1.00  0.00     0.210 C 
ENDBRANCH  35  38
ENDBRANCH  29  30
ENDBRANCH   1  29
TORSDOF 8
ENDMDL
MODEL 10
REMARK VINA RESULT:      -7.8      3.447      7.813
REMARK  8 active torsions:
REMARK  status: ('A' for Active; 'I' for Inactive)
REMARK    1  A    between atoms: O_2  and  C_3 
REMARK    2  A    between atoms: C_5  and  C_6 
REMARK    3  A    between atoms: C_6  and  N_7 
REMARK    4  A    between atoms: C_16  and  C_17 
REMARK    5  A    between atoms: C_17  and  N_18 
REMARK    6  A    between atoms: C_22  and  O_23 
REMARK    7  A    between atoms: C_22  and  C_24 
REMARK    8  A    between atoms: C_34  and  O_35 
ROOT
HETATM    1  N   UNL     1     -40.757  58.317 -51.208  1.00  0.00    -0.061 N 
HETATM    2  H   UNL     1     -39.799  57.951 -51.247  1.00  0.00     0.280 HD
HETATM    3  C   UNL     1     -41.029  58.837 -52.600  1.00  0.00     0.276 C 
HETATM    4  C   UNL     1     -42.453  59.223 -52.869  1.00  0.00     0.002 A 
HETATM    5  C   UNL     1     -43.031  60.276 -52.162  1.00  0.00     0.076 A 
HETATM    6  O   UNL     1     -42.297  60.996 -51.262  1.00  0.00    -0.349 OA
HETATM    7  C   UNL     1     -42.022  60.242 -50.073  1.00  0.00     0.203 C 
HETATM    8  C   UNL     1     -40.710  59.447 -50.180  1.00  0.00     0.262 C 
HETATM    9  C   UNL     1     -43.223  58.551 -53.836  1.00  0.00     0.020 A 
HETATM   10  C   UNL     1     -44.561  58.911 -54.082  1.00  0.00    -0.032 A 
HETATM   11  C   UNL     1     -45.110  59.975 -53.353  1.00  0.00     0.011 A 
HETATM   12  C   UNL     1     -44.342  60.668 -52.413  1.00  0.00     0.038 A 
ENDROOT
BRANCH  10  13
HETATM   13  C   UNL     1     -45.385  58.158 -55.102  1.00  0.00     0.273 C 
BRANCH  13  14
HETATM   14  N   UNL     1     -45.502  58.790 -56.477  1.00  0.00    -0.067 N 
HETATM   15  H   UNL     1     -45.673  59.788 -56.286  1.00  0.00     0.280 HD
HETATM   16  C   UNL     1     -44.218  58.741 -57.267  1.00  0.00     0.238 C 
HETATM   17  C   UNL     1     -44.376  59.522 -58.565  1.00  0.00     0.071 C 
HETATM   18  C   UNL     1     -45.559  59.024 -59.423  1.00  0.00     0.089 C 
HETATM   19  C   UNL     1     -46.821  59.122 -58.539  1.00  0.00     0.071 C 
HETATM   20  C   UNL     1     -46.689  58.301 -57.269  1.00  0.00     0.238 C 
BRANCH  18  21
HETATM   21  O   UNL     1     -45.728  59.988 -60.464  1.00  0.00    -0.385 OA
HETATM   22  H   UNL     1     -45.275  59.691 -61.276  1.00  0.00     0.211 HD
ENDBRANCH  18  21
BRANCH  18  23
HETATM   23  C   UNL     1     -45.388  57.653 -60.066  1.00  0.00    -0.006 A 
HETATM   24  C   UNL     1     -44.145  57.106 -60.382  1.00  0.00     0.126 A 
HETATM   25  N   UNL     1     -43.953  55.870 -60.892  1.00  0.00    -0.272 NA
HETATM   26  C   UNL     1     -45.049  55.148 -61.192  1.00  0.00     0.116 A 
HETATM   27  C   UNL     1     -46.334  55.608 -60.983  1.00  0.00     0.020 A 
HETATM   28  C   UNL     1     -46.500  56.872 -60.417  1.00  0.00     0.013 A 
ENDBRANCH  18  23
ENDBRANCH  13  14
ENDBRANCH  10  13
BRANCH   1  29
HETATM   29  C   UNL     1     -41.601  57.140 -50.728  1.00  0.00     0.276 C 
BRANCH  29  30
HETATM   30  C   UNL     1     -41.240  55.774 -51.259  1.00  0.00     0.004 A 
HETATM   31  C   UNL     1     -41.227  55.520 -52.640  1.00  0.00     0.048 A 
HETATM   32  C   UNL     1     -40.937  54.247 -53.140  1.00  0.00     0.069 A 
HETATM   33  C   UNL     1     -40.597  53.227 -52.257  1.00  0.00     0.039 A 
HETATM   34  C   UNL     1     -40.556  53.474 -50.881  1.00  0.00     0.040 A 
HETATM   35  C   UNL     1     -40.875  54.736 -50.376  1.00  0.00     0.076 A 
BRANCH  32  36
HETATM   36  O   UNL     1     -41.047  54.136 -54.497  1.00  0.00    -0.356 OA
HETATM   37  C   UNL     1     -42.363  54.096 -55.041  1.00  0.00     0.210 C 
ENDBRANCH  32  36
BRANCH  35  38
HETATM   38  O   UNL     1     -40.906  55.045 -49.042  1.00  0.00    -0.355 OA
HETATM   39  C   UNL     1     -40.388  54.076 -48.131  1.00  0.00     0.210 C 
ENDBRANCH  35  38
ENDBRANCH  29  30
ENDBRANCH   1  29
TORSDOF 8
ENDMDL
