MODEL 1
REMARK VINA RESULT:      -7.9      0.000      0.000
REMARK  5 active torsions:
REMARK  status: ('A' for Active; 'I' for Inactive)
REMARK    1  A    between atoms: O_2  and  C_3 
REMARK    2  A    between atoms: C_16  and  C_17 
REMARK    3  A    between atoms: C_19  and  O_20 
REMARK    4  A    between atoms: C_22  and  O_23 
REMARK    5  A    between atoms: O_23  and  C_24 
ROOT
HETATM    1  C   UNL     1     -39.858  51.222 -52.822  1.00  0.00     0.069 A 
HETATM    2  C   UNL     1     -40.245  52.149 -51.845  1.00  0.00     0.051 A 
HETATM    3  C   UNL     1     -40.571  53.466 -52.216  1.00  0.00     0.002 A 
HETATM    4  C   UNL     1     -40.492  53.821 -53.563  1.00  0.00     0.043 A 
HETATM    5  N   UNL     1     -40.854  55.146 -53.670  1.00  0.00    -0.356 N 
HETATM    6  H   UNL     1     -40.890  55.652 -54.549  1.00  0.00     0.166 HD
HETATM    7  C   UNL     1     -41.200  55.629 -52.434  1.00  0.00     0.052 A 
HETATM    8  C   UNL     1     -41.004  54.619 -51.511  1.00  0.00    -0.019 A 
HETATM    9  C   UNL     1     -41.267  54.812 -50.055  1.00  0.00     0.069 C 
HETATM   10  C   UNL     1     -41.362  56.313 -49.723  1.00  0.00     0.238 C 
HETATM   11  N   UNL     1     -42.224  57.032 -50.730  1.00  0.00    -0.061 N 
HETATM   12  H   UNL     1     -43.151  56.593 -50.754  1.00  0.00     0.278 HD
HETATM   13  H   UNL     1     -42.376  58.008 -50.454  1.00  0.00     0.278 HD
HETATM   14  C   UNL     1     -41.680  57.010 -52.137  1.00  0.00     0.269 C 
HETATM   15  C   UNL     1     -40.102  52.915 -54.555  1.00  0.00     0.033 A 
HETATM   16  C   UNL     1     -39.788  51.607 -54.160  1.00  0.00     0.039 A 
ENDROOT
BRANCH  14  17
HETATM   17  C   UNL     1     -42.727  57.529 -53.101  1.00  0.00    -0.019 A 
HETATM   18  C   UNL     1     -42.511  58.697 -53.858  1.00  0.00     0.049 A 
HETATM   19  C   UNL     1     -43.478  59.159 -54.757  1.00  0.00     0.102 A 
HETATM   20  C   UNL     1     -44.672  58.438 -54.935  1.00  0.00     0.102 A 
HETATM   21  C   UNL     1     -44.879  57.266 -54.207  1.00  0.00     0.040 A 
HETATM   22  C   UNL     1     -43.918  56.816 -53.295  1.00  0.00     0.012 A 
BRANCH  19  23
HETATM   23  O   UNL     1     -43.318  60.282 -55.527  1.00  0.00    -0.353 OA
HETATM   24  C   UNL     1     -42.238  60.288 -56.452  1.00  0.00     0.210 C 
ENDBRANCH  19  23
BRANCH  20  25
HETATM   25  O   UNL     1     -45.553  58.955 -55.845  1.00  0.00    -0.343 OA
BRANCH  25  26
HETATM   26  C   UNL     1     -46.001  58.144 -56.926  1.00  0.00     0.129 C 
HETATM   27  C   UNL     1     -47.072  58.827 -57.778  1.00  0.00     0.032 C 
HETATM   28  C   UNL     1     -46.916  58.159 -59.131  1.00  0.00     0.002 C 
HETATM   29  C   UNL     1     -45.409  58.080 -59.310  1.00  0.00     0.002 C 
HETATM   30  C   UNL     1     -44.833  57.932 -57.902  1.00  0.00     0.032 C 
ENDBRANCH  25  26
ENDBRANCH  20  25
ENDBRANCH  14  17
BRANCH   1  31
HETATM   31  O   UNL     1     -39.578  49.975 -52.330  1.00  0.00    -0.356 OA
HETATM   32  C   UNL     1     -39.489  49.843 -50.915  1.00  0.00     0.210 C 
ENDBRANCH   1  31
TORSDOF 5
ENDMDL
MODEL 2
REMARK VINA RESULT:      -7.9      1.776      2.335
REMARK  5 active torsions:
REMARK  status: ('A' for Active; 'I' for Inactive)
REMARK    1  A    between atoms: O_2  and  C_3 
REMARK    2  A    between atoms: C_16  and  C_17 
REMARK    3  A    between atoms: C_19  and  O_20 
REMARK    4  A    between atoms: C_22  and  O_23 
REMARK    5  A    between atoms: O_23  and  C_24 
ROOT
HETATM    1  C   UNL     1     -40.236  52.493 -52.187  1.00  0.00     0.069 A 
HETATM    2  C   UNL     1     -40.624  53.758 -51.723  1.00  0.00     0.051 A 
HETATM    3  C   UNL     1     -40.834  54.807 -52.636  1.00  0.00     0.002 A 
HETATM    4  C   UNL     1     -40.640  54.560 -53.996  1.00  0.00     0.043 A 
HETATM    5  N   UNL     1     -40.902  55.729 -54.677  1.00  0.00    -0.356 N 
HETATM    6  H   UNL     1     -40.844  55.819 -55.685  1.00  0.00     0.166 HD
HETATM    7  C   UNL     1     -41.298  56.698 -53.790  1.00  0.00     0.052 A 
HETATM    8  C   UNL     1     -41.234  56.164 -52.517  1.00  0.00    -0.019 A 
HETATM    9  C   UNL     1     -41.581  56.959 -51.304  1.00  0.00     0.069 C 
HETATM   10  C   UNL     1     -41.597  58.463 -51.635  1.00  0.00     0.238 C 
HETATM   11  N   UNL     1     -42.337  58.721 -52.924  1.00  0.00    -0.061 N 
HETATM   12  H   UNL     1     -43.288  58.343 -52.847  1.00  0.00     0.278 HD
HETATM   13  H   UNL     1     -42.441  59.727 -53.093  1.00  0.00     0.278 HD
HETATM   14  C   UNL     1     -41.701  58.092 -54.138  1.00  0.00     0.269 C 
HETATM   15  C   UNL     1     -40.246  53.309 -54.481  1.00  0.00     0.033 A 
HETATM   16  C   UNL     1     -40.049  52.279 -53.551  1.00  0.00     0.039 A 
ENDROOT
BRANCH  14  17
HETATM   17  C   UNL     1     -42.643  58.192 -55.321  1.00  0.00    -0.019 A 
HETATM   18  C   UNL     1     -42.173  58.530 -56.605  1.00  0.00     0.049 A 
HETATM   19  C   UNL     1     -43.048  58.604 -57.694  1.00  0.00     0.102 A 
HETATM   20  C   UNL     1     -44.412  58.312 -57.519  1.00  0.00     0.102 A 
HETATM   21  C   UNL     1     -44.878  57.950 -56.254  1.00  0.00     0.040 A 
HETATM   22  C   UNL     1     -44.003  57.894 -55.163  1.00  0.00     0.012 A 
BRANCH  19  23
HETATM   23  O   UNL     1     -42.646  58.917 -58.967  1.00  0.00    -0.353 OA
HETATM   24  C   UNL     1     -41.834  57.966 -59.645  1.00  0.00     0.210 C 
ENDBRANCH  19  23
BRANCH  20  25
HETATM   25  O   UNL     1     -45.191  58.395 -58.641  1.00  0.00    -0.343 OA
BRANCH  25  26
HETATM   26  C   UNL     1     -46.003  57.287 -59.015  1.00  0.00     0.129 C 
HETATM   27  C   UNL     1     -46.996  57.626 -60.127  1.00  0.00     0.032 C 
HETATM   28  C   UNL     1     -47.242  56.285 -60.792  1.00  0.00     0.002 C 
HETATM   29  C   UNL     1     -45.854  55.667 -60.857  1.00  0.00     0.002 C 
HETATM   30  C   UNL     1     -45.106  56.205 -59.638  1.00  0.00     0.032 C 
ENDBRANCH  25  26
ENDBRANCH  20  25
ENDBRANCH  14  17
BRANCH   1  31
HETATM   31  O   UNL     1     -40.075  51.561 -51.197  1.00  0.00    -0.356 OA
HETATM   32  C   UNL     1     -39.505  50.311 -51.572  1.00  0.00     0.210 C 
ENDBRANCH   1  31
TORSDOF 5
ENDMDL
MODEL 3
REMARK VINA RESULT:      -7.9      2.856      8.238
REMARK  5 active torsions:
REMARK  status: ('A' for Active; 'I' for Inactive)
REMARK    1  A    between atoms: O_2  and  C_3 
REMARK    2  A    between atoms: C_16  and  C_17 
REMARK    3  A    between atoms: C_19  and  O_20 
REMARK    4  A    between atoms: C_22  and  O_23 
REMARK    5  A    between atoms: O_23  and  C_24 
ROOT
HETATM    1  C   UNL     1     -42.073  58.736 -60.281  1.00  0.00     0.069 A 
HETATM    2  C   UNL     1     -42.030  59.364 -59.029  1.00  0.00     0.051 A 
HETATM    3  C   UNL     1     -42.333  58.633 -57.865  1.00  0.00     0.002 A 
HETATM    4  C   UNL     1     -42.679  57.287 -57.992  1.00  0.00     0.043 A 
HETATM    5  N   UNL     1     -42.928  56.797 -56.728  1.00  0.00    -0.356 N 
HETATM    6  H   UNL     1     -43.192  55.837 -56.538  1.00  0.00     0.166 HD
HETATM    7  C   UNL     1     -42.709  57.785 -55.801  1.00  0.00     0.052 A 
HETATM    8  C   UNL     1     -42.370  58.940 -56.480  1.00  0.00    -0.019 A 
HETATM    9  C   UNL     1     -42.082  60.221 -55.772  1.00  0.00     0.069 C 
HETATM   10  C   UNL     1     -42.605  60.163 -54.325  1.00  0.00     0.238 C 
HETATM   11  N   UNL     1     -42.229  58.857 -53.671  1.00  0.00    -0.061 N 
HETATM   12  H   UNL     1     -41.210  58.744 -53.707  1.00  0.00     0.278 HD
HETATM   13  H   UNL     1     -42.483  58.858 -52.677  1.00  0.00     0.278 HD
HETATM   14  C   UNL     1     -42.839  57.641 -54.322  1.00  0.00     0.269 C 
HETATM   15  C   UNL     1     -42.735  56.641 -59.231  1.00  0.00     0.033 A 
HETATM   16  C   UNL     1     -42.423  57.391 -60.374  1.00  0.00     0.039 A 
ENDROOT
BRANCH  14  17
HETATM   17  C   UNL     1     -42.207  56.385 -53.758  1.00  0.00    -0.019 A 
HETATM   18  C   UNL     1     -42.809  55.671 -52.705  1.00  0.00     0.049 A 
HETATM   19  C   UNL     1     -42.225  54.503 -52.202  1.00  0.00     0.102 A 
HETATM   20  C   UNL     1     -41.035  54.013 -52.769  1.00  0.00     0.102 A 
HETATM   21  C   UNL     1     -40.449  54.703 -53.831  1.00  0.00     0.040 A 
HETATM   22  C   UNL     1     -41.026  55.880 -54.320  1.00  0.00     0.012 A 
BRANCH  19  23
HETATM   23  O   UNL     1     -42.772  53.762 -51.186  1.00  0.00    -0.353 OA
HETATM   24  C   UNL     1     -44.054  54.155 -50.711  1.00  0.00     0.210 C 
ENDBRANCH  19  23
BRANCH  20  25
HETATM   25  O   UNL     1     -40.544  52.858 -52.225  1.00  0.00    -0.343 OA
BRANCH  25  26
HETATM   26  C   UNL     1     -39.809  51.954 -53.043  1.00  0.00     0.129 C 
HETATM   27  C   UNL     1     -39.515  50.626 -52.346  1.00  0.00     0.032 C 
HETATM   28  C   UNL     1     -39.363  49.655 -53.501  1.00  0.00     0.002 C 
HETATM   29  C   UNL     1     -40.489  50.052 -54.442  1.00  0.00     0.002 C 
HETATM   30  C   UNL     1     -40.680  51.555 -54.246  1.00  0.00     0.032 C 
ENDBRANCH  25  26
ENDBRANCH  20  25
ENDBRANCH  14  17
BRANCH   1  31
HETATM   31  O   UNL     1     -41.749  59.556 -61.328  1.00  0.00    -0.356 OA
HETATM   32  C   UNL     1     -41.661  60.951 -61.056  1.00  0.00     0.210 C 
ENDBRANCH   1  31
TORSDOF 5
ENDMDL
MODEL 4
REMARK VINA RESULT:      -7.9      3.530      5.506
REMARK  5 active torsions:
REMARK  status: ('A' for Active; 'I' for Inactive)
REMARK    1  A    between atoms: O_2  and  C_3 
REMARK    2  A    between atoms: C_16  and  C_17 
REMARK    3  A    between atoms: C_19  and  O_20 
REMARK    4  A    between atoms: C_22  and  O_23 
REMARK    5  A    between atoms: O_23  and  C_24 
ROOT
HETATM    1  C   UNL     1     -39.760  51.841 -53.095  1.00  0.00     0.069 A 
HETATM    2  C   UNL     1     -40.375  52.663 -54.050  1.00  0.00     0.051 A 
HETATM    3  C   UNL     1     -41.249  53.686 -53.639  1.00  0.00     0.002 A 
HETATM    4  C   UNL     1     -41.490  53.852 -52.275  1.00  0.00     0.043 A 
HETATM    5  N   UNL     1     -42.370  54.903 -52.129  1.00  0.00    -0.356 N 
HETATM    6  H   UNL     1     -42.703  55.238 -51.232  1.00  0.00     0.166 HD
HETATM    7  C   UNL     1     -42.659  55.433 -53.361  1.00  0.00     0.052 A 
HETATM    8  C   UNL     1     -42.004  54.679 -54.316  1.00  0.00    -0.019 A 
HETATM    9  C   UNL     1     -42.118  54.972 -55.774  1.00  0.00     0.069 C 
HETATM   10  C   UNL     1     -43.323  55.892 -56.043  1.00  0.00     0.238 C 
HETATM   11  N   UNL     1     -43.358  57.032 -55.056  1.00  0.00    -0.061 N 
HETATM   12  H   UNL     1     -42.472  57.548 -55.106  1.00  0.00     0.278 HD
HETATM   13  H   UNL     1     -44.095  57.703 -55.296  1.00  0.00     0.278 HD
HETATM   14  C   UNL     1     -43.547  56.603 -53.623  1.00  0.00     0.269 C 
HETATM   15  C   UNL     1     -40.894  53.041 -51.304  1.00  0.00     0.033 A 
HETATM   16  C   UNL     1     -40.022  52.032 -51.740  1.00  0.00     0.039 A 
ENDROOT
BRANCH  14  17
HETATM   17  C   UNL     1     -43.316  57.782 -52.699  1.00  0.00    -0.019 A 
HETATM   18  C   UNL     1     -42.029  58.320 -52.506  1.00  0.00     0.049 A 
HETATM   19  C   UNL     1     -41.829  59.418 -51.663  1.00  0.00     0.102 A 
HETATM   20  C   UNL     1     -42.925  60.017 -51.018  1.00  0.00     0.102 A 
HETATM   21  C   UNL     1     -44.206  59.504 -51.227  1.00  0.00     0.040 A 
HETATM   22  C   UNL     1     -44.401  58.394 -52.056  1.00  0.00     0.012 A 
BRANCH  19  23
HETATM   23  O   UNL     1     -40.601  59.991 -51.446  1.00  0.00    -0.353 OA
HETATM   24  C   UNL     1     -39.608  59.183 -50.827  1.00  0.00     0.210 C 
ENDBRANCH  19  23
BRANCH  20  25
HETATM   25  O   UNL     1     -42.638  61.095 -50.225  1.00  0.00    -0.343 OA
BRANCH  25  26
HETATM   26  C   UNL     1     -43.545  62.191 -50.176  1.00  0.00     0.129 C 
HETATM   27  C   UNL     1     -44.319  62.264 -48.860  1.00  0.00     0.032 C 
HETATM   28  C   UNL     1     -44.667  63.736 -48.743  1.00  0.00     0.002 C 
HETATM   29  C   UNL     1     -43.388  64.432 -49.181  1.00  0.00     0.002 C 
HETATM   30  C   UNL     1     -42.740  63.500 -50.204  1.00  0.00     0.032 C 
ENDBRANCH  25  26
ENDBRANCH  20  25
ENDBRANCH  14  17
BRANCH   1  31
HETATM   31  O   UNL     1     -38.927  50.894 -53.626  1.00  0.00    -0.356 OA
HETATM   32  C   UNL     1     -39.527  49.876 -54.421  1.00  0.00     0.210 C 
ENDBRANCH   1  31
TORSDOF 5
ENDMDL
MODEL 5
REMARK VINA RESULT:      -7.5      4.564      9.192
REMARK  5 active torsions:
REMARK  status: ('A' for Active; 'I' for Inactive)
REMARK    1  A    between atoms: O_2  and  C_3 
REMARK    2  A    between atoms: C_16  and  C_17 
REMARK    3  A    between atoms: C_19  and  O_20 
REMARK    4  A    between atoms: C_22  and  O_23 
REMARK    5  A    between atoms: O_23  and  C_24 
ROOT
HETATM    1  C   UNL     1     -46.819  62.793 -48.506  1.00  0.00     0.069 A 
HETATM    2  C   UNL     1     -46.222  62.787 -49.774  1.00  0.00     0.051 A 
HETATM    3  C   UNL     1     -45.110  61.962 -50.024  1.00  0.00     0.002 A 
HETATM    4  C   UNL     1     -44.621  61.166 -48.987  1.00  0.00     0.043 A 
HETATM    5  N   UNL     1     -43.542  60.460 -49.473  1.00  0.00    -0.356 N 
HETATM    6  H   UNL     1     -43.007  59.797 -48.922  1.00  0.00     0.166 HD
HETATM    7  C   UNL     1     -43.361  60.754 -50.801  1.00  0.00     0.052 A 
HETATM    8  C   UNL     1     -44.298  61.705 -51.159  1.00  0.00    -0.019 A 
HETATM    9  C   UNL     1     -44.371  62.267 -52.539  1.00  0.00     0.069 C 
HETATM   10  C   UNL     1     -43.071  61.968 -53.308  1.00  0.00     0.238 C 
HETATM   11  N   UNL     1     -42.653  60.531 -53.118  1.00  0.00    -0.061 N 
HETATM   12  H   UNL     1     -43.418  59.916 -53.418  1.00  0.00     0.278 HD
HETATM   13  H   UNL     1     -41.850  60.300 -53.712  1.00  0.00     0.278 HD
HETATM   14  C   UNL     1     -42.318  60.169 -51.693  1.00  0.00     0.269 C 
HETATM   15  C   UNL     1     -45.196  61.160 -47.712  1.00  0.00     0.033 A 
HETATM   16  C   UNL     1     -46.306  61.987 -47.491  1.00  0.00     0.039 A 
ENDROOT
BRANCH  14  17
HETATM   17  C   UNL     1     -42.161  58.667 -51.568  1.00  0.00    -0.019 A 
HETATM   18  C   UNL     1     -42.978  57.782 -52.298  1.00  0.00     0.049 A 
HETATM   19  C   UNL     1     -42.814  56.397 -52.187  1.00  0.00     0.102 A 
HETATM   20  C   UNL     1     -41.805  55.873 -51.360  1.00  0.00     0.102 A 
HETATM   21  C   UNL     1     -40.975  56.747 -50.657  1.00  0.00     0.040 A 
HETATM   22  C   UNL     1     -41.153  58.131 -50.755  1.00  0.00     0.012 A 
BRANCH  19  23
HETATM   23  O   UNL     1     -43.572  55.488 -52.881  1.00  0.00    -0.353 OA
HETATM   24  C   UNL     1     -43.594  55.608 -54.299  1.00  0.00     0.210 C 
ENDBRANCH  19  23
BRANCH  20  25
HETATM   25  O   UNL     1     -41.708  54.508 -51.325  1.00  0.00    -0.343 OA
BRANCH  25  26
HETATM   26  C   UNL     1     -40.511  53.879 -51.771  1.00  0.00     0.129 C 
HETATM   27  C   UNL     1     -40.224  52.566 -51.042  1.00  0.00     0.032 C 
HETATM   28  C   UNL     1     -39.387  51.791 -52.042  1.00  0.00     0.002 C 
HETATM   29  C   UNL     1     -40.088  52.057 -53.364  1.00  0.00     0.002 C 
HETATM   30  C   UNL     1     -40.692  53.455 -53.237  1.00  0.00     0.032 C 
ENDBRANCH  25  26
ENDBRANCH  20  25
ENDBRANCH  14  17
BRANCH   1  31
HETATM   31  O   UNL     1     -47.895  63.631 -48.399  1.00  0.00    -0.356 OA
HETATM   32  C   UNL     1     -48.532  64.026 -49.610  1.00  0.00     0.210 C 
ENDBRANCH   1  31
TORSDOF 5
ENDMDL
MODEL 6
REMARK VINA RESULT:      -7.2      3.943      6.972
REMARK  5 active torsions:
REMARK  status: ('A' for Active; 'I' for Inactive)
REMARK    1  A    between atoms: O_2  and  C_3 
REMARK    2  A    between atoms: C_16  and  C_17 
REMARK    3  A    between atoms: C_19  and  O_20 
REMARK    4  A    between atoms: C_22  and  O_23 
REMARK    5  A    between atoms: O_23  and  C_24 
ROOT
HETATM    1  C   UNL     1     -43.204  56.530 -59.563  1.00  0.00     0.069 A 
HETATM    2  C   UNL     1     -43.285  55.686 -58.447  1.00  0.00     0.051 A 
HETATM    3  C   UNL     1     -42.891  56.157 -57.181  1.00  0.00     0.002 A 
HETATM    4  C   UNL     1     -42.416  57.464 -57.071  1.00  0.00     0.043 A 
HETATM    5  N   UNL     1     -42.096  57.684 -55.748  1.00  0.00    -0.356 N 
HETATM    6  H   UNL     1     -41.735  58.564 -55.395  1.00  0.00     0.166 HD
HETATM    7  C   UNL     1     -42.395  56.567 -55.011  1.00  0.00     0.052 A 
HETATM    8  C   UNL     1     -42.858  55.595 -55.878  1.00  0.00    -0.019 A 
HETATM    9  C   UNL     1     -43.258  54.237 -55.407  1.00  0.00     0.069 C 
HETATM   10  C   UNL     1     -42.705  53.975 -53.994  1.00  0.00     0.238 C 
HETATM   11  N   UNL     1     -42.938  55.166 -53.098  1.00  0.00    -0.061 N 
HETATM   12  H   UNL     1     -43.942  55.378 -53.075  1.00  0.00     0.278 HD
HETATM   13  H   UNL     1     -42.667  54.956 -52.131  1.00  0.00     0.278 HD
HETATM   14  C   UNL     1     -42.223  56.419 -53.536  1.00  0.00     0.269 C 
HETATM   15  C   UNL     1     -42.320  58.322 -58.171  1.00  0.00     0.033 A 
HETATM   16  C   UNL     1     -42.725  57.831 -59.420  1.00  0.00     0.039 A 
ENDROOT
BRANCH  14  17
HETATM   17  C   UNL     1     -42.718  57.602 -52.729  1.00  0.00    -0.019 A 
HETATM   18  C   UNL     1     -41.855  58.322 -51.880  1.00  0.00     0.049 A 
HETATM   19  C   UNL     1     -42.318  59.422 -51.151  1.00  0.00     0.102 A 
HETATM   20  C   UNL     1     -43.655  59.839 -51.283  1.00  0.00     0.102 A 
HETATM   21  C   UNL     1     -44.506  59.146 -52.144  1.00  0.00     0.040 A 
HETATM   22  C   UNL     1     -44.045  58.035 -52.858  1.00  0.00     0.012 A 
BRANCH  19  23
HETATM   23  O   UNL     1     -41.522  60.166 -50.318  1.00  0.00    -0.353 OA
HETATM   24  C   UNL     1     -40.160  59.774 -50.200  1.00  0.00     0.210 C 
ENDBRANCH  19  23
BRANCH  20  25
HETATM   25  O   UNL     1     -44.016  60.933 -50.544  1.00  0.00    -0.343 OA
BRANCH  25  26
HETATM   26  C   UNL     1     -45.096  60.832 -49.622  1.00  0.00     0.129 C 
HETATM   27  C   UNL     1     -44.701  61.225 -48.199  1.00  0.00     0.032 C 
HETATM   28  C   UNL     1     -46.013  61.679 -47.588  1.00  0.00     0.002 C 
HETATM   29  C   UNL     1     -46.653  62.494 -48.700  1.00  0.00     0.002 C 
HETATM   30  C   UNL     1     -46.171  61.862 -50.005  1.00  0.00     0.032 C 
ENDBRANCH  25  26
ENDBRANCH  20  25
ENDBRANCH  14  17
BRANCH   1  31
HETATM   31  O   UNL     1     -43.627  55.954 -60.731  1.00  0.00    -0.356 OA
HETATM   32  C   UNL     1     -44.895  55.307 -60.712  1.00  0.00     0.210 C 
ENDBRANCH   1  31
TORSDOF 5
ENDMDL
MODEL 7
REMARK VINA RESULT:      -7.0      3.067      5.192
REMARK  5 active torsions:
REMARK  status: ('A' for Active; 'I' for Inactive)
REMARK    1  A    between atoms: O_2  and  C_3 
REMARK    2  A    between atoms: C_16  and  C_17 
REMARK    3  A    between atoms: C_19  and  O_20 
REMARK    4  A    between atoms: C_22  and  O_23 
REMARK    5  A    between atoms: O_23  and  C_24 
ROOT
HETATM    1  C   UNL     1     -40.024  52.286 -51.571  1.00  0.00     0.069 A 
HETATM    2  C   UNL     1     -40.352  52.805 -52.831  1.00  0.00     0.051 A 
HETATM    3  C   UNL     1     -41.233  53.898 -52.934  1.00  0.00     0.002 A 
HETATM    4  C   UNL     1     -41.769  54.437 -51.764  1.00  0.00     0.043 A 
HETATM    5  N   UNL     1     -42.593  55.482 -52.123  1.00  0.00    -0.356 N 
HETATM    6  H   UNL     1     -43.102  56.053 -51.456  1.00  0.00     0.166 HD
HETATM    7  C   UNL     1     -42.559  55.646 -53.484  1.00  0.00     0.052 A 
HETATM    8  C   UNL     1     -41.750  54.659 -54.014  1.00  0.00    -0.019 A 
HETATM    9  C   UNL     1     -41.508  54.533 -55.480  1.00  0.00     0.069 C 
HETATM   10  C   UNL     1     -42.561  55.335 -56.268  1.00  0.00     0.238 C 
HETATM   11  N   UNL     1     -42.751  56.705 -55.666  1.00  0.00    -0.061 N 
HETATM   12  H   UNL     1     -41.848  57.191 -55.643  1.00  0.00     0.278 HD
HETATM   13  H   UNL     1     -43.371  57.279 -56.248  1.00  0.00     0.278 HD
HETATM   14  C   UNL     1     -43.290  56.692 -54.258  1.00  0.00     0.269 C 
HETATM   15  C   UNL     1     -41.462  53.932 -50.496  1.00  0.00     0.033 A 
HETATM   16  C   UNL     1     -40.577  52.846 -50.421  1.00  0.00     0.039 A 
ENDROOT
BRANCH  14  17
HETATM   17  C   UNL     1     -43.205  58.083 -53.662  1.00  0.00    -0.019 A 
HETATM   18  C   UNL     1     -44.308  58.958 -53.685  1.00  0.00     0.049 A 
HETATM   19  C   UNL     1     -44.224  60.234 -53.118  1.00  0.00     0.102 A 
HETATM   20  C   UNL     1     -43.035  60.647 -52.491  1.00  0.00     0.102 A 
HETATM   21  C   UNL     1     -41.949  59.772 -52.442  1.00  0.00     0.040 A 
HETATM   22  C   UNL     1     -42.029  58.503 -53.025  1.00  0.00     0.012 A 
BRANCH  19  23
HETATM   23  O   UNL     1     -45.268  61.124 -53.102  1.00  0.00    -0.353 OA
HETATM   24  C   UNL     1     -46.437  60.741 -52.388  1.00  0.00     0.210 C 
ENDBRANCH  19  23
BRANCH  20  25
HETATM   25  O   UNL     1     -43.048  61.904 -51.951  1.00  0.00    -0.343 OA
BRANCH  25  26
HETATM   26  C   UNL     1     -43.038  62.060 -50.536  1.00  0.00     0.129 C 
HETATM   27  C   UNL     1     -43.851  63.266 -50.065  1.00  0.00     0.032 C 
HETATM   28  C   UNL     1     -44.252  62.883 -48.653  1.00  0.00     0.002 C 
HETATM   29  C   UNL     1     -44.637  61.418 -48.784  1.00  0.00     0.002 C 
HETATM   30  C   UNL     1     -43.758  60.859 -49.901  1.00  0.00     0.032 C 
ENDBRANCH  25  26
ENDBRANCH  20  25
ENDBRANCH  14  17
BRANCH   1  31
HETATM   31  O   UNL     1     -39.151  51.232 -51.611  1.00  0.00    -0.356 OA
HETATM   32  C   UNL     1     -39.571  50.020 -50.994  1.00  0.00     0.210 C 
ENDBRANCH   1  31
TORSDOF 5
ENDMDL
MODEL 8
REMARK VINA RESULT:      -7.0      2.945      9.281
REMARK  5 active torsions:
REMARK  status: ('A' for Active; 'I' for Inactive)
REMARK    1  A    between atoms: O_2  and  C_3 
REMARK    2  A    between atoms: C_16  and  C_17 
REMARK    3  A    between atoms: C_19  and  O_20 
REMARK    4  A    between atoms: C_22  and  O_23 
REMARK    5  A    between atoms: O_23  and  C_24 
ROOT
HETATM    1  C   UNL     1     -48.133  60.533 -58.103  1.00  0.00     0.069 A 
HETATM    2  C   UNL     1     -47.733  59.346 -58.732  1.00  0.00     0.051 A 
HETATM    3  C   UNL     1     -46.488  58.769 -58.418  1.00  0.00     0.002 A 
HETATM    4  C   UNL     1     -45.672  59.407 -57.483  1.00  0.00     0.043 A 
HETATM    5  N   UNL     1     -44.522  58.659 -57.350  1.00  0.00    -0.356 N 
HETATM    6  H   UNL     1     -43.763  58.899 -56.721  1.00  0.00     0.166 HD
HETATM    7  C   UNL     1     -44.606  57.543 -58.143  1.00  0.00     0.052 A 
HETATM    8  C   UNL     1     -45.798  57.603 -58.840  1.00  0.00    -0.019 A 
HETATM    9  C   UNL     1     -46.201  56.549 -59.815  1.00  0.00     0.069 C 
HETATM   10  C   UNL     1     -44.985  55.691 -60.210  1.00  0.00     0.238 C 
HETATM   11  N   UNL     1     -44.185  55.302 -58.992  1.00  0.00    -0.061 N 
HETATM   12  H   UNL     1     -44.795  54.808 -58.332  1.00  0.00     0.278 HD
HETATM   13  H   UNL     1     -43.437  54.646 -59.239  1.00  0.00     0.278 HD
HETATM   14  C   UNL     1     -43.577  56.469 -58.254  1.00  0.00     0.269 C 
HETATM   15  C   UNL     1     -46.047  60.595 -56.847  1.00  0.00     0.033 A 
HETATM   16  C   UNL     1     -47.295  61.146 -57.174  1.00  0.00     0.039 A 
ENDROOT
BRANCH  14  17
HETATM   17  C   UNL     1     -43.017  56.001 -56.926  1.00  0.00    -0.019 A 
HETATM   18  C   UNL     1     -42.299  56.873 -56.086  1.00  0.00     0.049 A 
HETATM   19  C   UNL     1     -41.800  56.436 -54.854  1.00  0.00     0.102 A 
HETATM   20  C   UNL     1     -42.038  55.116 -54.429  1.00  0.00     0.102 A 
HETATM   21  C   UNL     1     -42.773  54.257 -55.247  1.00  0.00     0.040 A 
HETATM   22  C   UNL     1     -43.255  54.692 -56.486  1.00  0.00     0.012 A 
BRANCH  19  23
HETATM   23  O   UNL     1     -41.104  57.243 -53.991  1.00  0.00    -0.353 OA
HETATM   24  C   UNL     1     -41.426  58.628 -53.994  1.00  0.00     0.210 C 
ENDBRANCH  19  23
BRANCH  20  25
HETATM   25  O   UNL     1     -41.527  54.780 -53.205  1.00  0.00    -0.343 OA
BRANCH  25  26
HETATM   26  C   UNL     1     -41.323  53.409 -52.883  1.00  0.00     0.129 C 
HETATM   27  C   UNL     1     -40.151  52.787 -53.643  1.00  0.00     0.032 C 
HETATM   28  C   UNL     1     -39.709  51.656 -52.734  1.00  0.00     0.002 C 
HETATM   29  C   UNL     1     -39.774  52.277 -51.347  1.00  0.00     0.002 C 
HETATM   30  C   UNL     1     -40.903  53.305 -51.408  1.00  0.00     0.032 C 
ENDBRANCH  25  26
ENDBRANCH  20  25
ENDBRANCH  14  17
BRANCH   1  31
HETATM   31  O   UNL     1     -49.367  60.982 -58.491  1.00  0.00    -0.356 OA
HETATM   32  C   UNL     1     -50.462  60.689 -57.630  1.00  0.00     0.210 C 
ENDBRANCH   1  31
TORSDOF 5
ENDMDL
MODEL 9
REMARK VINA RESULT:      -6.7      3.153      9.001
REMARK  5 active torsions:
REMARK  status: ('A' for Active; 'I' for Inactive)
REMARK    1  A    between atoms: O_2  and  C_3 
REMARK    2  A    between atoms: C_16  and  C_17 
REMARK    3  A    between atoms: C_19  and  O_20 
REMARK    4  A    between atoms: C_22  and  O_23 
REMARK    5  A    between atoms: O_23  and  C_24 
ROOT
HETATM    1  C   UNL     1     -42.739  61.778 -59.761  1.00  0.00     0.069 A 
HETATM    2  C   UNL     1     -43.423  60.578 -60.000  1.00  0.00     0.051 A 
HETATM    3  C   UNL     1     -43.067  59.413 -59.296  1.00  0.00     0.002 A 
HETATM    4  C   UNL     1     -42.025  59.483 -58.372  1.00  0.00     0.043 A 
HETATM    5  N   UNL     1     -41.867  58.229 -57.822  1.00  0.00    -0.356 N 
HETATM    6  H   UNL     1     -41.178  58.008 -57.111  1.00  0.00     0.166 HD
HETATM    7  C   UNL     1     -42.810  57.378 -58.341  1.00  0.00     0.052 A 
HETATM    8  C   UNL     1     -43.545  58.077 -59.280  1.00  0.00    -0.019 A 
HETATM    9  C   UNL     1     -44.648  57.442 -60.057  1.00  0.00     0.069 C 
HETATM   10  C   UNL     1     -44.552  55.908 -59.968  1.00  0.00     0.238 C 
HETATM   11  N   UNL     1     -44.302  55.467 -58.547  1.00  0.00    -0.061 N 
HETATM   12  H   UNL     1     -45.048  55.833 -57.946  1.00  0.00     0.278 HD
HETATM   13  H   UNL     1     -44.342  54.446 -58.467  1.00  0.00     0.278 HD
HETATM   14  C   UNL     1     -42.989  55.943 -57.976  1.00  0.00     0.269 C 
HETATM   15  C   UNL     1     -41.324  60.666 -58.120  1.00  0.00     0.033 A 
HETATM   16  C   UNL     1     -41.702  61.814 -58.831  1.00  0.00     0.039 A 
ENDROOT
BRANCH  14  17
HETATM   17  C   UNL     1     -42.949  55.668 -56.486  1.00  0.00    -0.019 A 
HETATM   18  C   UNL     1     -43.468  56.590 -55.557  1.00  0.00     0.049 A 
HETATM   19  C   UNL     1     -43.440  56.320 -54.184  1.00  0.00     0.102 A 
HETATM   20  C   UNL     1     -42.913  55.102 -53.720  1.00  0.00     0.102 A 
HETATM   21  C   UNL     1     -42.423  54.174 -54.639  1.00  0.00     0.040 A 
HETATM   22  C   UNL     1     -42.436  54.454 -56.009  1.00  0.00     0.012 A 
BRANCH  19  23
HETATM   23  O   UNL     1     -43.940  57.175 -53.236  1.00  0.00    -0.353 OA
HETATM   24  C   UNL     1     -44.982  58.056 -53.638  1.00  0.00     0.210 C 
ENDBRANCH  19  23
BRANCH  20  25
HETATM   25  O   UNL     1     -42.940  54.917 -52.364  1.00  0.00    -0.343 OA
BRANCH  25  26
HETATM   26  C   UNL     1     -41.729  54.994 -51.621  1.00  0.00     0.129 C 
HETATM   27  C   UNL     1     -41.940  55.486 -50.189  1.00  0.00     0.032 C 
HETATM   28  C   UNL     1     -40.764  54.887 -49.440  1.00  0.00     0.002 C 
HETATM   29  C   UNL     1     -40.674  53.477 -50.001  1.00  0.00     0.002 C 
HETATM   30  C   UNL     1     -41.165  53.575 -51.445  1.00  0.00     0.032 C 
ENDBRANCH  25  26
ENDBRANCH  20  25
ENDBRANCH  14  17
BRANCH   1  31
HETATM   31  O   UNL     1     -43.190  62.836 -60.503  1.00  0.00    -0.356 OA
HETATM   32  C   UNL     1     -42.209  63.622 -61.172  1.00  0.00     0.210 C 
ENDBRANCH   1  31
TORSDOF 5
ENDMDL
MODEL 10
REMARK VINA RESULT:      -6.7      2.506      3.763
REMARK  5 active torsions:
REMARK  status: ('A' for Active; 'I' for Inactive)
REMARK    1  A    between atoms: O_2  and  C_3 
REMARK    2  A    between atoms: C_16  and  C_17 
REMARK    3  A    between atoms: C_19  and  O_20 
REMARK    4  A    between atoms: C_22  and  O_23 
REMARK    5  A    between atoms: O_23  and  C_24 
ROOT
HETATM    1  C   UNL     1     -41.717  54.537 -50.308  1.00  0.00     0.069 A 
HETATM    2  C   UNL     1     -41.839  55.901 -50.606  1.00  0.00     0.051 A 
HETATM    3  C   UNL     1     -41.852  56.329 -51.947  1.00  0.00     0.002 A 
HETATM    4  C   UNL     1     -41.732  55.373 -52.956  1.00  0.00     0.043 A 
HETATM    5  N   UNL     1     -41.769  56.032 -54.165  1.00  0.00    -0.356 N 
HETATM    6  H   UNL     1     -41.710  55.565 -55.064  1.00  0.00     0.166 HD
HETATM    7  C   UNL     1     -41.951  57.374 -53.951  1.00  0.00     0.052 A 
HETATM    8  C   UNL     1     -41.973  57.590 -52.586  1.00  0.00    -0.019 A 
HETATM    9  C   UNL     1     -42.136  58.952 -52.000  1.00  0.00     0.069 C 
HETATM   10  C   UNL     1     -41.859  60.030 -53.064  1.00  0.00     0.238 C 
HETATM   11  N   UNL     1     -42.554  59.696 -54.360  1.00  0.00    -0.061 N 
HETATM   12  H   UNL     1     -43.560  59.591 -54.185  1.00  0.00     0.278 HD
HETATM   13  H   UNL     1     -42.459  60.461 -55.036  1.00  0.00     0.278 HD
HETATM   14  C   UNL     1     -42.075  58.420 -55.008  1.00  0.00     0.269 C 
HETATM   15  C   UNL     1     -41.602  54.007 -52.682  1.00  0.00     0.033 A 
HETATM   16  C   UNL     1     -41.599  53.606 -51.339  1.00  0.00     0.039 A 
ENDROOT
BRANCH  14  17
HETATM   17  C   UNL     1     -42.997  58.047 -56.150  1.00  0.00    -0.019 A 
HETATM   18  C   UNL     1     -42.496  57.777 -57.438  1.00  0.00     0.049 A 
HETATM   19  C   UNL     1     -43.354  57.417 -58.483  1.00  0.00     0.102 A 
HETATM   20  C   UNL     1     -44.734  57.294 -58.246  1.00  0.00     0.102 A 
HETATM   21  C   UNL     1     -45.233  57.534 -56.965  1.00  0.00     0.040 A 
HETATM   22  C   UNL     1     -44.374  57.911 -55.926  1.00  0.00     0.012 A 
BRANCH  19  23
HETATM   23  O   UNL     1     -42.921  57.133 -59.753  1.00  0.00    -0.353 OA
HETATM   24  C   UNL     1     -41.636  57.617 -60.125  1.00  0.00     0.210 C 
ENDBRANCH  19  23
BRANCH  20  25
HETATM   25  O   UNL     1     -45.496  56.923 -59.321  1.00  0.00    -0.343 OA
BRANCH  25  26
HETATM   26  C   UNL     1     -46.710  57.615 -59.592  1.00  0.00     0.129 C 
HETATM   27  C   UNL     1     -46.487  59.075 -59.985  1.00  0.00     0.032 C 
HETATM   28  C   UNL     1     -47.708  59.399 -60.825  1.00  0.00     0.002 C 
HETATM   29  C   UNL     1     -47.879  58.157 -61.685  1.00  0.00     0.002 C 
HETATM   30  C   UNL     1     -47.365  56.994 -60.837  1.00  0.00     0.032 C 
ENDBRANCH  25  26
ENDBRANCH  20  25
ENDBRANCH  14  17
BRANCH   1  31
HETATM   31  O   UNL     1     -41.728  54.255 -48.969  1.00  0.00    -0.356 OA
HETATM   32  C   UNL     1     -40.469  54.028 -48.344  1.00  0.00     0.210 C 
ENDBRANCH   1  31
TORSDOF 5
ENDMDL
