MODEL 1
REMARK VINA RESULT:      -8.7      0.000      0.000
REMARK  7 active torsions:
REMARK  status: ('A' for Active; 'I' for Inactive)
REMARK    1  A    between atoms: C_2  and  N_3 
REMARK    2  A    between atoms: C_2  and  C_10 
REMARK    3  A    between atoms: N_11  and  C_12 
REMARK    4  A    between atoms: C_19  and  S_20 
REMARK    5  A    between atoms: S_20  and  C_21 
REMARK    6  A    between atoms: C_21  and  C_22 
REMARK    7  A    between atoms: C_21  and  C_28 
REMARK       I    between atoms: C_22  and  N_23 
REMARK       I    between atoms: N_23  and  C_24 
REMARK       I    between atoms: C_24  and  N_25 
ROOT
HETATM    1  C   UNL     1     -42.426  58.922 -56.353  1.00  0.00     0.166 A 
HETATM    2  N   UNL     1     -42.701  57.595 -56.664  1.00  0.00    -0.274 N 
HETATM    3  C   UNL     1     -42.207  56.893 -55.578  1.00  0.00     0.197 A 
HETATM    4  N   UNL     1     -41.634  57.718 -54.732  1.00  0.00    -0.122 NA
HETATM    5  N   UNL     1     -41.763  58.987 -55.217  1.00  0.00    -0.131 NA
ENDROOT
BRANCH   3   6
HETATM    6  S   UNL     1     -42.186  55.172 -55.387  1.00  0.00    -0.070 SA
BRANCH   6   7
HETATM    7  C   UNL     1     -41.561  54.972 -53.678  1.00  0.00     0.180 C 
BRANCH   7   8
HETATM    8  C   UNL     1     -42.672  55.315 -52.673  1.00  0.00     0.244 C 
HETATM    9  N   UNL     1     -42.639  56.609 -52.176  1.00  0.00    -0.278 N 
HETATM   10  C   UNL     1     -43.595  57.274 -51.466  1.00  0.00     0.320 C 
HETATM   11  H   UNL     1     -41.896  57.230 -52.473  1.00  0.00     0.173 HD
HETATM   12  N   UNL     1     -44.703  56.584 -51.131  1.00  0.00    -0.352 N 
HETATM   13  O   UNL     1     -43.469  58.459 -51.185  1.00  0.00    -0.247 OA
HETATM   14  H   UNL     1     -44.685  55.571 -51.152  1.00  0.00     0.160 HD
HETATM   15  H   UNL     1     -45.371  57.049 -50.531  1.00  0.00     0.160 HD
HETATM   16  O   UNL     1     -43.462  54.445 -52.289  1.00  0.00    -0.271 OA
ENDBRANCH   7   8
BRANCH   7  17
HETATM   17  C   UNL     1     -40.885  53.636 -53.380  1.00  0.00    -0.035 A 
HETATM   18  C   UNL     1     -40.278  53.317 -52.154  1.00  0.00     0.009 A 
HETATM   19  C   UNL     1     -39.652  52.082 -51.964  1.00  0.00     0.001 A 
HETATM   20  C   UNL     1     -39.608  51.151 -52.996  1.00  0.00     0.000 A 
HETATM   21  C   UNL     1     -40.192  51.449 -54.222  1.00  0.00     0.001 A 
HETATM   22  C   UNL     1     -40.826  52.678 -54.412  1.00  0.00     0.009 A 
ENDBRANCH   7  17
ENDBRANCH   6   7
ENDBRANCH   3   6
BRANCH   2  23
HETATM   23  C   UNL     1     -43.349  57.108 -57.823  1.00  0.00     0.043 A 
HETATM   24  C   UNL     1     -44.692  57.443 -58.056  1.00  0.00     0.033 A 
HETATM   25  C   UNL     1     -45.335  56.966 -59.200  1.00  0.00     0.044 A 
HETATM   26  C   UNL     1     -44.638  56.169 -60.100  1.00  0.00     0.116 A 
HETATM   27  F   UNL     1     -45.262  55.714 -61.193  1.00  0.00    -0.206 F 
HETATM   28  C   UNL     1     -43.304  55.845 -59.885  1.00  0.00     0.044 A 
HETATM   29  C   UNL     1     -42.649  56.317 -58.745  1.00  0.00     0.033 A 
ENDBRANCH   2  23
BRANCH   1  30
HETATM   30  C   UNL     1     -42.948  60.132 -57.070  1.00  0.00     0.255 C 
HETATM   31  C   UNL     1     -43.001  61.292 -56.066  1.00  0.00     0.049 C 
BRANCH  30  32
HETATM   32  N   UNL     1     -42.039  60.499 -58.267  1.00  0.00    -0.060 N 
HETATM   33  H   UNL     1     -41.283  59.794 -58.244  1.00  0.00     0.280 HD
HETATM   34  C   UNL     1     -42.765  60.299 -59.588  1.00  0.00     0.236 C 
HETATM   35  C   UNL     1     -41.819  60.544 -60.754  1.00  0.00     0.028 C 
HETATM   36  C   UNL     1     -41.200  61.931 -60.686  1.00  0.00     0.003 C 
HETATM   37  C   UNL     1     -40.495  62.133 -59.354  1.00  0.00     0.028 C 
HETATM   38  C   UNL     1     -41.420  61.876 -58.173  1.00  0.00     0.236 C 
ENDBRANCH  30  32
ENDBRANCH   1  30
TORSDOF 7
ENDMDL
MODEL 2
REMARK VINA RESULT:      -8.7      3.677      6.092
REMARK  7 active torsions:
REMARK  status: ('A' for Active; 'I' for Inactive)
REMARK    1  A    between atoms: C_2  and  N_3 
REMARK    2  A    between atoms: C_2  and  C_10 
REMARK    3  A    between atoms: N_11  and  C_12 
REMARK    4  A    between atoms: C_19  and  S_20 
REMARK    5  A    between atoms: S_20  and  C_21 
REMARK    6  A    between atoms: C_21  and  C_22 
REMARK    7  A    between atoms: C_21  and  C_28 
REMARK       I    between atoms: C_22  and  N_23 
REMARK       I    between atoms: N_23  and  C_24 
REMARK       I    between atoms: C_24  and  N_25 
ROOT
HETATM    1  C   UNL     1     -44.073  58.630 -54.237  1.00  0.00     0.166 A 
HETATM    2  N   UNL     1     -43.254  57.877 -53.404  1.00  0.00    -0.274 N 
HETATM    3  C   UNL     1     -43.753  56.592 -53.525  1.00  0.00     0.197 A 
HETATM    4  N   UNL     1     -44.810  56.591 -54.305  1.00  0.00    -0.122 NA
HETATM    5  N   UNL     1     -45.017  57.866 -54.747  1.00  0.00    -0.131 NA
ENDROOT
BRANCH   3   6
HETATM    6  S   UNL     1     -43.200  55.186 -52.678  1.00  0.00    -0.070 SA
BRANCH   6   7
HETATM    7  C   UNL     1     -42.508  54.158 -54.025  1.00  0.00     0.180 C 
BRANCH   7   8
HETATM    8  C   UNL     1     -42.099  55.054 -55.205  1.00  0.00     0.244 C 
HETATM    9  N   UNL     1     -42.945  55.007 -56.302  1.00  0.00    -0.278 N 
HETATM   10  C   UNL     1     -42.984  55.835 -57.385  1.00  0.00     0.320 C 
HETATM   11  H   UNL     1     -43.747  54.389 -56.278  1.00  0.00     0.173 HD
HETATM   12  N   UNL     1     -42.043  56.797 -57.457  1.00  0.00    -0.352 N 
HETATM   13  O   UNL     1     -43.864  55.736 -58.231  1.00  0.00    -0.247 OA
HETATM   14  H   UNL     1     -41.201  56.713 -56.900  1.00  0.00     0.160 HD
HETATM   15  H   UNL     1     -42.018  57.354 -58.301  1.00  0.00     0.160 HD
HETATM   16  O   UNL     1     -41.034  55.682 -55.178  1.00  0.00    -0.271 OA
ENDBRANCH   7   8
BRANCH   7  17
HETATM   17  C   UNL     1     -41.406  53.188 -53.608  1.00  0.00    -0.035 A 
HETATM   18  C   UNL     1     -40.924  52.148 -54.421  1.00  0.00     0.009 A 
HETATM   19  C   UNL     1     -39.931  51.279 -53.959  1.00  0.00     0.001 A 
HETATM   20  C   UNL     1     -39.413  51.423 -52.676  1.00  0.00     0.000 A 
HETATM   21  C   UNL     1     -39.883  52.438 -51.851  1.00  0.00     0.001 A 
HETATM   22  C   UNL     1     -40.868  53.313 -52.312  1.00  0.00     0.009 A 
ENDBRANCH   7  17
ENDBRANCH   6   7
ENDBRANCH   3   6
BRANCH   2  23
HETATM   23  C   UNL     1     -42.163  58.342 -52.634  1.00  0.00     0.043 A 
HETATM   24  C   UNL     1     -40.905  58.493 -53.240  1.00  0.00     0.033 A 
HETATM   25  C   UNL     1     -39.825  58.954 -52.484  1.00  0.00     0.044 A 
HETATM   26  C   UNL     1     -40.006  59.264 -51.141  1.00  0.00     0.116 A 
HETATM   27  F   UNL     1     -38.966  59.704 -50.423  1.00  0.00    -0.206 F 
HETATM   28  C   UNL     1     -41.251  59.132 -50.538  1.00  0.00     0.044 A 
HETATM   29  C   UNL     1     -42.339  58.673 -51.284  1.00  0.00     0.033 A 
ENDBRANCH   2  23
BRANCH   1  30
HETATM   30  C   UNL     1     -43.843  60.048 -54.668  1.00  0.00     0.255 C 
HETATM   31  C   UNL     1     -44.558  60.259 -56.010  1.00  0.00     0.049 C 
BRANCH  30  32
HETATM   32  N   UNL     1     -44.384  61.040 -53.611  1.00  0.00    -0.060 N 
HETATM   33  H   UNL     1     -44.927  61.730 -54.157  1.00  0.00     0.280 HD
HETATM   34  C   UNL     1     -45.376  60.361 -52.679  1.00  0.00     0.236 C 
HETATM   35  C   UNL     1     -45.990  61.378 -51.729  1.00  0.00     0.028 C 
HETATM   36  C   UNL     1     -44.922  62.112 -50.933  1.00  0.00     0.003 C 
HETATM   37  C   UNL     1     -43.921  62.769 -51.870  1.00  0.00     0.028 C 
HETATM   38  C   UNL     1     -43.307  61.771 -52.842  1.00  0.00     0.236 C 
ENDBRANCH  30  32
ENDBRANCH   1  30
TORSDOF 7
ENDMDL
MODEL 3
REMARK VINA RESULT:      -8.7      2.719      4.282
REMARK  7 active torsions:
REMARK  status: ('A' for Active; 'I' for Inactive)
REMARK    1  A    between atoms: C_2  and  N_3 
REMARK    2  A    between atoms: C_2  and  C_10 
REMARK    3  A    between atoms: N_11  and  C_12 
REMARK    4  A    between atoms: C_19  and  S_20 
REMARK    5  A    between atoms: S_20  and  C_21 
REMARK    6  A    between atoms: C_21  and  C_22 
REMARK    7  A    between atoms: C_21  and  C_28 
REMARK       I    between atoms: C_22  and  N_23 
REMARK       I    between atoms: N_23  and  C_24 
REMARK       I    between atoms: C_24  and  N_25 
ROOT
HETATM    1  C   UNL     1     -42.852  57.690 -54.968  1.00  0.00     0.166 A 
HETATM    2  N   UNL     1     -41.972  56.980 -54.159  1.00  0.00    -0.274 N 
HETATM    3  C   UNL     1     -41.609  57.894 -53.186  1.00  0.00     0.197 A 
HETATM    4  N   UNL     1     -42.167  59.058 -53.430  1.00  0.00    -0.122 NA
HETATM    5  N   UNL     1     -42.940  58.935 -54.548  1.00  0.00    -0.131 NA
ENDROOT
BRANCH   3   6
HETATM    6  S   UNL     1     -40.472  57.639 -51.905  1.00  0.00    -0.070 SA
BRANCH   6   7
HETATM    7  C   UNL     1     -41.512  56.900 -50.593  1.00  0.00     0.180 C 
BRANCH   7   8
HETATM    8  C   UNL     1     -42.996  57.010 -50.981  1.00  0.00     0.244 C 
HETATM    9  N   UNL     1     -43.563  58.261 -50.794  1.00  0.00    -0.278 N 
HETATM   10  C   UNL     1     -44.761  58.730 -51.247  1.00  0.00     0.320 C 
HETATM   11  H   UNL     1     -42.997  59.003 -50.402  1.00  0.00     0.173 HD
HETATM   12  N   UNL     1     -45.549  57.862 -51.913  1.00  0.00    -0.352 N 
HETATM   13  O   UNL     1     -45.086  59.901 -51.093  1.00  0.00    -0.247 OA
HETATM   14  H   UNL     1     -45.386  56.867 -51.818  1.00  0.00     0.160 HD
HETATM   15  H   UNL     1     -46.472  58.184 -52.172  1.00  0.00     0.160 HD
HETATM   16  O   UNL     1     -43.627  56.009 -51.341  1.00  0.00    -0.271 OA
ENDBRANCH   7   8
BRANCH   7  17
HETATM   17  C   UNL     1     -41.117  55.491 -50.158  1.00  0.00    -0.035 A 
HETATM   18  C   UNL     1     -41.164  55.035 -48.830  1.00  0.00     0.009 A 
HETATM   19  C   UNL     1     -40.758  53.738 -48.503  1.00  0.00     0.001 A 
HETATM   20  C   UNL     1     -40.285  52.880 -49.492  1.00  0.00     0.000 A 
HETATM   21  C   UNL     1     -40.220  53.315 -50.810  1.00  0.00     0.001 A 
HETATM   22  C   UNL     1     -40.633  54.606 -51.142  1.00  0.00     0.009 A 
ENDBRANCH   7  17
ENDBRANCH   6   7
ENDBRANCH   3   6
BRANCH   2  23
HETATM   23  C   UNL     1     -41.572  55.632 -54.313  1.00  0.00     0.043 A 
HETATM   24  C   UNL     1     -40.267  55.343 -54.741  1.00  0.00     0.033 A 
HETATM   25  C   UNL     1     -39.867  54.014 -54.892  1.00  0.00     0.044 A 
HETATM   26  C   UNL     1     -40.763  52.989 -54.612  1.00  0.00     0.116 A 
HETATM   27  F   UNL     1     -40.374  51.718 -54.762  1.00  0.00    -0.206 F 
HETATM   28  C   UNL     1     -42.053  53.266 -54.174  1.00  0.00     0.044 A 
HETATM   29  C   UNL     1     -42.464  54.592 -54.017  1.00  0.00     0.033 A 
ENDBRANCH   2  23
BRANCH   1  30
HETATM   30  C   UNL     1     -43.730  57.123 -56.043  1.00  0.00     0.255 C 
HETATM   31  C   UNL     1     -44.955  58.037 -56.188  1.00  0.00     0.049 C 
BRANCH  30  32
HETATM   32  N   UNL     1     -42.968  57.030 -57.387  1.00  0.00    -0.060 N 
HETATM   33  H   UNL     1     -42.079  56.560 -57.148  1.00  0.00     0.280 HD
HETATM   34  C   UNL     1     -43.686  56.108 -58.361  1.00  0.00     0.236 C 
HETATM   35  C   UNL     1     -42.860  55.930 -59.626  1.00  0.00     0.028 C 
HETATM   36  C   UNL     1     -42.551  57.267 -60.281  1.00  0.00     0.003 C 
HETATM   37  C   UNL     1     -41.854  58.192 -59.295  1.00  0.00     0.028 C 
HETATM   38  C   UNL     1     -42.657  58.369 -58.014  1.00  0.00     0.236 C 
ENDBRANCH  30  32
ENDBRANCH   1  30
TORSDOF 7
ENDMDL
MODEL 4
REMARK VINA RESULT:      -8.7      2.769      4.430
REMARK  7 active torsions:
REMARK  status: ('A' for Active; 'I' for Inactive)
REMARK    1  A    between atoms: C_2  and  N_3 
REMARK    2  A    between atoms: C_2  and  C_10 
REMARK    3  A    between atoms: N_11  and  C_12 
REMARK    4  A    between atoms: C_19  and  S_20 
REMARK    5  A    between atoms: S_20  and  C_21 
REMARK    6  A    between atoms: C_21  and  C_22 
REMARK    7  A    between atoms: C_21  and  C_28 
REMARK       I    between atoms: C_22  and  N_23 
REMARK       I    between atoms: N_23  and  C_24 
REMARK       I    between atoms: C_24  and  N_25 
ROOT
HETATM    1  C   UNL     1     -43.156  56.971 -56.086  1.00  0.00     0.166 A 
HETATM    2  N   UNL     1     -42.873  56.227 -54.946  1.00  0.00    -0.274 N 
HETATM    3  C   UNL     1     -43.613  56.846 -53.955  1.00  0.00     0.197 A 
HETATM    4  N   UNL     1     -44.227  57.901 -54.443  1.00  0.00    -0.122 NA
HETATM    5  N   UNL     1     -43.937  57.985 -55.775  1.00  0.00    -0.131 NA
ENDROOT
BRANCH   3   6
HETATM    6  S   UNL     1     -43.641  56.428 -52.274  1.00  0.00    -0.070 SA
BRANCH   6   7
HETATM    7  C   UNL     1     -41.880  56.582 -51.799  1.00  0.00     0.180 C 
BRANCH   7   8
HETATM    8  C   UNL     1     -41.588  58.020 -51.339  1.00  0.00     0.244 C 
HETATM    9  N   UNL     1     -42.706  58.818 -51.154  1.00  0.00    -0.278 N 
HETATM   10  C   UNL     1     -42.794  60.034 -50.543  1.00  0.00     0.320 C 
HETATM   11  H   UNL     1     -43.622  58.433 -51.348  1.00  0.00     0.173 HD
HETATM   12  N   UNL     1     -41.644  60.590 -50.111  1.00  0.00    -0.352 N 
HETATM   13  O   UNL     1     -43.876  60.577 -50.357  1.00  0.00    -0.247 OA
HETATM   14  H   UNL     1     -40.761  60.259 -50.482  1.00  0.00     0.160 HD
HETATM   15  H   UNL     1     -41.698  61.528 -49.739  1.00  0.00     0.160 HD
HETATM   16  O   UNL     1     -40.424  58.425 -51.244  1.00  0.00    -0.271 OA
ENDBRANCH   7   8
BRANCH   7  17
HETATM   17  C   UNL     1     -41.372  55.532 -50.816  1.00  0.00    -0.035 A 
HETATM   18  C   UNL     1     -41.423  55.670 -49.419  1.00  0.00     0.009 A 
HETATM   19  C   UNL     1     -40.911  54.677 -48.580  1.00  0.00     0.001 A 
HETATM   20  C   UNL     1     -40.326  53.536 -49.120  1.00  0.00     0.000 A 
HETATM   21  C   UNL     1     -40.254  53.382 -50.499  1.00  0.00     0.001 A 
HETATM   22  C   UNL     1     -40.773  54.368 -51.340  1.00  0.00     0.009 A 
ENDBRANCH   7  17
ENDBRANCH   6   7
ENDBRANCH   3   6
BRANCH   2  23
HETATM   23  C   UNL     1     -42.031  55.094 -54.856  1.00  0.00     0.043 A 
HETATM   24  C   UNL     1     -40.644  55.251 -55.007  1.00  0.00     0.033 A 
HETATM   25  C   UNL     1     -39.809  54.135 -54.917  1.00  0.00     0.044 A 
HETATM   26  C   UNL     1     -40.357  52.882 -54.674  1.00  0.00     0.116 A 
HETATM   27  F   UNL     1     -39.551  51.817 -54.591  1.00  0.00    -0.206 F 
HETATM   28  C   UNL     1     -41.728  52.720 -54.509  1.00  0.00     0.044 A 
HETATM   29  C   UNL     1     -42.573  53.828 -54.595  1.00  0.00     0.033 A 
ENDBRANCH   2  23
BRANCH   1  30
HETATM   30  C   UNL     1     -42.807  56.608 -57.498  1.00  0.00     0.255 C 
HETATM   31  C   UNL     1     -43.693  55.427 -57.918  1.00  0.00     0.049 C 
BRANCH  30  32
HETATM   32  N   UNL     1     -43.028  57.810 -58.448  1.00  0.00    -0.060 N 
HETATM   33  H   UNL     1     -43.738  58.389 -57.971  1.00  0.00     0.280 HD
HETATM   34  C   UNL     1     -41.776  58.668 -58.545  1.00  0.00     0.236 C 
HETATM   35  C   UNL     1     -42.050  59.910 -59.381  1.00  0.00     0.028 C 
HETATM   36  C   UNL     1     -42.561  59.546 -60.766  1.00  0.00     0.003 C 
HETATM   37  C   UNL     1     -43.799  58.669 -60.661  1.00  0.00     0.028 C 
HETATM   38  C   UNL     1     -43.550  57.429 -59.814  1.00  0.00     0.236 C 
ENDBRANCH  30  32
ENDBRANCH   1  30
TORSDOF 7
ENDMDL
MODEL 5
REMARK VINA RESULT:      -8.6      2.677      4.029
REMARK  7 active torsions:
REMARK  status: ('A' for Active; 'I' for Inactive)
REMARK    1  A    between atoms: C_2  and  N_3 
REMARK    2  A    between atoms: C_2  and  C_10 
REMARK    3  A    between atoms: N_11  and  C_12 
REMARK    4  A    between atoms: C_19  and  S_20 
REMARK    5  A    between atoms: S_20  and  C_21 
REMARK    6  A    between atoms: C_21  and  C_22 
REMARK    7  A    between atoms: C_21  and  C_28 
REMARK       I    between atoms: C_22  and  N_23 
REMARK       I    between atoms: N_23  and  C_24 
REMARK       I    between atoms: C_24  and  N_25 
ROOT
HETATM    1  C   UNL     1     -43.181  57.011 -57.780  1.00  0.00     0.166 A 
HETATM    2  N   UNL     1     -43.343  56.878 -56.405  1.00  0.00    -0.274 N 
HETATM    3  C   UNL     1     -43.166  55.524 -56.182  1.00  0.00     0.197 A 
HETATM    4  N   UNL     1     -42.982  54.899 -57.323  1.00  0.00    -0.122 NA
HETATM    5  N   UNL     1     -42.997  55.826 -58.326  1.00  0.00    -0.131 NA
ENDROOT
BRANCH   3   6
HETATM    6  S   UNL     1     -43.309  54.701 -54.665  1.00  0.00    -0.070 SA
BRANCH   6   7
HETATM    7  C   UNL     1     -41.705  55.066 -53.864  1.00  0.00     0.180 C 
BRANCH   7   8
HETATM    8  C   UNL     1     -41.884  56.183 -52.823  1.00  0.00     0.244 C 
HETATM    9  N   UNL     1     -43.166  56.309 -52.308  1.00  0.00    -0.278 N 
HETATM   10  C   UNL     1     -43.584  57.030 -51.228  1.00  0.00     0.320 C 
HETATM   11  H   UNL     1     -43.895  55.696 -52.652  1.00  0.00     0.173 HD
HETATM   12  N   UNL     1     -42.661  57.783 -50.597  1.00  0.00    -0.352 N 
HETATM   13  O   UNL     1     -44.738  56.960 -50.825  1.00  0.00    -0.247 OA
HETATM   14  H   UNL     1     -41.799  58.018 -51.074  1.00  0.00     0.160 HD
HETATM   15  H   UNL     1     -42.988  58.383 -49.853  1.00  0.00     0.160 HD
HETATM   16  O   UNL     1     -40.953  56.953 -52.560  1.00  0.00    -0.271 OA
ENDBRANCH   7   8
BRANCH   7  17
HETATM   17  C   UNL     1     -40.958  53.856 -53.310  1.00  0.00    -0.035 A 
HETATM   18  C   UNL     1     -40.636  53.681 -51.954  1.00  0.00     0.009 A 
HETATM   19  C   UNL     1     -39.923  52.558 -51.525  1.00  0.00     0.001 A 
HETATM   20  C   UNL     1     -39.507  51.598 -52.442  1.00  0.00     0.000 A 
HETATM   21  C   UNL     1     -39.805  51.756 -53.790  1.00  0.00     0.001 A 
HETATM   22  C   UNL     1     -40.524  52.872 -54.221  1.00  0.00     0.009 A 
ENDBRANCH   7  17
ENDBRANCH   6   7
ENDBRANCH   3   6
BRANCH   2  23
HETATM   23  C   UNL     1     -43.612  57.909 -55.475  1.00  0.00     0.043 A 
HETATM   24  C   UNL     1     -42.571  58.757 -55.065  1.00  0.00     0.033 A 
HETATM   25  C   UNL     1     -42.832  59.778 -54.148  1.00  0.00     0.044 A 
HETATM   26  C   UNL     1     -44.120  59.947 -53.655  1.00  0.00     0.116 A 
HETATM   27  F   UNL     1     -44.363  60.926 -52.775  1.00  0.00    -0.206 F 
HETATM   28  C   UNL     1     -45.159  59.121 -54.067  1.00  0.00     0.044 A 
HETATM   29  C   UNL     1     -44.911  58.098 -54.985  1.00  0.00     0.033 A 
ENDBRANCH   2  23
BRANCH   1  30
HETATM   30  C   UNL     1     -43.039  58.296 -58.541  1.00  0.00     0.255 C 
HETATM   31  C   UNL     1     -42.134  58.033 -59.752  1.00  0.00     0.049 C 
BRANCH  30  32
HETATM   32  N   UNL     1     -44.420  58.817 -59.006  1.00  0.00    -0.060 N 
HETATM   33  H   UNL     1     -44.563  59.687 -58.466  1.00  0.00     0.280 HD
HETATM   34  C   UNL     1     -44.385  59.227 -60.470  1.00  0.00     0.236 C 
HETATM   35  C   UNL     1     -45.712  59.853 -60.875  1.00  0.00     0.028 C 
HETATM   36  C   UNL     1     -46.875  58.910 -60.609  1.00  0.00     0.003 C 
HETATM   37  C   UNL     1     -46.890  58.485 -59.149  1.00  0.00     0.028 C 
HETATM   38  C   UNL     1     -45.565  57.873 -58.719  1.00  0.00     0.236 C 
ENDBRANCH  30  32
ENDBRANCH   1  30
TORSDOF 7
ENDMDL
MODEL 6
REMARK VINA RESULT:      -8.6      3.511      8.651
REMARK  7 active torsions:
REMARK  status: ('A' for Active; 'I' for Inactive)
REMARK    1  A    between atoms: C_2  and  N_3 
REMARK    2  A    between atoms: C_2  and  C_10 
REMARK    3  A    between atoms: N_11  and  C_12 
REMARK    4  A    between atoms: C_19  and  S_20 
REMARK    5  A    between atoms: S_20  and  C_21 
REMARK    6  A    between atoms: C_21  and  C_22 
REMARK    7  A    between atoms: C_21  and  C_28 
REMARK       I    between atoms: C_22  and  N_23 
REMARK       I    between atoms: N_23  and  C_24 
REMARK       I    between atoms: C_24  and  N_25 
ROOT
HETATM    1  C   UNL     1     -42.038  55.003 -54.314  1.00  0.00     0.166 A 
HETATM    2  N   UNL     1     -42.449  56.310 -54.556  1.00  0.00    -0.274 N 
HETATM    3  C   UNL     1     -43.022  56.248 -55.814  1.00  0.00     0.197 A 
HETATM    4  N   UNL     1     -42.905  55.035 -56.304  1.00  0.00    -0.122 NA
HETATM    5  N   UNL     1     -42.284  54.255 -55.370  1.00  0.00    -0.131 NA
ENDROOT
BRANCH   3   6
HETATM    6  S   UNL     1     -43.672  57.575 -56.717  1.00  0.00    -0.070 SA
BRANCH   6   7
HETATM    7  C   UNL     1     -42.712  57.502 -58.274  1.00  0.00     0.180 C 
BRANCH   7   8
HETATM    8  C   UNL     1     -43.442  56.613 -59.294  1.00  0.00     0.244 C 
HETATM    9  N   UNL     1     -44.826  56.633 -59.211  1.00  0.00    -0.278 N 
HETATM   10  C   UNL     1     -45.740  56.148 -60.099  1.00  0.00     0.320 C 
HETATM   11  H   UNL     1     -45.266  57.194 -58.492  1.00  0.00     0.173 HD
HETATM   12  N   UNL     1     -45.264  55.498 -61.180  1.00  0.00    -0.352 N 
HETATM   13  O   UNL     1     -46.941  56.335 -59.942  1.00  0.00    -0.247 OA
HETATM   14  H   UNL     1     -44.314  55.145 -61.170  1.00  0.00     0.160 HD
HETATM   15  H   UNL     1     -45.941  55.063 -61.791  1.00  0.00     0.160 HD
HETATM   16  O   UNL     1     -42.804  55.875 -60.055  1.00  0.00    -0.271 OA
ENDBRANCH   7   8
BRANCH   7  17
HETATM   17  C   UNL     1     -42.300  58.852 -58.855  1.00  0.00    -0.035 A 
HETATM   18  C   UNL     1     -42.320  59.159 -60.225  1.00  0.00     0.009 A 
HETATM   19  C   UNL     1     -41.899  60.411 -60.686  1.00  0.00     0.001 A 
HETATM   20  C   UNL     1     -41.439  61.370 -59.789  1.00  0.00     0.000 A 
HETATM   21  C   UNL     1     -41.400  61.083 -58.430  1.00  0.00     0.001 A 
HETATM   22  C   UNL     1     -41.828  59.838 -57.966  1.00  0.00     0.009 A 
ENDBRANCH   7  17
ENDBRANCH   6   7
ENDBRANCH   3   6
BRANCH   2  23
HETATM   23  C   UNL     1     -42.311  57.420 -53.690  1.00  0.00     0.043 A 
HETATM   24  C   UNL     1     -43.373  57.769 -52.841  1.00  0.00     0.033 A 
HETATM   25  C   UNL     1     -43.241  58.863 -51.984  1.00  0.00     0.044 A 
HETATM   26  C   UNL     1     -42.058  59.593 -51.975  1.00  0.00     0.116 A 
HETATM   27  F   UNL     1     -41.940  60.641 -51.152  1.00  0.00    -0.206 F 
HETATM   28  C   UNL     1     -40.997  59.244 -52.801  1.00  0.00     0.044 A 
HETATM   29  C   UNL     1     -41.116  58.151 -53.663  1.00  0.00     0.033 A 
ENDBRANCH   2  23
BRANCH   1  30
HETATM   30  C   UNL     1     -41.563  54.446 -53.006  1.00  0.00     0.255 C 
HETATM   31  C   UNL     1     -42.794  54.011 -52.199  1.00  0.00     0.049 C 
BRANCH  30  32
HETATM   32  N   UNL     1     -40.616  53.243 -53.231  1.00  0.00    -0.060 N 
HETATM   33  H   UNL     1     -39.779  53.651 -53.678  1.00  0.00     0.280 HD
HETATM   34  C   UNL     1     -40.147  52.660 -51.906  1.00  0.00     0.236 C 
HETATM   35  C   UNL     1     -39.122  51.562 -52.145  1.00  0.00     0.028 C 
HETATM   36  C   UNL     1     -39.678  50.469 -53.045  1.00  0.00     0.003 C 
HETATM   37  C   UNL     1     -40.166  51.061 -54.358  1.00  0.00     0.028 C 
HETATM   38  C   UNL     1     -41.180  52.175 -54.140  1.00  0.00     0.236 C 
ENDBRANCH  30  32
ENDBRANCH   1  30
TORSDOF 7
ENDMDL
MODEL 7
REMARK VINA RESULT:      -8.5      4.634      6.829
REMARK  7 active torsions:
REMARK  status: ('A' for Active; 'I' for Inactive)
REMARK    1  A    between atoms: C_2  and  N_3 
REMARK    2  A    between atoms: C_2  and  C_10 
REMARK    3  A    between atoms: N_11  and  C_12 
REMARK    4  A    between atoms: C_19  and  S_20 
REMARK    5  A    between atoms: S_20  and  C_21 
REMARK    6  A    between atoms: C_21  and  C_22 
REMARK    7  A    between atoms: C_21  and  C_28 
REMARK       I    between atoms: C_22  and  N_23 
REMARK       I    between atoms: N_23  and  C_24 
REMARK       I    between atoms: C_24  and  N_25 
ROOT
HETATM    1  C   UNL     1     -43.216  57.526 -54.323  1.00  0.00     0.166 A 
HETATM    2  N   UNL     1     -41.996  57.083 -53.824  1.00  0.00    -0.274 N 
HETATM    3  C   UNL     1     -41.769  55.901 -54.507  1.00  0.00     0.197 A 
HETATM    4  N   UNL     1     -42.788  55.631 -55.291  1.00  0.00    -0.122 NA
HETATM    5  N   UNL     1     -43.698  56.642 -55.173  1.00  0.00    -0.131 NA
ENDROOT
BRANCH   3   6
HETATM    6  S   UNL     1     -40.432  54.823 -54.287  1.00  0.00    -0.070 SA
BRANCH   6   7
HETATM    7  C   UNL     1     -41.132  53.545 -53.180  1.00  0.00     0.180 C 
BRANCH   7   8
HETATM    8  C   UNL     1     -40.438  52.197 -53.435  1.00  0.00     0.244 C 
HETATM    9  N   UNL     1     -39.969  51.551 -52.302  1.00  0.00    -0.278 N 
HETATM   10  C   UNL     1     -39.528  50.267 -52.174  1.00  0.00     0.320 C 
HETATM   11  H   UNL     1     -40.082  51.997 -51.400  1.00  0.00     0.173 HD
HETATM   12  N   UNL     1     -39.466  49.523 -53.297  1.00  0.00    -0.352 N 
HETATM   13  O   UNL     1     -39.242  49.798 -51.079  1.00  0.00    -0.247 OA
HETATM   14  H   UNL     1     -39.466  49.983 -54.200  1.00  0.00     0.160 HD
HETATM   15  H   UNL     1     -39.057  48.602 -53.217  1.00  0.00     0.160 HD
HETATM   16  O   UNL     1     -40.248  51.798 -54.590  1.00  0.00    -0.271 OA
ENDBRANCH   7   8
BRANCH   7  17
HETATM   17  C   UNL     1     -41.179  53.915 -51.699  1.00  0.00    -0.035 A 
HETATM   18  C   UNL     1     -42.366  54.112 -50.974  1.00  0.00     0.009 A 
HETATM   19  C   UNL     1     -42.330  54.479 -49.626  1.00  0.00     0.001 A 
HETATM   20  C   UNL     1     -41.111  54.668 -48.982  1.00  0.00     0.000 A 
HETATM   21  C   UNL     1     -39.924  54.489 -49.683  1.00  0.00     0.001 A 
HETATM   22  C   UNL     1     -39.956  54.114 -51.027  1.00  0.00     0.009 A 
ENDBRANCH   7  17
ENDBRANCH   6   7
ENDBRANCH   3   6
BRANCH   2  23
HETATM   23  C   UNL     1     -41.190  57.722 -52.853  1.00  0.00     0.043 A 
HETATM   24  C   UNL     1     -40.165  58.588 -53.267  1.00  0.00     0.033 A 
HETATM   25  C   UNL     1     -39.369  59.223 -52.312  1.00  0.00     0.044 A 
HETATM   26  C   UNL     1     -39.601  58.996 -50.961  1.00  0.00     0.116 A 
HETATM   27  F   UNL     1     -38.832  59.607 -50.052  1.00  0.00    -0.206 F 
HETATM   28  C   UNL     1     -40.623  58.153 -50.542  1.00  0.00     0.044 A 
HETATM   29  C   UNL     1     -41.427  57.513 -51.488  1.00  0.00     0.033 A 
ENDBRANCH   2  23
BRANCH   1  30
HETATM   30  C   UNL     1     -43.832  58.875 -54.104  1.00  0.00     0.255 C 
HETATM   31  C   UNL     1     -45.204  58.889 -54.793  1.00  0.00     0.049 C 
BRANCH  30  32
HETATM   32  N   UNL     1     -43.987  59.172 -52.594  1.00  0.00    -0.060 N 
HETATM   33  H   UNL     1     -43.365  58.489 -52.130  1.00  0.00     0.280 HD
HETATM   34  C   UNL     1     -43.439  60.548 -52.246  1.00  0.00     0.236 C 
HETATM   35  C   UNL     1     -43.485  60.771 -50.742  1.00  0.00     0.028 C 
HETATM   36  C   UNL     1     -44.895  60.602 -50.198  1.00  0.00     0.003 C 
HETATM   37  C   UNL     1     -45.445  59.234 -50.568  1.00  0.00     0.028 C 
HETATM   38  C   UNL     1     -45.392  58.984 -52.068  1.00  0.00     0.236 C 
ENDBRANCH  30  32
ENDBRANCH   1  30
TORSDOF 7
ENDMDL
MODEL 8
REMARK VINA RESULT:      -8.2      3.202      8.046
REMARK  7 active torsions:
REMARK  status: ('A' for Active; 'I' for Inactive)
REMARK    1  A    between atoms: C_2  and  N_3 
REMARK    2  A    between atoms: C_2  and  C_10 
REMARK    3  A    between atoms: N_11  and  C_12 
REMARK    4  A    between atoms: C_19  and  S_20 
REMARK    5  A    between atoms: S_20  and  C_21 
REMARK    6  A    between atoms: C_21  and  C_22 
REMARK    7  A    between atoms: C_21  and  C_28 
REMARK       I    between atoms: C_22  and  N_23 
REMARK       I    between atoms: N_23  and  C_24 
REMARK       I    between atoms: C_24  and  N_25 
ROOT
HETATM    1  C   UNL     1     -41.199  54.323 -51.086  1.00  0.00     0.166 A 
HETATM    2  N   UNL     1     -42.117  55.028 -51.856  1.00  0.00    -0.274 N 
HETATM    3  C   UNL     1     -42.925  55.650 -50.920  1.00  0.00     0.197 A 
HETATM    4  N   UNL     1     -42.564  55.295 -49.708  1.00  0.00    -0.122 NA
HETATM    5  N   UNL     1     -41.488  54.460 -49.809  1.00  0.00    -0.131 NA
ENDROOT
BRANCH   3   6
HETATM    6  S   UNL     1     -44.312  56.633 -51.246  1.00  0.00    -0.070 SA
BRANCH   6   7
HETATM    7  C   UNL     1     -43.561  58.194 -51.837  1.00  0.00     0.180 C 
BRANCH   7   8
HETATM    8  C   UNL     1     -43.792  58.343 -53.350  1.00  0.00     0.244 C 
HETATM    9  N   UNL     1     -42.894  59.172 -54.004  1.00  0.00    -0.278 N 
HETATM   10  C   UNL     1     -42.694  59.323 -55.345  1.00  0.00     0.320 C 
HETATM   11  H   UNL     1     -42.175  59.639 -53.466  1.00  0.00     0.173 HD
HETATM   12  N   UNL     1     -43.510  58.635 -56.169  1.00  0.00    -0.352 N 
HETATM   13  O   UNL     1     -41.785  60.019 -55.778  1.00  0.00    -0.247 OA
HETATM   14  H   UNL     1     -44.387  58.273 -55.814  1.00  0.00     0.160 HD
HETATM   15  H   UNL     1     -43.419  58.814 -57.160  1.00  0.00     0.160 HD
HETATM   16  O   UNL     1     -44.774  57.821 -53.890  1.00  0.00    -0.271 OA
ENDBRANCH   7   8
BRANCH   7  17
HETATM   17  C   UNL     1     -43.948  59.445 -51.053  1.00  0.00    -0.035 A 
HETATM   18  C   UNL     1     -43.028  60.401 -50.590  1.00  0.00     0.009 A 
HETATM   19  C   UNL     1     -43.455  61.508 -49.852  1.00  0.00     0.001 A 
HETATM   20  C   UNL     1     -44.803  61.675 -49.552  1.00  0.00     0.000 A 
HETATM   21  C   UNL     1     -45.730  60.736 -49.991  1.00  0.00     0.001 A 
HETATM   22  C   UNL     1     -45.308  59.633 -50.735  1.00  0.00     0.009 A 
ENDBRANCH   7  17
ENDBRANCH   6   7
ENDBRANCH   3   6
BRANCH   2  23
HETATM   23  C   UNL     1     -42.176  55.089 -53.268  1.00  0.00     0.043 A 
HETATM   24  C   UNL     1     -43.188  54.391 -53.948  1.00  0.00     0.033 A 
HETATM   25  C   UNL     1     -43.252  54.450 -55.341  1.00  0.00     0.044 A 
HETATM   26  C   UNL     1     -42.317  55.202 -56.042  1.00  0.00     0.116 A 
HETATM   27  F   UNL     1     -42.383  55.251 -57.378  1.00  0.00    -0.206 F 
HETATM   28  C   UNL     1     -41.321  55.907 -55.377  1.00  0.00     0.044 A 
HETATM   29  C   UNL     1     -41.248  55.858 -53.983  1.00  0.00     0.033 A 
ENDBRANCH   2  23
BRANCH   1  30
HETATM   30  C   UNL     1     -39.949  53.656 -51.578  1.00  0.00     0.255 C 
HETATM   31  C   UNL     1     -38.996  53.494 -50.385  1.00  0.00     0.049 C 
BRANCH  30  32
HETATM   32  N   UNL     1     -40.269  52.275 -52.199  1.00  0.00    -0.060 N 
HETATM   33  H   UNL     1     -41.277  52.137 -52.018  1.00  0.00     0.280 HD
HETATM   34  C   UNL     1     -40.111  52.306 -53.712  1.00  0.00     0.236 C 
HETATM   35  C   UNL     1     -40.549  50.980 -54.316  1.00  0.00     0.028 C 
HETATM   36  C   UNL     1     -39.777  49.814 -53.719  1.00  0.00     0.003 C 
HETATM   37  C   UNL     1     -39.920  49.803 -52.205  1.00  0.00     0.028 C 
HETATM   38  C   UNL     1     -39.503  51.127 -51.582  1.00  0.00     0.236 C 
ENDBRANCH  30  32
ENDBRANCH   1  30
TORSDOF 7
ENDMDL
MODEL 9
REMARK VINA RESULT:      -8.1      4.383      7.505
REMARK  7 active torsions:
REMARK  status: ('A' for Active; 'I' for Inactive)
REMARK    1  A    between atoms: C_2  and  N_3 
REMARK    2  A    between atoms: C_2  and  C_10 
REMARK    3  A    between atoms: N_11  and  C_12 
REMARK    4  A    between atoms: C_19  and  S_20 
REMARK    5  A    between atoms: S_20  and  C_21 
REMARK    6  A    between atoms: C_21  and  C_22 
REMARK    7  A    between atoms: C_21  and  C_28 
REMARK       I    between atoms: C_22  and  N_23 
REMARK       I    between atoms: N_23  and  C_24 
REMARK       I    between atoms: C_24  and  N_25 
ROOT
HETATM    1  C   UNL     1     -41.067  54.418 -51.133  1.00  0.00     0.166 A 
HETATM    2  N   UNL     1     -42.044  55.086 -51.862  1.00  0.00    -0.274 N 
HETATM    3  C   UNL     1     -42.782  55.748 -50.896  1.00  0.00     0.197 A 
HETATM    4  N   UNL     1     -42.328  55.450 -49.700  1.00  0.00    -0.122 NA
HETATM    5  N   UNL     1     -41.259  54.613 -49.844  1.00  0.00    -0.131 NA
ENDROOT
BRANCH   3   6
HETATM    6  S   UNL     1     -44.195  56.713 -51.160  1.00  0.00    -0.070 SA
BRANCH   6   7
HETATM    7  C   UNL     1     -43.505  58.224 -51.929  1.00  0.00     0.180 C 
BRANCH   7   8
HETATM    8  C   UNL     1     -44.479  59.398 -51.737  1.00  0.00     0.244 C 
HETATM    9  N   UNL     1     -45.000  59.529 -50.459  1.00  0.00    -0.278 N 
HETATM   10  C   UNL     1     -45.689  60.576 -49.922  1.00  0.00     0.320 C 
HETATM   11  H   UNL     1     -44.739  58.853 -49.751  1.00  0.00     0.173 HD
HETATM   12  N   UNL     1     -45.975  61.608 -50.741  1.00  0.00    -0.352 N 
HETATM   13  O   UNL     1     -45.996  60.596 -48.737  1.00  0.00    -0.247 OA
HETATM   14  H   UNL     1     -45.937  61.473 -51.745  1.00  0.00     0.160 HD
HETATM   15  H   UNL     1     -46.561  62.343 -50.368  1.00  0.00     0.160 HD
HETATM   16  O   UNL     1     -44.821  60.095 -52.699  1.00  0.00    -0.271 OA
ENDBRANCH   7   8
BRANCH   7  17
HETATM   17  C   UNL     1     -42.074  58.570 -51.526  1.00  0.00    -0.035 A 
HETATM   18  C   UNL     1     -41.690  58.940 -50.226  1.00  0.00     0.009 A 
HETATM   19  C   UNL     1     -40.363  59.272 -49.938  1.00  0.00     0.001 A 
HETATM   20  C   UNL     1     -39.401  59.254 -50.943  1.00  0.00     0.000 A 
HETATM   21  C   UNL     1     -39.761  58.901 -52.238  1.00  0.00     0.001 A 
HETATM   22  C   UNL     1     -41.083  58.561 -52.528  1.00  0.00     0.009 A 
ENDBRANCH   7  17
ENDBRANCH   6   7
ENDBRANCH   3   6
BRANCH   2  23
HETATM   23  C   UNL     1     -42.211  55.082 -53.267  1.00  0.00     0.043 A 
HETATM   24  C   UNL     1     -41.344  55.842 -54.067  1.00  0.00     0.033 A 
HETATM   25  C   UNL     1     -41.504  55.839 -55.455  1.00  0.00     0.044 A 
HETATM   26  C   UNL     1     -42.516  55.080 -56.030  1.00  0.00     0.116 A 
HETATM   27  F   UNL     1     -42.664  55.084 -57.360  1.00  0.00    -0.206 F 
HETATM   28  C   UNL     1     -43.369  54.313 -55.245  1.00  0.00     0.044 A 
HETATM   29  C   UNL     1     -43.218  54.307 -53.857  1.00  0.00     0.033 A 
ENDBRANCH   2  23
BRANCH   1  30
HETATM   30  C   UNL     1     -39.855  53.731 -51.687  1.00  0.00     0.255 C 
HETATM   31  C   UNL     1     -38.843  53.558 -50.545  1.00  0.00     0.049 C 
BRANCH  30  32
HETATM   32  N   UNL     1     -40.227  52.354 -52.286  1.00  0.00    -0.060 N 
HETATM   33  H   UNL     1     -41.237  52.252 -52.092  1.00  0.00     0.280 HD
HETATM   34  C   UNL     1     -40.085  52.360 -53.801  1.00  0.00     0.236 C 
HETATM   35  C   UNL     1     -40.574  51.042 -54.383  1.00  0.00     0.028 C 
HETATM   36  C   UNL     1     -39.834  49.859 -53.779  1.00  0.00     0.003 C 
HETATM   37  C   UNL     1     -39.961  49.872 -52.263  1.00  0.00     0.028 C 
HETATM   38  C   UNL     1     -39.492  51.189 -51.662  1.00  0.00     0.236 C 
ENDBRANCH  30  32
ENDBRANCH   1  30
TORSDOF 7
ENDMDL
MODEL 10
REMARK VINA RESULT:      -8.0      3.085      5.753
REMARK  7 active torsions:
REMARK  status: ('A' for Active; 'I' for Inactive)
REMARK    1  A    between atoms: C_2  and  N_3 
REMARK    2  A    between atoms: C_2  and  C_10 
REMARK    3  A    between atoms: N_11  and  C_12 
REMARK    4  A    between atoms: C_19  and  S_20 
REMARK    5  A    between atoms: S_20  and  C_21 
REMARK    6  A    between atoms: C_21  and  C_22 
REMARK    7  A    between atoms: C_21  and  C_28 
REMARK       I    between atoms: C_22  and  N_23 
REMARK       I    between atoms: N_23  and  C_24 
REMARK       I    between atoms: C_24  and  N_25 
ROOT
HETATM    1  C   UNL     1     -43.206  57.053 -56.816  1.00  0.00     0.166 A 
HETATM    2  N   UNL     1     -42.845  57.614 -55.596  1.00  0.00    -0.274 N 
HETATM    3  C   UNL     1     -42.039  56.651 -55.016  1.00  0.00     0.197 A 
HETATM    4  N   UNL     1     -41.980  55.588 -55.786  1.00  0.00    -0.122 NA
HETATM    5  N   UNL     1     -42.715  55.834 -56.911  1.00  0.00    -0.131 NA
ENDROOT
BRANCH   3   6
HETATM    6  S   UNL     1     -41.318  56.721 -53.443  1.00  0.00    -0.070 SA
BRANCH   6   7
HETATM    7  C   UNL     1     -42.744  56.408 -52.339  1.00  0.00     0.180 C 
BRANCH   7   8
HETATM    8  C   UNL     1     -42.353  55.386 -51.260  1.00  0.00     0.244 C 
HETATM    9  N   UNL     1     -41.244  54.609 -51.557  1.00  0.00    -0.278 N 
HETATM   10  C   UNL     1     -40.526  53.796 -50.730  1.00  0.00     0.320 C 
HETATM   11  H   UNL     1     -40.782  54.735 -52.449  1.00  0.00     0.173 HD
HETATM   12  N   UNL     1     -40.970  53.660 -49.465  1.00  0.00    -0.352 N 
HETATM   13  O   UNL     1     -39.498  53.250 -51.111  1.00  0.00    -0.247 OA
HETATM   14  H   UNL     1     -41.927  53.908 -49.243  1.00  0.00     0.160 HD
HETATM   15  H   UNL     1     -40.490  52.990 -48.878  1.00  0.00     0.160 HD
HETATM   16  O   UNL     1     -43.058  55.232 -50.255  1.00  0.00    -0.271 OA
ENDBRANCH   7   8
BRANCH   7  17
HETATM   17  C   UNL     1     -43.411  57.654 -51.761  1.00  0.00    -0.035 A 
HETATM   18  C   UNL     1     -42.715  58.809 -51.369  1.00  0.00     0.009 A 
HETATM   19  C   UNL     1     -43.391  59.902 -50.819  1.00  0.00     0.001 A 
HETATM   20  C   UNL     1     -44.770  59.855 -50.637  1.00  0.00     0.000 A 
HETATM   21  C   UNL     1     -45.478  58.717 -51.008  1.00  0.00     0.001 A 
HETATM   22  C   UNL     1     -44.806  57.628 -51.565  1.00  0.00     0.009 A 
ENDBRANCH   7  17
ENDBRANCH   6   7
ENDBRANCH   3   6
BRANCH   2  23
HETATM   23  C   UNL     1     -43.218  58.885 -55.099  1.00  0.00     0.043 A 
HETATM   24  C   UNL     1     -44.570  59.150 -54.827  1.00  0.00     0.033 A 
HETATM   25  C   UNL     1     -44.943  60.402 -54.335  1.00  0.00     0.044 A 
HETATM   26  C   UNL     1     -43.973  61.372 -54.113  1.00  0.00     0.116 A 
HETATM   27  F   UNL     1     -44.338  62.570 -53.643  1.00  0.00    -0.206 F 
HETATM   28  C   UNL     1     -42.631  61.112 -54.365  1.00  0.00     0.044 A 
HETATM   29  C   UNL     1     -42.245  59.863 -54.857  1.00  0.00     0.033 A 
ENDBRANCH   2  23
BRANCH   1  30
HETATM   30  C   UNL     1     -43.886  57.754 -57.954  1.00  0.00     0.255 C 
HETATM   31  C   UNL     1     -42.802  58.405 -58.826  1.00  0.00     0.049 C 
BRANCH  30  32
HETATM   32  N   UNL     1     -44.723  56.761 -58.794  1.00  0.00    -0.060 N 
HETATM   33  H   UNL     1     -44.910  55.973 -58.152  1.00  0.00     0.280 HD
HETATM   34  C   UNL     1     -46.080  57.350 -59.147  1.00  0.00     0.236 C 
HETATM   35  C   UNL     1     -46.936  56.316 -59.862  1.00  0.00     0.028 C 
HETATM   36  C   UNL     1     -46.242  55.784 -61.106  1.00  0.00     0.003 C 
HETATM   37  C   UNL     1     -44.877  55.217 -60.750  1.00  0.00     0.028 C 
HETATM   38  C   UNL     1     -44.011  56.231 -60.017  1.00  0.00     0.236 C 
ENDBRANCH  30  32
ENDBRANCH   1  30
TORSDOF 7
ENDMDL
