MODEL 1
REMARK VINA RESULT:      -8.2      0.000      0.000
REMARK  2 active torsions:
REMARK  status: ('A' for Active; 'I' for Inactive)
REMARK    1  A    between atoms: C_2  and  C_3 
REMARK    2  A    between atoms: C_6  and  C_7 
ROOT
HETATM    1  C   UNL     1     -43.150  56.730 -53.350  1.00  0.00     0.197 C 
HETATM    2  N   UNL     1     -43.022  56.780 -54.816  1.00  0.00    -0.345 N 
HETATM    3  C   UNL     1     -42.243  55.920 -55.465  1.00  0.00     0.113 C 
HETATM    4  N   UNL     1     -42.124  55.980 -56.784  1.00  0.00    -0.376 N 
HETATM    5  H   UNL     1     -41.563  55.270 -57.241  1.00  0.00     0.161 HD
HETATM    6  C   UNL     1     -41.535  54.871 -54.713  1.00  0.00     0.029 A 
HETATM    7  C   UNL     1     -42.036  54.593 -53.436  1.00  0.00     0.025 A 
HETATM    8  N   UNL     1     -43.137  55.327 -52.971  1.00  0.00    -0.267 NA
HETATM    9  C   UNL     1     -40.432  54.150 -55.194  1.00  0.00     0.019 A 
HETATM   10  C   UNL     1     -39.877  53.123 -54.426  1.00  0.00     0.025 A 
HETATM   11  C   UNL     1     -40.431  52.805 -53.188  1.00  0.00     0.035 A 
HETATM   12 CL   UNL     1     -39.765  51.522 -52.259  1.00  0.00    -0.084 Cl
HETATM   13  C   UNL     1     -41.516  53.527 -52.696  1.00  0.00     0.048 A 
HETATM   14  C   UNL     1     -43.784  57.818 -55.525  1.00  0.00     0.128 C 
HETATM   15  C   UNL     1     -44.106  57.358 -56.929  1.00  0.00     0.039 C 
HETATM   16  C   UNL     1     -42.812  56.975 -57.602  1.00  0.00     0.123 C 
HETATM   17  H   UNL     1     -43.261  55.214 -51.967  1.00  0.00     0.130 HD
ENDROOT
BRANCH   1  18
HETATM   18  C   UNL     1     -42.092  57.543 -52.621  1.00  0.00    -0.021 A 
HETATM   19  C   UNL     1     -41.090  58.272 -53.281  1.00  0.00     0.011 A 
HETATM   20  C   UNL     1     -40.121  58.979 -52.562  1.00  0.00     0.007 A 
HETATM   21  C   UNL     1     -40.126  58.974 -51.165  1.00  0.00    -0.059 A 
HETATM   22  C   UNL     1     -41.132  58.272 -50.495  1.00  0.00     0.007 A 
HETATM   23  C   UNL     1     -42.102  57.567 -51.213  1.00  0.00     0.011 A 
BRANCH  21  24
HETATM   24  C   UNL     1     -39.076  59.733 -50.390  1.00  0.00     0.034 C 
HETATM   25  C   UNL     1     -37.690  59.138 -50.580  1.00  0.00     0.010 C 
ENDBRANCH  21  24
ENDBRANCH   1  18
TORSDOF 2
ENDMDL
MODEL 2
REMARK VINA RESULT:      -7.7      2.498      5.820
REMARK  2 active torsions:
REMARK  status: ('A' for Active; 'I' for Inactive)
REMARK    1  A    between atoms: C_2  and  C_3 
REMARK    2  A    between atoms: C_6  and  C_7 
ROOT
HETATM    1  C   UNL     1     -42.622  55.702 -52.070  1.00  0.00     0.197 C 
HETATM    2  N   UNL     1     -41.796  56.891 -51.801  1.00  0.00    -0.345 N 
HETATM    3  C   UNL     1     -41.562  57.791 -52.751  1.00  0.00     0.113 C 
HETATM    4  N   UNL     1     -40.808  58.854 -52.503  1.00  0.00    -0.376 N 
HETATM    5  H   UNL     1     -40.702  59.541 -53.240  1.00  0.00     0.161 HD
HETATM    6  C   UNL     1     -42.177  57.624 -54.077  1.00  0.00     0.029 A 
HETATM    7  C   UNL     1     -43.277  56.760 -54.135  1.00  0.00     0.025 A 
HETATM    8  N   UNL     1     -43.693  56.121 -52.958  1.00  0.00    -0.267 NA
HETATM    9  C   UNL     1     -41.743  58.269 -55.245  1.00  0.00     0.019 A 
HETATM   10  C   UNL     1     -42.443  58.095 -56.443  1.00  0.00     0.025 A 
HETATM   11  C   UNL     1     -43.581  57.292 -56.472  1.00  0.00     0.035 A 
HETATM   12 CL   UNL     1     -44.456  57.104 -57.938  1.00  0.00    -0.084 Cl
HETATM   13  C   UNL     1     -44.009  56.635 -55.320  1.00  0.00     0.048 A 
HETATM   14  C   UNL     1     -41.242  57.036 -50.447  1.00  0.00     0.128 C 
HETATM   15  C   UNL     1     -41.040  58.499 -50.122  1.00  0.00     0.039 C 
HETATM   16  C   UNL     1     -40.184  59.102 -51.206  1.00  0.00     0.123 C 
HETATM   17  H   UNL     1     -44.330  55.353 -53.158  1.00  0.00     0.130 HD
ENDROOT
BRANCH   1  18
HETATM   18  C   UNL     1     -41.830  54.527 -52.622  1.00  0.00    -0.021 A 
HETATM   19  C   UNL     1     -42.052  53.979 -53.896  1.00  0.00     0.011 A 
HETATM   20  C   UNL     1     -41.316  52.877 -54.344  1.00  0.00     0.007 A 
HETATM   21  C   UNL     1     -40.342  52.292 -53.531  1.00  0.00    -0.059 A 
HETATM   22  C   UNL     1     -40.095  52.843 -52.270  1.00  0.00     0.007 A 
HETATM   23  C   UNL     1     -40.828  53.945 -51.823  1.00  0.00     0.011 A 
BRANCH  21  24
HETATM   24  C   UNL     1     -39.554  51.100 -54.015  1.00  0.00     0.034 C 
HETATM   25  C   UNL     1     -40.458  49.943 -54.408  1.00  0.00     0.010 C 
ENDBRANCH  21  24
ENDBRANCH   1  18
TORSDOF 2
ENDMDL
MODEL 3
REMARK VINA RESULT:      -7.5      1.378      1.693
REMARK  2 active torsions:
REMARK  status: ('A' for Active; 'I' for Inactive)
REMARK    1  A    between atoms: C_2  and  C_3 
REMARK    2  A    between atoms: C_6  and  C_7 
ROOT
HETATM    1  C   UNL     1     -44.306  56.686 -54.578  1.00  0.00     0.197 C 
HETATM    2  N   UNL     1     -43.779  56.826 -55.945  1.00  0.00    -0.345 N 
HETATM    3  C   UNL     1     -42.698  56.157 -56.334  1.00  0.00     0.113 C 
HETATM    4  N   UNL     1     -42.224  56.296 -57.565  1.00  0.00    -0.376 N 
HETATM    5  H   UNL     1     -41.430  55.726 -57.834  1.00  0.00     0.161 HD
HETATM    6  C   UNL     1     -42.045  55.225 -55.400  1.00  0.00     0.029 A 
HETATM    7  C   UNL     1     -42.825  54.801 -54.317  1.00  0.00     0.025 A 
HETATM    8  N   UNL     1     -44.132  55.295 -54.196  1.00  0.00    -0.267 NA
HETATM    9  C   UNL     1     -40.734  54.746 -55.536  1.00  0.00     0.019 A 
HETATM   10  C   UNL     1     -40.233  53.807 -54.630  1.00  0.00     0.025 A 
HETATM   11  C   UNL     1     -41.043  53.336 -53.600  1.00  0.00     0.035 A 
HETATM   12 CL   UNL     1     -40.436  52.160 -52.504  1.00  0.00    -0.084 Cl
HETATM   13  C   UNL     1     -42.341  53.819 -53.447  1.00  0.00     0.048 A 
HETATM   14  C   UNL     1     -44.493  57.734 -56.855  1.00  0.00     0.128 C 
HETATM   15  C   UNL     1     -44.309  57.285 -58.287  1.00  0.00     0.039 C 
HETATM   16  C   UNL     1     -42.829  57.181 -58.556  1.00  0.00     0.123 C 
HETATM   17  H   UNL     1     -44.511  55.115 -53.269  1.00  0.00     0.130 HD
ENDROOT
BRANCH   1  18
HETATM   18  C   UNL     1     -43.675  57.649 -53.585  1.00  0.00    -0.021 A 
HETATM   19  C   UNL     1     -42.659  58.555 -53.929  1.00  0.00     0.011 A 
HETATM   20  C   UNL     1     -42.090  59.399 -52.969  1.00  0.00     0.007 A 
HETATM   21  C   UNL     1     -42.520  59.357 -51.640  1.00  0.00    -0.059 A 
HETATM   22  C   UNL     1     -43.547  58.477 -51.289  1.00  0.00     0.007 A 
HETATM   23  C   UNL     1     -44.117  57.635 -52.248  1.00  0.00     0.011 A 
BRANCH  21  24
HETATM   24  C   UNL     1     -41.902  60.264 -50.604  1.00  0.00     0.034 C 
HETATM   25  C   UNL     1     -40.526  59.780 -50.175  1.00  0.00     0.010 C 
ENDBRANCH  21  24
ENDBRANCH   1  18
TORSDOF 2
ENDMDL
MODEL 4
REMARK VINA RESULT:      -7.3      2.762      5.518
REMARK  2 active torsions:
REMARK  status: ('A' for Active; 'I' for Inactive)
REMARK    1  A    between atoms: C_2  and  C_3 
REMARK    2  A    between atoms: C_6  and  C_7 
ROOT
HETATM    1  C   UNL     1     -43.641  55.791 -53.236  1.00  0.00     0.197 C 
HETATM    2  N   UNL     1     -43.151  57.127 -52.859  1.00  0.00    -0.345 N 
HETATM    3  C   UNL     1     -42.693  57.973 -53.776  1.00  0.00     0.113 C 
HETATM    4  N   UNL     1     -42.244  59.171 -53.426  1.00  0.00    -0.376 N 
HETATM    5  H   UNL     1     -41.956  59.802 -54.165  1.00  0.00     0.161 HD
HETATM    6  C   UNL     1     -42.720  57.588 -55.197  1.00  0.00     0.029 A 
HETATM    7  C   UNL     1     -43.586  56.539 -55.528  1.00  0.00     0.025 A 
HETATM    8  N   UNL     1     -44.333  55.935 -54.505  1.00  0.00    -0.267 NA
HETATM    9  C   UNL     1     -41.962  58.202 -56.205  1.00  0.00     0.019 A 
HETATM   10  C   UNL     1     -42.116  57.806 -57.537  1.00  0.00     0.025 A 
HETATM   11  C   UNL     1     -43.034  56.812 -57.864  1.00  0.00     0.035 A 
HETATM   12 CL   UNL     1     -43.243  56.347 -59.505  1.00  0.00    -0.084 Cl
HETATM   13  C   UNL     1     -43.780  56.186 -56.867  1.00  0.00     0.048 A 
HETATM   14  C   UNL     1     -43.187  57.482 -51.432  1.00  0.00     0.128 C 
HETATM   15  C   UNL     1     -43.325  58.979 -51.272  1.00  0.00     0.039 C 
HETATM   16  C   UNL     1     -42.207  59.635 -52.042  1.00  0.00     0.123 C 
HETATM   17  H   UNL     1     -44.733  55.051 -54.811  1.00  0.00     0.130 HD
ENDROOT
BRANCH   1  18
HETATM   18  C   UNL     1     -42.546  54.736 -53.283  1.00  0.00    -0.021 A 
HETATM   19  C   UNL     1     -41.563  54.601 -52.289  1.00  0.00     0.011 A 
HETATM   20  C   UNL     1     -40.559  53.633 -52.396  1.00  0.00     0.007 A 
HETATM   21  C   UNL     1     -40.510  52.777 -53.499  1.00  0.00    -0.059 A 
HETATM   22  C   UNL     1     -41.497  52.885 -54.483  1.00  0.00     0.007 A 
HETATM   23  C   UNL     1     -42.501  53.850 -54.376  1.00  0.00     0.011 A 
BRANCH  21  24
HETATM   24  C   UNL     1     -39.423  51.737 -53.615  1.00  0.00     0.034 C 
HETATM   25  C   UNL     1     -39.924  50.463 -54.277  1.00  0.00     0.010 C 
ENDBRANCH  21  24
ENDBRANCH   1  18
TORSDOF 2
ENDMDL
MODEL 5
REMARK VINA RESULT:      -7.2      2.520      5.485
REMARK  2 active torsions:
REMARK  status: ('A' for Active; 'I' for Inactive)
REMARK    1  A    between atoms: C_2  and  C_3 
REMARK    2  A    between atoms: C_6  and  C_7 
ROOT
HETATM    1  C   UNL     1     -41.727  57.747 -54.353  1.00  0.00     0.197 C 
HETATM    2  N   UNL     1     -42.957  58.259 -53.729  1.00  0.00    -0.345 N 
HETATM    3  C   UNL     1     -42.934  58.813 -52.520  1.00  0.00     0.113 C 
HETATM    4  N   UNL     1     -44.049  59.262 -51.961  1.00  0.00    -0.376 N 
HETATM    5  H   UNL     1     -43.975  59.725 -51.063  1.00  0.00     0.161 HD
HETATM    6  C   UNL     1     -41.651  58.961 -51.815  1.00  0.00     0.029 A 
HETATM    7  C   UNL     1     -40.503  58.883 -52.613  1.00  0.00     0.025 A 
HETATM    8  N   UNL     1     -40.655  58.659 -53.989  1.00  0.00    -0.267 NA
HETATM    9  C   UNL     1     -41.518  59.180 -50.435  1.00  0.00     0.019 A 
HETATM   10  C   UNL     1     -40.253  59.378 -49.875  1.00  0.00     0.025 A 
HETATM   11  C   UNL     1     -39.124  59.372 -50.690  1.00  0.00     0.035 A 
HETATM   12 CL   UNL     1     -37.573  59.645 -50.004  1.00  0.00    -0.084 Cl
HETATM   13  C   UNL     1     -39.245  59.139 -52.059  1.00  0.00     0.048 A 
HETATM   14  C   UNL     1     -44.207  58.129 -54.494  1.00  0.00     0.128 C 
HETATM   15  C   UNL     1     -45.171  59.226 -54.103  1.00  0.00     0.039 C 
HETATM   16  C   UNL     1     -45.355  59.173 -52.607  1.00  0.00     0.123 C 
HETATM   17  H   UNL     1     -39.774  58.386 -54.420  1.00  0.00     0.130 HD
ENDROOT
BRANCH   1  18
HETATM   18  C   UNL     1     -41.417  56.304 -53.986  1.00  0.00    -0.021 A 
HETATM   19  C   UNL     1     -41.930  55.673 -52.842  1.00  0.00     0.011 A 
HETATM   20  C   UNL     1     -41.588  54.352 -52.534  1.00  0.00     0.007 A 
HETATM   21  C   UNL     1     -40.724  53.628 -53.359  1.00  0.00    -0.059 A 
HETATM   22  C   UNL     1     -40.225  54.237 -54.514  1.00  0.00     0.007 A 
HETATM   23  C   UNL     1     -40.567  55.556 -54.824  1.00  0.00     0.011 A 
BRANCH  21  24
HETATM   24  C   UNL     1     -40.352  52.205 -53.022  1.00  0.00     0.034 C 
HETATM   25  C   UNL     1     -39.640  52.107 -51.682  1.00  0.00     0.010 C 
ENDBRANCH  21  24
ENDBRANCH   1  18
TORSDOF 2
ENDMDL
MODEL 6
REMARK VINA RESULT:      -7.1      2.960      5.129
REMARK  2 active torsions:
REMARK  status: ('A' for Active; 'I' for Inactive)
REMARK    1  A    between atoms: C_2  and  C_3 
REMARK    2  A    between atoms: C_6  and  C_7 
ROOT
HETATM    1  C   UNL     1     -41.224  57.173 -52.048  1.00  0.00     0.197 C 
HETATM    2  N   UNL     1     -41.153  55.815 -51.484  1.00  0.00    -0.345 N 
HETATM    3  C   UNL     1     -41.540  54.759 -52.192  1.00  0.00     0.113 C 
HETATM    4  N   UNL     1     -41.483  53.540 -51.672  1.00  0.00    -0.376 N 
HETATM    5  H   UNL     1     -41.737  52.760 -52.267  1.00  0.00     0.161 HD
HETATM    6  C   UNL     1     -42.001  54.942 -53.577  1.00  0.00     0.029 A 
HETATM    7  C   UNL     1     -41.626  56.143 -54.191  1.00  0.00     0.025 A 
HETATM    8  N   UNL     1     -40.872  57.068 -53.454  1.00  0.00    -0.267 NA
HETATM    9  C   UNL     1     -42.760  54.007 -54.297  1.00  0.00     0.019 A 
HETATM   10  C   UNL     1     -43.086  54.249 -55.634  1.00  0.00     0.025 A 
HETATM   11  C   UNL     1     -42.644  55.414 -56.257  1.00  0.00     0.035 A 
HETATM   12 CL   UNL     1     -43.021  55.695 -57.909  1.00  0.00    -0.084 Cl
HETATM   13  C   UNL     1     -41.905  56.355 -55.545  1.00  0.00     0.048 A 
HETATM   14  C   UNL     1     -40.642  55.680 -50.112  1.00  0.00     0.128 C 
HETATM   15  C   UNL     1     -40.002  54.322 -49.927  1.00  0.00     0.039 C 
HETATM   16  C   UNL     1     -41.015  53.274 -50.315  1.00  0.00     0.123 C 
HETATM   17  H   UNL     1     -40.864  57.981 -53.903  1.00  0.00     0.130 HD
ENDROOT
BRANCH   1  18
HETATM   18  C   UNL     1     -42.568  57.850 -51.830  1.00  0.00    -0.021 A 
HETATM   19  C   UNL     1     -43.682  57.193 -51.283  1.00  0.00     0.011 A 
HETATM   20  C   UNL     1     -44.906  57.853 -51.133  1.00  0.00     0.007 A 
HETATM   21  C   UNL     1     -45.050  59.185 -51.528  1.00  0.00    -0.059 A 
HETATM   22  C   UNL     1     -43.943  59.858 -52.053  1.00  0.00     0.007 A 
HETATM   23  C   UNL     1     -42.719  59.200 -52.201  1.00  0.00     0.011 A 
BRANCH  21  24
HETATM   24  C   UNL     1     -46.373  59.894 -51.371  1.00  0.00     0.034 C 
HETATM   25  C   UNL     1     -46.577  60.959 -52.436  1.00  0.00     0.010 C 
ENDBRANCH  21  24
ENDBRANCH   1  18
TORSDOF 2
ENDMDL
MODEL 7
REMARK VINA RESULT:      -6.7      3.017      5.486
REMARK  2 active torsions:
REMARK  status: ('A' for Active; 'I' for Inactive)
REMARK    1  A    between atoms: C_2  and  C_3 
REMARK    2  A    between atoms: C_6  and  C_7 
ROOT
HETATM    1  C   UNL     1     -42.457  57.657 -56.295  1.00  0.00     0.197 C 
HETATM    2  N   UNL     1     -43.892  57.834 -56.571  1.00  0.00    -0.345 N 
HETATM    3  C   UNL     1     -44.719  58.289 -55.635  1.00  0.00     0.113 C 
HETATM    4  N   UNL     1     -46.012  58.435 -55.889  1.00  0.00    -0.376 N 
HETATM    5  H   UNL     1     -46.595  58.836 -55.163  1.00  0.00     0.161 HD
HETATM    6  C   UNL     1     -44.185  58.667 -54.316  1.00  0.00     0.029 A 
HETATM    7  C   UNL     1     -42.807  58.907 -54.262  1.00  0.00     0.025 A 
HETATM    8  N   UNL     1     -42.052  58.756 -55.434  1.00  0.00    -0.267 NA
HETATM    9  C   UNL     1     -44.957  58.809 -53.153  1.00  0.00     0.019 A 
HETATM   10  C   UNL     1     -44.361  59.243 -51.965  1.00  0.00     0.025 A 
HETATM   11  C   UNL     1     -43.003  59.549 -51.942  1.00  0.00     0.035 A 
HETATM   12 CL   UNL     1     -42.279  60.111 -50.488  1.00  0.00    -0.084 Cl
HETATM   13  C   UNL     1     -42.226  59.396 -53.088  1.00  0.00     0.048 A 
HETATM   14  C   UNL     1     -44.368  57.484 -57.918  1.00  0.00     0.128 C 
HETATM   15  C   UNL     1     -45.588  58.306 -58.267  1.00  0.00     0.039 C 
HETATM   16  C   UNL     1     -46.612  58.104 -57.178  1.00  0.00     0.123 C 
HETATM   17  H   UNL     1     -41.055  58.719 -55.231  1.00  0.00     0.130 HD
ENDROOT
BRANCH   1  18
HETATM   18  C   UNL     1     -42.117  56.297 -55.706  1.00  0.00    -0.021 A 
HETATM   19  C   UNL     1     -42.975  55.188 -55.781  1.00  0.00     0.011 A 
HETATM   20  C   UNL     1     -42.627  53.966 -55.195  1.00  0.00     0.007 A 
HETATM   21  C   UNL     1     -41.415  53.822 -54.516  1.00  0.00    -0.059 A 
HETATM   22  C   UNL     1     -40.541  54.911 -54.454  1.00  0.00     0.007 A 
HETATM   23  C   UNL     1     -40.887  56.131 -55.040  1.00  0.00     0.011 A 
BRANCH  21  24
HETATM   24  C   UNL     1     -41.044  52.505 -53.879  1.00  0.00     0.034 C 
HETATM   25  C   UNL     1     -40.287  52.698 -52.575  1.00  0.00     0.010 C 
ENDBRANCH  21  24
ENDBRANCH   1  18
TORSDOF 2
ENDMDL
MODEL 8
REMARK VINA RESULT:      -6.6      3.333      4.989
REMARK  2 active torsions:
REMARK  status: ('A' for Active; 'I' for Inactive)
REMARK    1  A    between atoms: C_2  and  C_3 
REMARK    2  A    between atoms: C_6  and  C_7 
ROOT
HETATM    1  C   UNL     1     -43.766  56.607 -51.946  1.00  0.00     0.197 C 
HETATM    2  N   UNL     1     -43.199  56.143 -53.223  1.00  0.00    -0.345 N 
HETATM    3  C   UNL     1     -42.021  56.588 -53.651  1.00  0.00     0.113 C 
HETATM    4  N   UNL     1     -41.523  56.173 -54.808  1.00  0.00    -0.376 N 
HETATM    5  H   UNL     1     -40.598  56.497 -55.068  1.00  0.00     0.161 HD
HETATM    6  C   UNL     1     -41.249  57.520 -52.814  1.00  0.00     0.029 A 
HETATM    7  C   UNL     1     -41.606  57.564 -51.461  1.00  0.00     0.025 A 
HETATM    8  N   UNL     1     -42.658  56.750 -51.016  1.00  0.00    -0.267 NA
HETATM    9  C   UNL     1     -40.203  58.332 -53.278  1.00  0.00     0.019 A 
HETATM   10  C   UNL     1     -39.486  59.131 -52.383  1.00  0.00     0.025 A 
HETATM   11  C   UNL     1     -39.802  59.110 -51.027  1.00  0.00     0.035 A 
HETATM   12 CL   UNL     1     -38.900  60.071 -49.925  1.00  0.00    -0.084 Cl
HETATM   13  C   UNL     1     -40.850  58.320 -50.560  1.00  0.00     0.048 A 
HETATM   14  C   UNL     1     -43.988  55.177 -54.001  1.00  0.00     0.128 C 
HETATM   15  C   UNL     1     -43.073  54.317 -54.843  1.00  0.00     0.039 C 
HETATM   16  C   UNL     1     -42.217  55.232 -55.682  1.00  0.00     0.123 C 
HETATM   17  H   UNL     1     -42.982  57.033 -50.094  1.00  0.00     0.130 HD
ENDROOT
BRANCH   1  18
HETATM   18  C   UNL     1     -44.589  57.879 -52.075  1.00  0.00    -0.021 A 
HETATM   19  C   UNL     1     -44.718  58.595 -53.276  1.00  0.00     0.011 A 
HETATM   20  C   UNL     1     -45.462  59.778 -53.333  1.00  0.00     0.007 A 
HETATM   21  C   UNL     1     -46.095  60.278 -52.192  1.00  0.00    -0.059 A 
HETATM   22  C   UNL     1     -45.994  59.562 -50.995  1.00  0.00     0.007 A 
HETATM   23  C   UNL     1     -45.252  58.379 -50.938  1.00  0.00     0.011 A 
BRANCH  21  24
HETATM   24  C   UNL     1     -46.892  61.557 -52.254  1.00  0.00     0.034 C 
HETATM   25  C   UNL     1     -46.726  62.391 -50.995  1.00  0.00     0.010 C 
ENDBRANCH  21  24
ENDBRANCH   1  18
TORSDOF 2
ENDMDL
MODEL 9
REMARK VINA RESULT:      -6.6     15.769     18.984
REMARK  2 active torsions:
REMARK  status: ('A' for Active; 'I' for Inactive)
REMARK    1  A    between atoms: C_2  and  C_3 
REMARK    2  A    between atoms: C_6  and  C_7 
ROOT
HETATM    1  C   UNL     1     -34.420  38.724 -53.963  1.00  0.00     0.197 C 
HETATM    2  N   UNL     1     -34.479  39.900 -53.079  1.00  0.00    -0.345 N 
HETATM    3  C   UNL     1     -34.863  41.086 -53.541  1.00  0.00     0.113 C 
HETATM    4  N   UNL     1     -34.903  42.142 -52.739  1.00  0.00    -0.376 N 
HETATM    5  H   UNL     1     -35.254  43.012 -53.122  1.00  0.00     0.161 HD
HETATM    6  C   UNL     1     -35.283  41.216 -54.945  1.00  0.00     0.029 A 
HETATM    7  C   UNL     1     -35.634  40.025 -55.590  1.00  0.00     0.025 A 
HETATM    8  N   UNL     1     -35.547  38.822 -54.875  1.00  0.00    -0.267 NA
HETATM    9  C   UNL     1     -35.359  42.429 -55.646  1.00  0.00     0.019 A 
HETATM   10  C   UNL     1     -35.839  42.451 -56.959  1.00  0.00     0.025 A 
HETATM   11  C   UNL     1     -36.256  41.269 -57.565  1.00  0.00     0.035 A 
HETATM   12 CL   UNL     1     -36.874  41.303 -59.168  1.00  0.00    -0.084 Cl
HETATM   13  C   UNL     1     -36.168  40.058 -56.882  1.00  0.00     0.048 A 
HETATM   14  C   UNL     1     -34.093  39.707 -51.673  1.00  0.00     0.128 C 
HETATM   15  C   UNL     1     -34.812  40.706 -50.795  1.00  0.00     0.039 C 
HETATM   16  C   UNL     1     -34.526  42.087 -51.330  1.00  0.00     0.123 C 
HETATM   17  H   UNL     1     -35.592  38.017 -55.496  1.00  0.00     0.130 HD
ENDROOT
BRANCH   1  18
HETATM   18  C   UNL     1     -33.091  38.578 -54.689  1.00  0.00    -0.021 A 
HETATM   19  C   UNL     1     -32.057  39.524 -54.600  1.00  0.00     0.011 A 
HETATM   20  C   UNL     1     -30.865  39.357 -55.313  1.00  0.00     0.007 A 
HETATM   21  C   UNL     1     -30.677  38.243 -56.136  1.00  0.00    -0.059 A 
HETATM   22  C   UNL     1     -31.690  37.283 -56.215  1.00  0.00     0.007 A 
HETATM   23  C   UNL     1     -32.879  37.448 -55.501  1.00  0.00     0.011 A 
BRANCH  21  24
HETATM   24  C   UNL     1     -29.393  38.068 -56.909  1.00  0.00     0.034 C 
HETATM   25  C   UNL     1     -28.187  37.959 -55.990  1.00  0.00     0.010 C 
ENDBRANCH  21  24
ENDBRANCH   1  18
TORSDOF 2
ENDMDL
MODEL 10
REMARK VINA RESULT:      -6.3      2.554      3.288
REMARK  2 active torsions:
REMARK  status: ('A' for Active; 'I' for Inactive)
REMARK    1  A    between atoms: C_2  and  C_3 
REMARK    2  A    between atoms: C_6  and  C_7 
ROOT
HETATM    1  C   UNL     1     -43.802  56.014 -52.406  1.00  0.00     0.197 C 
HETATM    2  N   UNL     1     -42.968  55.502 -53.506  1.00  0.00    -0.345 N 
HETATM    3  C   UNL     1     -41.819  54.879 -53.262  1.00  0.00     0.113 C 
HETATM    4  N   UNL     1     -41.069  54.431 -54.260  1.00  0.00    -0.376 N 
HETATM    5  H   UNL     1     -40.229  53.915 -54.025  1.00  0.00     0.161 HD
HETATM    6  C   UNL     1     -41.397  54.654 -51.870  1.00  0.00     0.029 A 
HETATM    7  C   UNL     1     -42.406  54.745 -50.904  1.00  0.00     0.025 A 
HETATM    8  N   UNL     1     -43.709  55.052 -51.321  1.00  0.00    -0.267 NA
HETATM    9  C   UNL     1     -40.086  54.351 -51.473  1.00  0.00     0.019 A 
HETATM   10  C   UNL     1     -39.805  54.085 -50.130  1.00  0.00     0.025 A 
HETATM   11  C   UNL     1     -40.831  54.105 -49.189  1.00  0.00     0.035 A 
HETATM   12 CL   UNL     1     -40.488  53.748 -47.543  1.00  0.00    -0.084 Cl
HETATM   13  C   UNL     1     -42.132  54.420 -49.572  1.00  0.00     0.048 A 
HETATM   14  C   UNL     1     -43.456  55.713 -54.878  1.00  0.00     0.128 C 
HETATM   15  C   UNL     1     -42.934  54.623 -55.787  1.00  0.00     0.039 C 
HETATM   16  C   UNL     1     -41.431  54.595 -55.665  1.00  0.00     0.123 C 
HETATM   17  H   UNL     1     -44.295  55.324 -50.535  1.00  0.00     0.130 HD
ENDROOT
BRANCH   1  18
HETATM   18  C   UNL     1     -43.432  57.424 -51.972  1.00  0.00    -0.021 A 
HETATM   19  C   UNL     1     -42.178  58.004 -52.221  1.00  0.00     0.011 A 
HETATM   20  C   UNL     1     -41.879  59.294 -51.772  1.00  0.00     0.007 A 
HETATM   21  C   UNL     1     -42.823  60.037 -51.060  1.00  0.00    -0.059 A 
HETATM   22  C   UNL     1     -44.084  59.481 -50.825  1.00  0.00     0.007 A 
HETATM   23  C   UNL     1     -44.385  58.193 -51.275  1.00  0.00     0.011 A 
BRANCH  21  24
HETATM   24  C   UNL     1     -42.496  61.427 -50.571  1.00  0.00     0.034 C 
HETATM   25  C   UNL     1     -43.735  62.165 -50.090  1.00  0.00     0.010 C 
ENDBRANCH  21  24
ENDBRANCH   1  18
TORSDOF 2
ENDMDL
