MODEL 1
REMARK VINA RESULT:      -8.1      0.000      0.000
REMARK  9 active torsions:
REMARK  status: ('A' for Active; 'I' for Inactive)
REMARK    1  A    between atoms: C_2  and  O_3 
REMARK    2  A    between atoms: O_3  and  C_4 
REMARK    3  A    between atoms: C_7  and  N_8 
REMARK    4  A    between atoms: C_12  and  N_13 
REMARK       I    between atoms: N_13  and  C_14 
REMARK       I    between atoms: C_14  and  N_15 
REMARK    5  A    between atoms: N_15  and  C_16 
REMARK    6  A    between atoms: C_16  and  C_17 
REMARK    7  A    between atoms: C_17  and  C_18 
REMARK    8  A    between atoms: C_21  and  S_22 
REMARK    9  A    between atoms: S_22  and  N_23 
ROOT
HETATM    1  N   UNL     1     -43.346  58.796 -55.306  1.00  0.00    -0.336 N 
HETATM    2  C   UNL     1     -42.565  59.675 -56.014  1.00  0.00     0.316 C 
HETATM    3  N   UNL     1     -43.206  60.092 -57.147  1.00  0.00    -0.343 N 
HETATM    4  O   UNL     1     -41.437  60.011 -55.687  1.00  0.00    -0.248 OA
HETATM    5  H   UNL     1     -44.328  59.037 -55.332  1.00  0.00     0.164 HD
HETATM    6  H   UNL     1     -43.900  59.456 -57.514  1.00  0.00     0.164 HD
ENDROOT
BRANCH   1   7
HETATM    7  C   UNL     1     -42.842  58.205 -54.072  1.00  0.00     0.113 C 
HETATM    8  C   UNL     1     -43.971  57.745 -53.165  1.00  0.00     0.130 C 
HETATM    9  C   UNL     1     -43.419  56.530 -52.466  1.00  0.00     0.226 C 
HETATM   10  N   UNL     1     -42.310  56.071 -53.182  1.00  0.00    -0.316 N 
HETATM   11  O   UNL     1     -43.956  56.050 -51.479  1.00  0.00    -0.273 OA
HETATM   12  C   UNL     1     -42.016  56.940 -54.299  1.00  0.00     0.157 C 
BRANCH  10  13
HETATM   13  C   UNL     1     -41.652  54.818 -53.018  1.00  0.00     0.037 A 
HETATM   14  C   UNL     1     -41.637  53.846 -54.026  1.00  0.00     0.032 A 
HETATM   15  C   UNL     1     -40.902  52.659 -53.887  1.00  0.00     0.039 A 
HETATM   16  C   UNL     1     -40.166  52.423 -52.730  1.00  0.00     0.068 A 
HETATM   17  C   UNL     1     -40.222  53.345 -51.692  1.00  0.00     0.039 A 
HETATM   18  C   UNL     1     -40.950  54.532 -51.836  1.00  0.00     0.032 A 
BRANCH  16  19
HETATM   19  O   UNL     1     -39.380  51.329 -52.504  1.00  0.00    -0.352 OA
BRANCH  19  20
HETATM   20  C   UNL     1     -39.441  50.797 -51.179  1.00  0.00     0.171 C 
HETATM   21  C   UNL     1     -39.821  49.331 -51.283  1.00  0.00     0.034 C 
ENDBRANCH  19  20
ENDBRANCH  16  19
ENDBRANCH  10  13
ENDBRANCH   1   7
BRANCH   3  22
HETATM   22  C   UNL     1     -42.553  60.996 -58.075  1.00  0.00     0.129 C 
BRANCH  22  23
HETATM   23  C   UNL     1     -42.071  60.301 -59.353  1.00  0.00     0.058 C 
BRANCH  23  24
HETATM   24  C   UNL     1     -42.774  58.998 -59.666  1.00  0.00    -0.057 A 
HETATM   25  C   UNL     1     -44.110  58.983 -60.093  1.00  0.00     0.009 A 
HETATM   26  C   UNL     1     -44.757  57.775 -60.357  1.00  0.00     0.025 A 
HETATM   27  C   UNL     1     -44.059  56.573 -60.214  1.00  0.00     0.074 A 
HETATM   28  C   UNL     1     -42.727  56.570 -59.797  1.00  0.00     0.025 A 
HETATM   29  C   UNL     1     -42.087  57.781 -59.531  1.00  0.00     0.009 A 
BRANCH  27  30
HETATM   30  S   UNL     1     -44.894  55.041 -60.498  1.00  0.00     0.239 S 
HETATM   31  O   UNL     1     -44.952  54.788 -61.920  1.00  0.00    -0.206 OA
HETATM   32  O   UNL     1     -44.411  54.058 -59.557  1.00  0.00    -0.206 OA
BRANCH  30  33
HETATM   33  N   UNL     1     -46.463  55.405 -60.029  1.00  0.00    -0.225 NA
HETATM   34  H   UNL     1     -46.992  55.752 -60.831  1.00  0.00     0.136 HD
HETATM   35  H   UNL     1     -46.885  54.596 -59.575  1.00  0.00     0.136 HD
ENDBRANCH  30  33
ENDBRANCH  27  30
ENDBRANCH  23  24
ENDBRANCH  22  23
ENDBRANCH   3  22
TORSDOF 9
ENDMDL
MODEL 2
REMARK VINA RESULT:      -7.7      1.763      2.183
REMARK  9 active torsions:
REMARK  status: ('A' for Active; 'I' for Inactive)
REMARK    1  A    between atoms: C_2  and  O_3 
REMARK    2  A    between atoms: O_3  and  C_4 
REMARK    3  A    between atoms: C_7  and  N_8 
REMARK    4  A    between atoms: C_12  and  N_13 
REMARK       I    between atoms: N_13  and  C_14 
REMARK       I    between atoms: C_14  and  N_15 
REMARK    5  A    between atoms: N_15  and  C_16 
REMARK    6  A    between atoms: C_16  and  C_17 
REMARK    7  A    between atoms: C_17  and  C_18 
REMARK    8  A    between atoms: C_21  and  S_22 
REMARK    9  A    between atoms: S_22  and  N_23 
ROOT
HETATM    1  N   UNL     1     -43.584  58.832 -53.559  1.00  0.00    -0.336 N 
HETATM    2  C   UNL     1     -42.930  59.979 -53.934  1.00  0.00     0.316 C 
HETATM    3  N   UNL     1     -43.659  60.676 -54.857  1.00  0.00    -0.343 N 
HETATM    4  O   UNL     1     -41.830  60.310 -53.520  1.00  0.00    -0.248 OA
HETATM    5  H   UNL     1     -44.586  58.956 -53.497  1.00  0.00     0.164 HD
HETATM    6  H   UNL     1     -44.299  60.126 -55.412  1.00  0.00     0.164 HD
ENDROOT
BRANCH   1   7
HETATM    7  C   UNL     1     -42.968  57.923 -52.601  1.00  0.00     0.113 C 
HETATM    8  C   UNL     1     -44.008  57.147 -51.811  1.00  0.00     0.130 C 
HETATM    9  C   UNL     1     -43.364  55.809 -51.554  1.00  0.00     0.226 C 
HETATM   10  N   UNL     1     -42.296  55.652 -52.444  1.00  0.00    -0.316 N 
HETATM   11  O   UNL     1     -43.808  55.022 -50.731  1.00  0.00    -0.273 OA
HETATM   12  C   UNL     1     -42.118  56.835 -53.255  1.00  0.00     0.157 C 
BRANCH  10  13
HETATM   13  C   UNL     1     -41.585  54.448 -52.713  1.00  0.00     0.037 A 
HETATM   14  C   UNL     1     -41.698  53.773 -53.935  1.00  0.00     0.032 A 
HETATM   15  C   UNL     1     -40.916  52.644 -54.222  1.00  0.00     0.039 A 
HETATM   16  C   UNL     1     -40.004  52.168 -53.285  1.00  0.00     0.068 A 
HETATM   17  C   UNL     1     -39.927  52.784 -52.042  1.00  0.00     0.039 A 
HETATM   18  C   UNL     1     -40.702  53.915 -51.761  1.00  0.00     0.032 A 
BRANCH  16  19
HETATM   19  O   UNL     1     -39.162  51.109 -53.472  1.00  0.00    -0.352 OA
BRANCH  19  20
HETATM   20  C   UNL     1     -39.782  49.822 -53.434  1.00  0.00     0.171 C 
HETATM   21  C   UNL     1     -39.625  49.271 -52.028  1.00  0.00     0.034 C 
ENDBRANCH  19  20
ENDBRANCH  16  19
ENDBRANCH  10  13
ENDBRANCH   1   7
BRANCH   3  22
HETATM   22  C   UNL     1     -43.145  61.906 -55.429  1.00  0.00     0.129 C 
BRANCH  22  23
HETATM   23  C   UNL     1     -43.293  61.967 -56.954  1.00  0.00     0.058 C 
BRANCH  23  24
HETATM   24  C   UNL     1     -43.218  60.625 -57.649  1.00  0.00    -0.057 A 
HETATM   25  C   UNL     1     -44.374  60.003 -58.144  1.00  0.00     0.009 A 
HETATM   26  C   UNL     1     -44.296  58.755 -58.764  1.00  0.00     0.025 A 
HETATM   27  C   UNL     1     -43.055  58.131 -58.909  1.00  0.00     0.074 A 
HETATM   28  C   UNL     1     -41.893  58.739 -58.427  1.00  0.00     0.025 A 
HETATM   29  C   UNL     1     -41.977  59.986 -57.807  1.00  0.00     0.009 A 
BRANCH  27  30
HETATM   30  S   UNL     1     -42.965  56.527 -59.646  1.00  0.00     0.239 S 
HETATM   31  O   UNL     1     -42.994  55.524 -58.605  1.00  0.00    -0.206 OA
HETATM   32  O   UNL     1     -43.846  56.482 -60.788  1.00  0.00    -0.206 OA
BRANCH  30  33
HETATM   33  N   UNL     1     -41.403  56.511 -60.259  1.00  0.00    -0.225 NA
HETATM   34  H   UNL     1     -41.011  57.453 -60.232  1.00  0.00     0.136 HD
HETATM   35  H   UNL     1     -40.844  55.816 -59.764  1.00  0.00     0.136 HD
ENDBRANCH  30  33
ENDBRANCH  27  30
ENDBRANCH  23  24
ENDBRANCH  22  23
ENDBRANCH   3  22
TORSDOF 9
ENDMDL
MODEL 3
REMARK VINA RESULT:      -7.7      2.110      2.603
REMARK  9 active torsions:
REMARK  status: ('A' for Active; 'I' for Inactive)
REMARK    1  A    between atoms: C_2  and  O_3 
REMARK    2  A    between atoms: O_3  and  C_4 
REMARK    3  A    between atoms: C_7  and  N_8 
REMARK    4  A    between atoms: C_12  and  N_13 
REMARK       I    between atoms: N_13  and  C_14 
REMARK       I    between atoms: C_14  and  N_15 
REMARK    5  A    between atoms: N_15  and  C_16 
REMARK    6  A    between atoms: C_16  and  C_17 
REMARK    7  A    between atoms: C_17  and  C_18 
REMARK    8  A    between atoms: C_21  and  S_22 
REMARK    9  A    between atoms: S_22  and  N_23 
ROOT
HETATM    1  N   UNL     1     -45.502  59.245 -54.650  1.00  0.00    -0.336 N 
HETATM    2  C   UNL     1     -45.393  60.114 -55.707  1.00  0.00     0.316 C 
HETATM    3  N   UNL     1     -46.625  60.423 -56.213  1.00  0.00    -0.343 N 
HETATM    4  O   UNL     1     -44.333  60.527 -56.152  1.00  0.00    -0.248 OA
HETATM    5  H   UNL     1     -46.309  59.434 -54.070  1.00  0.00     0.164 HD
HETATM    6  H   UNL     1     -47.344  59.730 -56.060  1.00  0.00     0.164 HD
ENDROOT
BRANCH   1   7
HETATM    7  C   UNL     1     -44.302  58.763 -53.978  1.00  0.00     0.113 C 
HETATM    8  C   UNL     1     -44.623  58.133 -52.633  1.00  0.00     0.130 C 
HETATM    9  C   UNL     1     -43.602  57.036 -52.479  1.00  0.00     0.226 C 
HETATM   10  N   UNL     1     -43.055  56.758 -53.734  1.00  0.00    -0.316 N 
HETATM   11  O   UNL     1     -43.398  56.486 -51.406  1.00  0.00    -0.273 OA
HETATM   12  C   UNL     1     -43.586  57.649 -54.741  1.00  0.00     0.157 C 
BRANCH  10  13
HETATM   13  C   UNL     1     -42.251  55.634 -54.081  1.00  0.00     0.037 A 
HETATM   14  C   UNL     1     -40.924  55.770 -54.507  1.00  0.00     0.032 A 
HETATM   15  C   UNL     1     -40.116  54.648 -54.750  1.00  0.00     0.039 A 
HETATM   16  C   UNL     1     -40.625  53.367 -54.572  1.00  0.00     0.068 A 
HETATM   17  C   UNL     1     -41.960  53.212 -54.216  1.00  0.00     0.039 A 
HETATM   18  C   UNL     1     -42.762  54.331 -53.966  1.00  0.00     0.032 A 
BRANCH  16  19
HETATM   19  O   UNL     1     -39.921  52.208 -54.734  1.00  0.00    -0.352 OA
BRANCH  19  20
HETATM   20  C   UNL     1     -39.778  51.410 -53.557  1.00  0.00     0.171 C 
HETATM   21  C   UNL     1     -39.760  49.953 -53.982  1.00  0.00     0.034 C 
ENDBRANCH  19  20
ENDBRANCH  16  19
ENDBRANCH  10  13
ENDBRANCH   1   7
BRANCH   3  22
HETATM   22  C   UNL     1     -46.754  61.296 -57.364  1.00  0.00     0.129 C 
BRANCH  22  23
HETATM   23  C   UNL     1     -47.343  60.591 -58.590  1.00  0.00     0.058 C 
BRANCH  23  24
HETATM   24  C   UNL     1     -46.562  59.382 -59.058  1.00  0.00    -0.057 A 
HETATM   25  C   UNL     1     -47.120  58.096 -59.001  1.00  0.00     0.009 A 
HETATM   26  C   UNL     1     -46.383  56.985 -59.413  1.00  0.00     0.025 A 
HETATM   27  C   UNL     1     -45.087  57.160 -59.906  1.00  0.00     0.074 A 
HETATM   28  C   UNL     1     -44.519  58.433 -59.975  1.00  0.00     0.025 A 
HETATM   29  C   UNL     1     -45.260  59.540 -59.559  1.00  0.00     0.009 A 
BRANCH  27  30
HETATM   30  S   UNL     1     -44.136  55.747 -60.378  1.00  0.00     0.239 S 
HETATM   31  O   UNL     1     -44.756  55.118 -61.522  1.00  0.00    -0.206 OA
HETATM   32  O   UNL     1     -42.734  56.090 -60.351  1.00  0.00    -0.206 OA
BRANCH  30  33
HETATM   33  N   UNL     1     -44.387  54.707 -59.086  1.00  0.00    -0.225 NA
HETATM   34  H   UNL     1     -43.716  54.909 -58.343  1.00  0.00     0.136 HD
HETATM   35  H   UNL     1     -45.361  54.757 -58.786  1.00  0.00     0.136 HD
ENDBRANCH  30  33
ENDBRANCH  27  30
ENDBRANCH  23  24
ENDBRANCH  22  23
ENDBRANCH   3  22
TORSDOF 9
ENDMDL
MODEL 4
REMARK VINA RESULT:      -7.4      1.791      2.313
REMARK  9 active torsions:
REMARK  status: ('A' for Active; 'I' for Inactive)
REMARK    1  A    between atoms: C_2  and  O_3 
REMARK    2  A    between atoms: O_3  and  C_4 
REMARK    3  A    between atoms: C_7  and  N_8 
REMARK    4  A    between atoms: C_12  and  N_13 
REMARK       I    between atoms: N_13  and  C_14 
REMARK       I    between atoms: C_14  and  N_15 
REMARK    5  A    between atoms: N_15  and  C_16 
REMARK    6  A    between atoms: C_16  and  C_17 
REMARK    7  A    between atoms: C_17  and  C_18 
REMARK    8  A    between atoms: C_21  and  S_22 
REMARK    9  A    between atoms: S_22  and  N_23 
ROOT
HETATM    1  N   UNL     1     -42.019  60.157 -52.480  1.00  0.00    -0.336 N 
HETATM    2  C   UNL     1     -42.665  60.072 -53.687  1.00  0.00     0.316 C 
HETATM    3  N   UNL     1     -42.563  61.247 -54.379  1.00  0.00    -0.343 N 
HETATM    4  O   UNL     1     -43.276  59.087 -54.072  1.00  0.00    -0.248 OA
HETATM    5  H   UNL     1     -41.166  60.700 -52.530  1.00  0.00     0.164 HD
HETATM    6  H   UNL     1     -42.424  62.073 -53.814  1.00  0.00     0.164 HD
ENDROOT
BRANCH   1   7
HETATM    7  C   UNL     1     -42.027  59.020 -51.567  1.00  0.00     0.113 C 
HETATM    8  C   UNL     1     -43.408  58.394 -51.460  1.00  0.00     0.130 C 
HETATM    9  C   UNL     1     -43.139  56.926 -51.249  1.00  0.00     0.226 C 
HETATM   10  N   UNL     1     -41.821  56.657 -51.630  1.00  0.00    -0.316 N 
HETATM   11  O   UNL     1     -44.008  56.156 -50.868  1.00  0.00    -0.273 OA
HETATM   12  C   UNL     1     -41.137  57.866 -52.027  1.00  0.00     0.157 C 
BRANCH  10  13
HETATM   13  C   UNL     1     -41.240  55.372 -51.830  1.00  0.00     0.037 A 
HETATM   14  C   UNL     1     -40.858  54.552 -50.761  1.00  0.00     0.032 A 
HETATM   15  C   UNL     1     -40.379  53.250 -50.972  1.00  0.00     0.039 A 
HETATM   16  C   UNL     1     -40.273  52.745 -52.264  1.00  0.00     0.068 A 
HETATM   17  C   UNL     1     -40.582  53.567 -53.341  1.00  0.00     0.039 A 
HETATM   18  C   UNL     1     -41.068  54.862 -53.127  1.00  0.00     0.032 A 
BRANCH  16  19
HETATM   19  O   UNL     1     -39.864  51.482 -52.586  1.00  0.00    -0.352 OA
BRANCH  19  20
HETATM   20  C   UNL     1     -39.781  51.205 -53.986  1.00  0.00     0.171 C 
HETATM   21  C   UNL     1     -39.593  49.708 -54.154  1.00  0.00     0.034 C 
ENDBRANCH  19  20
ENDBRANCH  16  19
ENDBRANCH  10  13
ENDBRANCH   1   7
BRANCH   3  22
HETATM   22  C   UNL     1     -43.207  61.404 -55.669  1.00  0.00     0.129 C 
BRANCH  22  23
HETATM   23  C   UNL     1     -42.334  60.932 -56.838  1.00  0.00     0.058 C 
BRANCH  23  24
HETATM   24  C   UNL     1     -42.812  59.662 -57.508  1.00  0.00    -0.057 A 
HETATM   25  C   UNL     1     -41.923  58.847 -58.224  1.00  0.00     0.009 A 
HETATM   26  C   UNL     1     -42.378  57.689 -58.858  1.00  0.00     0.025 A 
HETATM   27  C   UNL     1     -43.725  57.331 -58.759  1.00  0.00     0.074 A 
HETATM   28  C   UNL     1     -44.621  58.128 -58.045  1.00  0.00     0.025 A 
HETATM   29  C   UNL     1     -44.161  59.286 -57.415  1.00  0.00     0.009 A 
BRANCH  27  30
HETATM   30  S   UNL     1     -44.309  55.894 -59.605  1.00  0.00     0.239 S 
HETATM   31  O   UNL     1     -44.027  56.026 -61.016  1.00  0.00    -0.206 OA
HETATM   32  O   UNL     1     -43.944  54.719 -58.850  1.00  0.00    -0.206 OA
BRANCH  30  33
HETATM   33  N   UNL     1     -45.972  56.049 -59.451  1.00  0.00    -0.225 NA
HETATM   34  H   UNL     1     -46.263  56.982 -59.748  1.00  0.00     0.136 HD
HETATM   35  H   UNL     1     -46.439  55.293 -59.952  1.00  0.00     0.136 HD
ENDBRANCH  30  33
ENDBRANCH  27  30
ENDBRANCH  23  24
ENDBRANCH  22  23
ENDBRANCH   3  22
TORSDOF 9
ENDMDL
MODEL 5
REMARK VINA RESULT:      -7.3      2.789      8.266
REMARK  9 active torsions:
REMARK  status: ('A' for Active; 'I' for Inactive)
REMARK    1  A    between atoms: C_2  and  O_3 
REMARK    2  A    between atoms: O_3  and  C_4 
REMARK    3  A    between atoms: C_7  and  N_8 
REMARK    4  A    between atoms: C_12  and  N_13 
REMARK       I    between atoms: N_13  and  C_14 
REMARK       I    between atoms: C_14  and  N_15 
REMARK    5  A    between atoms: N_15  and  C_16 
REMARK    6  A    between atoms: C_16  and  C_17 
REMARK    7  A    between atoms: C_17  and  C_18 
REMARK    8  A    between atoms: C_21  and  S_22 
REMARK    9  A    between atoms: S_22  and  N_23 
ROOT
HETATM    1  N   UNL     1     -43.475  58.397 -52.036  1.00  0.00    -0.336 N 
HETATM    2  C   UNL     1     -42.993  57.115 -51.969  1.00  0.00     0.316 C 
HETATM    3  N   UNL     1     -42.919  56.688 -50.673  1.00  0.00    -0.343 N 
HETATM    4  O   UNL     1     -42.647  56.458 -52.940  1.00  0.00    -0.248 OA
HETATM    5  H   UNL     1     -44.196  58.581 -51.349  1.00  0.00     0.164 HD
HETATM    6  H   UNL     1     -42.820  57.417 -49.980  1.00  0.00     0.164 HD
ENDROOT
BRANCH   1   7
HETATM    7  C   UNL     1     -43.609  59.059 -53.328  1.00  0.00     0.113 C 
HETATM    8  C   UNL     1     -42.285  59.628 -53.810  1.00  0.00     0.130 C 
HETATM    9  C   UNL     1     -42.343  59.497 -55.310  1.00  0.00     0.226 C 
HETATM   10  N   UNL     1     -43.344  58.577 -55.636  1.00  0.00    -0.316 N 
HETATM   11  O   UNL     1     -41.561  60.083 -56.043  1.00  0.00    -0.273 OA
HETATM   12  C   UNL     1     -44.032  58.115 -54.452  1.00  0.00     0.157 C 
BRANCH  10  13
HETATM   13  C   UNL     1     -43.561  57.974 -56.908  1.00  0.00     0.037 A 
HETATM   14  C   UNL     1     -44.150  58.669 -57.972  1.00  0.00     0.032 A 
HETATM   15  C   UNL     1     -44.267  58.093 -59.247  1.00  0.00     0.039 A 
HETATM   16  C   UNL     1     -43.796  56.806 -59.479  1.00  0.00     0.068 A 
HETATM   17  C   UNL     1     -43.270  56.076 -58.419  1.00  0.00     0.039 A 
HETATM   18  C   UNL     1     -43.147  56.655 -57.151  1.00  0.00     0.032 A 
BRANCH  16  19
HETATM   19  O   UNL     1     -43.816  56.163 -60.684  1.00  0.00    -0.352 OA
BRANCH  19  20
HETATM   20  C   UNL     1     -44.753  55.090 -60.789  1.00  0.00     0.171 C 
HETATM   21  C   UNL     1     -46.147  55.689 -60.799  1.00  0.00     0.034 C 
ENDBRANCH  19  20
ENDBRANCH  16  19
ENDBRANCH  10  13
ENDBRANCH   1   7
BRANCH   3  22
HETATM   22  C   UNL     1     -42.398  55.372 -50.356  1.00  0.00     0.129 C 
BRANCH  22  23
HETATM   23  C   UNL     1     -40.915  55.211 -50.709  1.00  0.00     0.058 C 
BRANCH  23  24
HETATM   24  C   UNL     1     -40.587  53.962 -51.498  1.00  0.00    -0.057 A 
HETATM   25  C   UNL     1     -40.781  53.913 -52.886  1.00  0.00     0.009 A 
HETATM   26  C   UNL     1     -40.497  52.748 -53.600  1.00  0.00     0.025 A 
HETATM   27  C   UNL     1     -39.997  51.630 -52.928  1.00  0.00     0.074 A 
HETATM   28  C   UNL     1     -39.791  51.664 -51.548  1.00  0.00     0.025 A 
HETATM   29  C   UNL     1     -40.080  52.831 -50.838  1.00  0.00     0.009 A 
BRANCH  27  30
HETATM   30  S   UNL     1     -39.687  50.139 -53.825  1.00  0.00     0.239 S 
HETATM   31  O   UNL     1     -40.883  49.759 -54.542  1.00  0.00    -0.206 OA
HETATM   32  O   UNL     1     -38.398  50.233 -54.468  1.00  0.00    -0.206 OA
BRANCH  30  33
HETATM   33  N   UNL     1     -39.513  49.017 -52.590  1.00  0.00    -0.225 NA
HETATM   34  H   UNL     1     -39.125  49.471 -51.762  1.00  0.00     0.136 HD
HETATM   35  H   UNL     1     -40.401  48.544 -52.424  1.00  0.00     0.136 HD
ENDBRANCH  30  33
ENDBRANCH  27  30
ENDBRANCH  23  24
ENDBRANCH  22  23
ENDBRANCH   3  22
TORSDOF 9
ENDMDL
MODEL 6
REMARK VINA RESULT:      -7.1     16.655     20.031
REMARK  9 active torsions:
REMARK  status: ('A' for Active; 'I' for Inactive)
REMARK    1  A    between atoms: C_2  and  O_3 
REMARK    2  A    between atoms: O_3  and  C_4 
REMARK    3  A    between atoms: C_7  and  N_8 
REMARK    4  A    between atoms: C_12  and  N_13 
REMARK       I    between atoms: N_13  and  C_14 
REMARK       I    between atoms: C_14  and  N_15 
REMARK    5  A    between atoms: N_15  and  C_16 
REMARK    6  A    between atoms: C_16  and  C_17 
REMARK    7  A    between atoms: C_17  and  C_18 
REMARK    8  A    between atoms: C_21  and  S_22 
REMARK    9  A    between atoms: S_22  and  N_23 
ROOT
HETATM    1  N   UNL     1     -36.715  40.235 -50.066  1.00  0.00    -0.336 N 
HETATM    2  C   UNL     1     -37.545  39.182 -50.359  1.00  0.00     0.316 C 
HETATM    3  N   UNL     1     -38.315  38.853 -49.279  1.00  0.00    -0.343 N 
HETATM    4  O   UNL     1     -37.565  38.600 -51.433  1.00  0.00    -0.248 OA
HETATM    5  H   UNL     1     -37.152  40.923 -49.466  1.00  0.00     0.164 HD
HETATM    6  H   UNL     1     -37.927  39.096 -48.378  1.00  0.00     0.164 HD
ENDROOT
BRANCH   1   7
HETATM    7  C   UNL     1     -35.785  40.731 -51.074  1.00  0.00     0.113 C 
HETATM    8  C   UNL     1     -34.880  39.629 -51.597  1.00  0.00     0.130 C 
HETATM    9  C   UNL     1     -34.638  39.995 -53.039  1.00  0.00     0.226 C 
HETATM   10  N   UNL     1     -35.613  40.915 -53.433  1.00  0.00    -0.316 N 
HETATM   11  O   UNL     1     -33.752  39.473 -53.700  1.00  0.00    -0.273 OA
HETATM   12  C   UNL     1     -36.477  41.263 -52.328  1.00  0.00     0.157 C 
BRANCH  10  13
HETATM   13  C   UNL     1     -35.905  41.325 -54.766  1.00  0.00     0.037 A 
HETATM   14  C   UNL     1     -34.954  41.953 -55.578  1.00  0.00     0.032 A 
HETATM   15  C   UNL     1     -35.226  42.261 -56.920  1.00  0.00     0.039 A 
HETATM   16  C   UNL     1     -36.462  41.944 -57.474  1.00  0.00     0.068 A 
HETATM   17  C   UNL     1     -37.443  41.382 -56.665  1.00  0.00     0.039 A 
HETATM   18  C   UNL     1     -37.166  41.068 -55.329  1.00  0.00     0.032 A 
BRANCH  16  19
HETATM   19  O   UNL     1     -36.822  42.155 -58.775  1.00  0.00    -0.352 OA
BRANCH  19  20
HETATM   20  C   UNL     1     -37.761  41.219 -59.308  1.00  0.00     0.171 C 
HETATM   21  C   UNL     1     -36.988  40.193 -60.115  1.00  0.00     0.034 C 
ENDBRANCH  19  20
ENDBRANCH  16  19
ENDBRANCH  10  13
ENDBRANCH   1   7
BRANCH   3  22
HETATM   22  C   UNL     1     -39.241  37.739 -49.342  1.00  0.00     0.129 C 
BRANCH  22  23
HETATM   23  C   UNL     1     -40.651  38.101 -48.862  1.00  0.00     0.058 C 
BRANCH  23  24
HETATM   24  C   UNL     1     -40.741  38.484 -47.401  1.00  0.00    -0.057 A 
HETATM   25  C   UNL     1     -40.138  37.695 -46.410  1.00  0.00     0.009 A 
HETATM   26  C   UNL     1     -40.246  38.045 -45.063  1.00  0.00     0.025 A 
HETATM   27  C   UNL     1     -40.943  39.201 -44.703  1.00  0.00     0.074 A 
HETATM   28  C   UNL     1     -41.544  40.000 -45.677  1.00  0.00     0.025 A 
HETATM   29  C   UNL     1     -41.435  39.644 -47.022  1.00  0.00     0.009 A 
BRANCH  27  30
HETATM   30  S   UNL     1     -41.124  39.613 -42.994  1.00  0.00     0.239 S 
HETATM   31  O   UNL     1     -41.136  41.052 -42.852  1.00  0.00    -0.206 OA
HETATM   32  O   UNL     1     -42.140  38.771 -42.409  1.00  0.00    -0.206 OA
BRANCH  30  33
HETATM   33  N   UNL     1     -39.662  39.098 -42.353  1.00  0.00    -0.225 NA
HETATM   34  H   UNL     1     -39.529  38.104 -42.549  1.00  0.00     0.136 HD
HETATM   35  H   UNL     1     -38.906  39.690 -42.695  1.00  0.00     0.136 HD
ENDBRANCH  30  33
ENDBRANCH  27  30
ENDBRANCH  23  24
ENDBRANCH  22  23
ENDBRANCH   3  22
TORSDOF 9
ENDMDL
MODEL 7
REMARK VINA RESULT:      -7.0      2.995      8.820
REMARK  9 active torsions:
REMARK  status: ('A' for Active; 'I' for Inactive)
REMARK    1  A    between atoms: C_2  and  O_3 
REMARK    2  A    between atoms: O_3  and  C_4 
REMARK    3  A    between atoms: C_7  and  N_8 
REMARK    4  A    between atoms: C_12  and  N_13 
REMARK       I    between atoms: N_13  and  C_14 
REMARK       I    between atoms: C_14  and  N_15 
REMARK    5  A    between atoms: N_15  and  C_16 
REMARK    6  A    between atoms: C_16  and  C_17 
REMARK    7  A    between atoms: C_17  and  C_18 
REMARK    8  A    between atoms: C_21  and  S_22 
REMARK    9  A    between atoms: S_22  and  N_23 
ROOT
HETATM    1  N   UNL     1     -43.732  57.772 -51.934  1.00  0.00    -0.336 N 
HETATM    2  C   UNL     1     -43.304  56.517 -51.581  1.00  0.00     0.316 C 
HETATM    3  N   UNL     1     -42.585  56.556 -50.419  1.00  0.00    -0.343 N 
HETATM    4  O   UNL     1     -43.514  55.508 -52.237  1.00  0.00    -0.248 OA
HETATM    5  H   UNL     1     -43.997  58.334 -51.136  1.00  0.00     0.164 HD
HETATM    6  H   UNL     1     -42.134  57.438 -50.216  1.00  0.00     0.164 HD
ENDROOT
BRANCH   1   7
HETATM    7  C   UNL     1     -44.497  57.962 -53.160  1.00  0.00     0.113 C 
HETATM    8  C   UNL     1     -45.064  59.368 -53.260  1.00  0.00     0.130 C 
HETATM    9  C   UNL     1     -45.053  59.674 -54.735  1.00  0.00     0.226 C 
HETATM   10  N   UNL     1     -44.191  58.775 -55.369  1.00  0.00    -0.316 N 
HETATM   11  O   UNL     1     -45.672  60.617 -55.207  1.00  0.00    -0.273 OA
HETATM   12  C   UNL     1     -43.657  57.816 -54.429  1.00  0.00     0.157 C 
BRANCH  10  13
HETATM   13  C   UNL     1     -43.697  58.867 -56.702  1.00  0.00     0.037 A 
HETATM   14  C   UNL     1     -42.508  59.539 -57.011  1.00  0.00     0.032 A 
HETATM   15  C   UNL     1     -41.984  59.536 -58.313  1.00  0.00     0.039 A 
HETATM   16  C   UNL     1     -42.645  58.858 -59.332  1.00  0.00     0.068 A 
HETATM   17  C   UNL     1     -43.861  58.243 -59.059  1.00  0.00     0.039 A 
HETATM   18  C   UNL     1     -44.377  58.240 -57.758  1.00  0.00     0.032 A 
BRANCH  16  19
HETATM   19  O   UNL     1     -42.207  58.750 -60.622  1.00  0.00    -0.352 OA
BRANCH  19  20
HETATM   20  C   UNL     1     -41.836  59.981 -61.246  1.00  0.00     0.171 C 
HETATM   21  C   UNL     1     -43.086  60.592 -61.851  1.00  0.00     0.034 C 
ENDBRANCH  19  20
ENDBRANCH  16  19
ENDBRANCH  10  13
ENDBRANCH   1   7
BRANCH   3  22
HETATM   22  C   UNL     1     -41.995  55.349 -49.873  1.00  0.00     0.129 C 
BRANCH  22  23
HETATM   23  C   UNL     1     -40.560  55.109 -50.354  1.00  0.00     0.058 C 
BRANCH  23  24
HETATM   24  C   UNL     1     -40.378  53.870 -51.203  1.00  0.00    -0.057 A 
HETATM   25  C   UNL     1     -40.026  52.643 -50.622  1.00  0.00     0.009 A 
HETATM   26  C   UNL     1     -39.839  51.510 -51.416  1.00  0.00     0.025 A 
HETATM   27  C   UNL     1     -40.024  51.598 -52.798  1.00  0.00     0.074 A 
HETATM   28  C   UNL     1     -40.381  52.810 -53.392  1.00  0.00     0.025 A 
HETATM   29  C   UNL     1     -40.564  53.939 -52.593  1.00  0.00     0.009 A 
BRANCH  27  30
HETATM   30  S   UNL     1     -39.736  50.177 -53.809  1.00  0.00     0.239 S 
HETATM   31  O   UNL     1     -40.964  49.812 -54.476  1.00  0.00    -0.206 OA
HETATM   32  O   UNL     1     -38.490  50.347 -54.519  1.00  0.00    -0.206 OA
BRANCH  30  33
HETATM   33  N   UNL     1     -39.460  48.983 -52.663  1.00  0.00    -0.225 NA
HETATM   34  H   UNL     1     -40.330  48.764 -52.174  1.00  0.00     0.136 HD
HETATM   35  H   UNL     1     -39.020  48.175 -53.103  1.00  0.00     0.136 HD
ENDBRANCH  30  33
ENDBRANCH  27  30
ENDBRANCH  23  24
ENDBRANCH  22  23
ENDBRANCH   3  22
TORSDOF 9
ENDMDL
MODEL 8
REMARK VINA RESULT:      -7.0      8.978     11.979
REMARK  9 active torsions:
REMARK  status: ('A' for Active; 'I' for Inactive)
REMARK    1  A    between atoms: C_2  and  O_3 
REMARK    2  A    between atoms: O_3  and  C_4 
REMARK    3  A    between atoms: C_7  and  N_8 
REMARK    4  A    between atoms: C_12  and  N_13 
REMARK       I    between atoms: N_13  and  C_14 
REMARK       I    between atoms: C_14  and  N_15 
REMARK    5  A    between atoms: N_15  and  C_16 
REMARK    6  A    between atoms: C_16  and  C_17 
REMARK    7  A    between atoms: C_17  and  C_18 
REMARK    8  A    between atoms: C_21  and  S_22 
REMARK    9  A    between atoms: S_22  and  N_23 
ROOT
HETATM    1  N   UNL     1     -45.488  61.529 -48.465  1.00  0.00    -0.336 N 
HETATM    2  C   UNL     1     -44.556  61.561 -49.471  1.00  0.00     0.316 C 
HETATM    3  N   UNL     1     -44.486  60.354 -50.110  1.00  0.00    -0.343 N 
HETATM    4  O   UNL     1     -43.861  62.530 -49.736  1.00  0.00    -0.248 OA
HETATM    5  H   UNL     1     -46.303  60.980 -48.704  1.00  0.00     0.164 HD
HETATM    6  H   UNL     1     -44.768  59.554 -49.560  1.00  0.00     0.164 HD
ENDROOT
BRANCH   1   7
HETATM    7  C   UNL     1     -45.704  62.708 -47.636  1.00  0.00     0.113 C 
HETATM    8  C   UNL     1     -47.120  62.758 -47.085  1.00  0.00     0.130 C 
HETATM    9  C   UNL     1     -46.975  63.412 -45.735  1.00  0.00     0.226 C 
HETATM   10  N   UNL     1     -45.633  63.343 -45.350  1.00  0.00    -0.316 N 
HETATM   11  O   UNL     1     -47.936  63.845 -45.117  1.00  0.00    -0.273 OA
HETATM   12  C   UNL     1     -44.825  62.742 -46.387  1.00  0.00     0.157 C 
BRANCH  10  13
HETATM   13  C   UNL     1     -45.106  63.609 -44.054  1.00  0.00     0.037 A 
HETATM   14  C   UNL     1     -45.641  64.598 -43.220  1.00  0.00     0.032 A 
HETATM   15  C   UNL     1     -45.175  64.780 -41.908  1.00  0.00     0.039 A 
HETATM   16  C   UNL     1     -44.159  63.972 -41.409  1.00  0.00     0.068 A 
HETATM   17  C   UNL     1     -43.569  63.030 -42.244  1.00  0.00     0.039 A 
HETATM   18  C   UNL     1     -44.042  62.845 -43.548  1.00  0.00     0.032 A 
BRANCH  16  19
HETATM   19  O   UNL     1     -43.659  64.028 -40.138  1.00  0.00    -0.352 OA
BRANCH  19  20
HETATM   20  C   UNL     1     -44.593  64.422 -39.131  1.00  0.00     0.171 C 
HETATM   21  C   UNL     1     -45.155  63.162 -38.500  1.00  0.00     0.034 C 
ENDBRANCH  19  20
ENDBRANCH  16  19
ENDBRANCH  10  13
ENDBRANCH   1   7
BRANCH   3  22
HETATM   22  C   UNL     1     -43.537  60.140 -51.185  1.00  0.00     0.129 C 
BRANCH  22  23
HETATM   23  C   UNL     1     -43.746  58.809 -51.917  1.00  0.00     0.058 C 
BRANCH  23  24
HETATM   24  C   UNL     1     -42.946  57.652 -51.361  1.00  0.00    -0.057 A 
HETATM   25  C   UNL     1     -41.691  57.860 -50.769  1.00  0.00     0.009 A 
HETATM   26  C   UNL     1     -40.950  56.783 -50.280  1.00  0.00     0.025 A 
HETATM   27  C   UNL     1     -41.474  55.490 -50.364  1.00  0.00     0.074 A 
HETATM   28  C   UNL     1     -42.724  55.266 -50.944  1.00  0.00     0.025 A 
HETATM   29  C   UNL     1     -43.459  56.346 -51.433  1.00  0.00     0.009 A 
BRANCH  27  30
HETATM   30  S   UNL     1     -40.512  54.121 -49.792  1.00  0.00     0.239 S 
HETATM   31  O   UNL     1     -40.981  52.913 -50.430  1.00  0.00    -0.206 OA
HETATM   32  O   UNL     1     -39.118  54.496 -49.776  1.00  0.00    -0.206 OA
BRANCH  30  33
HETATM   33  N   UNL     1     -40.984  54.009 -48.186  1.00  0.00    -0.225 NA
HETATM   34  H   UNL     1     -41.751  53.340 -48.096  1.00  0.00     0.136 HD
HETATM   35  H   UNL     1     -40.177  53.792 -47.602  1.00  0.00     0.136 HD
ENDBRANCH  30  33
ENDBRANCH  27  30
ENDBRANCH  23  24
ENDBRANCH  22  23
ENDBRANCH   3  22
TORSDOF 9
ENDMDL
MODEL 9
REMARK VINA RESULT:      -6.9      4.345      8.515
REMARK  9 active torsions:
REMARK  status: ('A' for Active; 'I' for Inactive)
REMARK    1  A    between atoms: C_2  and  O_3 
REMARK    2  A    between atoms: O_3  and  C_4 
REMARK    3  A    between atoms: C_7  and  N_8 
REMARK    4  A    between atoms: C_12  and  N_13 
REMARK       I    between atoms: N_13  and  C_14 
REMARK       I    between atoms: C_14  and  N_15 
REMARK    5  A    between atoms: N_15  and  C_16 
REMARK    6  A    between atoms: C_16  and  C_17 
REMARK    7  A    between atoms: C_17  and  C_18 
REMARK    8  A    between atoms: C_21  and  S_22 
REMARK    9  A    between atoms: S_22  and  N_23 
ROOT
HETATM    1  N   UNL     1     -41.145  58.031 -54.251  1.00  0.00    -0.336 N 
HETATM    2  C   UNL     1     -42.239  57.341 -54.708  1.00  0.00     0.316 C 
HETATM    3  N   UNL     1     -41.858  56.250 -55.438  1.00  0.00    -0.343 N 
HETATM    4  O   UNL     1     -43.397  57.679 -54.513  1.00  0.00    -0.248 OA
HETATM    5  H   UNL     1     -40.383  57.423 -53.983  1.00  0.00     0.164 HD
HETATM    6  H   UNL     1     -40.947  56.314 -55.872  1.00  0.00     0.164 HD
ENDROOT
BRANCH   1   7
HETATM    7  C   UNL     1     -41.326  59.249 -53.471  1.00  0.00     0.113 C 
HETATM    8  C   UNL     1     -42.138  60.287 -54.227  1.00  0.00     0.130 C 
HETATM    9  C   UNL     1     -42.912  61.012 -53.156  1.00  0.00     0.226 C 
HETATM   10  N   UNL     1     -42.910  60.228 -51.999  1.00  0.00    -0.316 N 
HETATM   11  O   UNL     1     -43.474  62.076 -53.369  1.00  0.00    -0.273 OA
HETATM   12  C   UNL     1     -42.120  59.032 -52.183  1.00  0.00     0.157 C 
BRANCH  10  13
HETATM   13  C   UNL     1     -43.724  60.413 -50.845  1.00  0.00     0.037 A 
HETATM   14  C   UNL     1     -43.458  61.409 -49.897  1.00  0.00     0.032 A 
HETATM   15  C   UNL     1     -44.326  61.643 -48.819  1.00  0.00     0.039 A 
HETATM   16  C   UNL     1     -45.479  60.879 -48.670  1.00  0.00     0.068 A 
HETATM   17  C   UNL     1     -45.725  59.843 -49.563  1.00  0.00     0.039 A 
HETATM   18  C   UNL     1     -44.863  59.617 -50.642  1.00  0.00     0.032 A 
BRANCH  16  19
HETATM   19  O   UNL     1     -46.416  61.047 -47.690  1.00  0.00    -0.352 OA
BRANCH  19  20
HETATM   20  C   UNL     1     -46.011  60.634 -46.383  1.00  0.00     0.171 C 
HETATM   21  C   UNL     1     -46.730  59.336 -46.061  1.00  0.00     0.034 C 
ENDBRANCH  19  20
ENDBRANCH  16  19
ENDBRANCH  10  13
ENDBRANCH   1   7
BRANCH   3  22
HETATM   22  C   UNL     1     -42.848  55.391 -56.057  1.00  0.00     0.129 C 
BRANCH  22  23
HETATM   23  C   UNL     1     -42.926  54.001 -55.415  1.00  0.00     0.058 C 
BRANCH  23  24
HETATM   24  C   UNL     1     -42.370  53.924 -54.010  1.00  0.00    -0.057 A 
HETATM   25  C   UNL     1     -43.136  54.334 -52.908  1.00  0.00     0.009 A 
HETATM   26  C   UNL     1     -42.606  54.280 -51.618  1.00  0.00     0.025 A 
HETATM   27  C   UNL     1     -41.310  53.795 -51.423  1.00  0.00     0.074 A 
HETATM   28  C   UNL     1     -40.537  53.377 -52.507  1.00  0.00     0.025 A 
HETATM   29  C   UNL     1     -41.071  53.435 -53.796  1.00  0.00     0.009 A 
BRANCH  27  30
HETATM   30  S   UNL     1     -40.622  53.777 -49.795  1.00  0.00     0.239 S 
HETATM   31  O   UNL     1     -39.281  54.314 -49.841  1.00  0.00    -0.206 OA
HETATM   32  O   UNL     1     -41.612  54.251 -48.857  1.00  0.00    -0.206 OA
BRANCH  30  33
HETATM   33  N   UNL     1     -40.451  52.134 -49.505  1.00  0.00    -0.225 NA
HETATM   34  H   UNL     1     -40.076  51.984 -48.568  1.00  0.00     0.136 HD
HETATM   35  H   UNL     1     -41.338  51.659 -49.676  1.00  0.00     0.136 HD
ENDBRANCH  30  33
ENDBRANCH  27  30
ENDBRANCH  23  24
ENDBRANCH  22  23
ENDBRANCH   3  22
TORSDOF 9
ENDMDL
MODEL 10
REMARK VINA RESULT:      -6.9      6.050      6.921
REMARK  9 active torsions:
REMARK  status: ('A' for Active; 'I' for Inactive)
REMARK    1  A    between atoms: C_2  and  O_3 
REMARK    2  A    between atoms: O_3  and  C_4 
REMARK    3  A    between atoms: C_7  and  N_8 
REMARK    4  A    between atoms: C_12  and  N_13 
REMARK       I    between atoms: N_13  and  C_14 
REMARK       I    between atoms: C_14  and  N_15 
REMARK    5  A    between atoms: N_15  and  C_16 
REMARK    6  A    between atoms: C_16  and  C_17 
REMARK    7  A    between atoms: C_17  and  C_18 
REMARK    8  A    between atoms: C_21  and  S_22 
REMARK    9  A    between atoms: S_22  and  N_23 
ROOT
HETATM    1  N   UNL     1     -45.095  59.574 -52.781  1.00  0.00    -0.336 N 
HETATM    2  C   UNL     1     -45.444  60.841 -53.177  1.00  0.00     0.316 C 
HETATM    3  N   UNL     1     -46.795  61.028 -53.078  1.00  0.00    -0.343 N 
HETATM    4  O   UNL     1     -44.653  61.674 -53.592  1.00  0.00    -0.248 OA
HETATM    5  H   UNL     1     -45.646  59.243 -51.999  1.00  0.00     0.164 HD
HETATM    6  H   UNL     1     -47.356  60.190 -53.140  1.00  0.00     0.164 HD
ENDROOT
BRANCH   1   7
HETATM    7  C   UNL     1     -43.701  59.153 -52.834  1.00  0.00     0.113 C 
HETATM    8  C   UNL     1     -43.051  59.182 -51.461  1.00  0.00     0.130 C 
HETATM    9  C   UNL     1     -42.062  58.045 -51.490  1.00  0.00     0.226 C 
HETATM   10  N   UNL     1     -42.398  57.191 -52.544  1.00  0.00    -0.316 N 
HETATM   11  O   UNL     1     -41.182  57.930 -50.649  1.00  0.00    -0.273 OA
HETATM   12  C   UNL     1     -43.521  57.706 -53.293  1.00  0.00     0.157 C 
BRANCH  10  13
HETATM   13  C   UNL     1     -41.889  55.880 -52.770  1.00  0.00     0.037 A 
HETATM   14  C   UNL     1     -41.089  55.571 -53.877  1.00  0.00     0.032 A 
HETATM   15  C   UNL     1     -40.515  54.300 -54.033  1.00  0.00     0.039 A 
HETATM   16  C   UNL     1     -40.733  53.312 -53.079  1.00  0.00     0.068 A 
HETATM   17  C   UNL     1     -41.578  53.578 -52.009  1.00  0.00     0.039 A 
HETATM   18  C   UNL     1     -42.143  54.849 -51.851  1.00  0.00     0.032 A 
BRANCH  16  19
HETATM   19  O   UNL     1     -40.191  52.058 -53.104  1.00  0.00    -0.352 OA
BRANCH  19  20
HETATM   20  C   UNL     1     -40.463  51.298 -54.283  1.00  0.00     0.171 C 
HETATM   21  C   UNL     1     -39.560  50.078 -54.269  1.00  0.00     0.034 C 
ENDBRANCH  19  20
ENDBRANCH  16  19
ENDBRANCH  10  13
ENDBRANCH   1   7
BRANCH   3  22
HETATM   22  C   UNL     1     -47.399  62.283 -53.482  1.00  0.00     0.129 C 
BRANCH  22  23
HETATM   23  C   UNL     1     -48.737  62.558 -52.787  1.00  0.00     0.058 C 
BRANCH  23  24
HETATM   24  C   UNL     1     -49.958  62.162 -53.589  1.00  0.00    -0.057 A 
HETATM   25  C   UNL     1     -49.948  62.215 -54.991  1.00  0.00     0.009 A 
HETATM   26  C   UNL     1     -51.086  61.870 -55.721  1.00  0.00     0.025 A 
HETATM   27  C   UNL     1     -52.236  61.448 -55.049  1.00  0.00     0.074 A 
HETATM   28  C   UNL     1     -52.261  61.382 -53.654  1.00  0.00     0.025 A 
HETATM   29  C   UNL     1     -51.120  61.731 -52.930  1.00  0.00     0.009 A 
BRANCH  27  30
HETATM   30  S   UNL     1     -53.694  61.060 -55.971  1.00  0.00     0.239 S 
HETATM   31  O   UNL     1     -53.666  59.663 -56.337  1.00  0.00    -0.206 OA
HETATM   32  O   UNL     1     -54.835  61.669 -55.330  1.00  0.00    -0.206 OA
BRANCH  30  33
HETATM   33  N   UNL     1     -53.445  61.915 -57.393  1.00  0.00    -0.225 NA
HETATM   34  H   UNL     1     -52.649  61.523 -57.899  1.00  0.00     0.136 HD
HETATM   35  H   UNL     1     -54.307  61.941 -57.937  1.00  0.00     0.136 HD
ENDBRANCH  30  33
ENDBRANCH  27  30
ENDBRANCH  23  24
ENDBRANCH  22  23
ENDBRANCH   3  22
TORSDOF 9
ENDMDL
