MODEL 1
REMARK VINA RESULT:      -8.0      0.000      0.000
REMARK  7 active torsions:
REMARK  status: ('A' for Active; 'I' for Inactive)
REMARK    1  A    between atoms: N_2  and  C_4 
REMARK       I    between atoms: N_7  and  C_8 
REMARK    2  A    between atoms: C_8  and  C_9 
REMARK    3  A    between atoms: N_12  and  C_13 
REMARK    4  A    between atoms: C_20  and  C_21 
REMARK    5  A    between atoms: C_21  and  N_22 
REMARK    6  A    between atoms: N_22  and  C_25 
REMARK    7  A    between atoms: C_25  and  C_26 
ROOT
HETATM    1  C   UNL     1     -41.002  53.398 -53.579  1.00  0.00     0.719 A 
HETATM    2  N   UNL     1     -40.510  52.098 -53.529  1.00  0.00    -0.154 N 
HETATM    3  C   UNL     1     -39.968  51.952 -52.247  1.00  0.00     0.083 A 
HETATM    4  C   UNL     1     -39.444  50.681 -51.873  1.00  0.00     0.033 A 
HETATM    5  C   UNL     1     -39.426  49.682 -52.775  1.00  0.00     0.004 A 
HETATM    6  C   UNL     1     -39.910  49.879 -54.128  1.00  0.00     0.018 A 
HETATM    7  C   UNL     1     -40.434  51.067 -54.471  1.00  0.00     0.115 A 
HETATM    8  C   UNL     1     -40.050  53.189 -51.649  1.00  0.00     0.107 A 
HETATM    9  N   UNL     1     -40.685  54.084 -52.485  1.00  0.00    -0.064 NA
ENDROOT
BRANCH   1  10
HETATM   10  N   UNL     1     -41.739  53.974 -54.622  1.00  0.00    -0.147 N 
HETATM   11  C   UNL     1     -43.009  53.588 -55.003  1.00  0.00     0.233 A 
HETATM   12  N   UNL     1     -43.504  54.330 -55.969  1.00  0.00    -0.236 NA
HETATM   13  C   UNL     1     -42.509  55.224 -56.297  1.00  0.00     0.142 A 
HETATM   14  C   UNL     1     -41.403  54.974 -55.499  1.00  0.00     0.153 A 
BRANCH  13  15
HETATM   15  C   UNL     1     -42.568  56.318 -57.286  1.00  0.00     0.273 C 
HETATM   16  N   UNL     1     -42.400  57.668 -56.897  1.00  0.00    -0.347 N 
HETATM   17  C   UNL     1     -42.814  58.169 -55.587  1.00  0.00     0.128 C 
HETATM   18  C   UNL     1     -42.396  58.628 -57.998  1.00  0.00     0.128 C 
HETATM   19  C   UNL     1     -42.154  59.498 -55.234  1.00  0.00     0.053 C 
HETATM   20  C   UNL     1     -42.278  60.547 -56.345  1.00  0.00     0.190 C 
HETATM   21  C   UNL     1     -41.715  59.939 -57.633  1.00  0.00     0.053 C 
HETATM   22  O   UNL     1     -42.737  56.038 -58.474  1.00  0.00    -0.266 OA
BRANCH  20  23
HETATM   23  N   UNL     1     -43.727  61.038 -56.525  1.00  0.00    -0.074 N 
HETATM   24  C   UNL     1     -43.872  62.068 -57.629  1.00  0.00     0.269 C 
HETATM   25  H   UNL     1     -44.320  60.243 -56.796  1.00  0.00     0.279 HD
HETATM   26  C   UNL     1     -44.325  61.603 -55.252  1.00  0.00     0.269 C 
ENDBRANCH  20  23
ENDBRANCH  13  15
ENDBRANCH   1  10
BRANCH   8  27
HETATM   27  C   UNL     1     -39.560  53.612 -50.308  1.00  0.00     0.294 C 
BRANCH  27  28
HETATM   28  N   UNL     1     -40.670  53.621 -49.313  1.00  0.00    -0.066 N 
HETATM   29  H   UNL     1     -41.478  53.158 -49.753  1.00  0.00     0.277 HD
HETATM   30  H   UNL     1     -40.413  52.988 -48.545  1.00  0.00     0.277 HD
BRANCH  28  31
HETATM   31  C   UNL     1     -41.032  54.964 -48.799  1.00  0.00     0.272 C 
BRANCH  31  32
HETATM   32  C   UNL     1     -41.722  55.793 -49.833  1.00  0.00    -0.015 A 
HETATM   33  C   UNL     1     -42.958  55.407 -50.344  1.00  0.00     0.125 A 
HETATM   34  N   UNL     1     -43.622  56.085 -51.299  1.00  0.00    -0.273 NA
HETATM   35  C   UNL     1     -43.058  57.223 -51.756  1.00  0.00     0.116 A 
HETATM   36  C   UNL     1     -41.836  57.697 -51.312  1.00  0.00     0.020 A 
HETATM   37  C   UNL     1     -41.154  56.965 -50.342  1.00  0.00     0.012 A 
ENDBRANCH  31  32
ENDBRANCH  28  31
ENDBRANCH  27  28
ENDBRANCH   8  27
TORSDOF 7
ENDMDL
MODEL 2
REMARK VINA RESULT:      -7.9      2.171      5.292
REMARK  7 active torsions:
REMARK  status: ('A' for Active; 'I' for Inactive)
REMARK    1  A    between atoms: N_2  and  C_4 
REMARK       I    between atoms: N_7  and  C_8 
REMARK    2  A    between atoms: C_8  and  C_9 
REMARK    3  A    between atoms: N_12  and  C_13 
REMARK    4  A    between atoms: C_20  and  C_21 
REMARK    5  A    between atoms: C_21  and  N_22 
REMARK    6  A    between atoms: N_22  and  C_25 
REMARK    7  A    between atoms: C_25  and  C_26 
ROOT
HETATM    1  C   UNL     1     -43.126  56.884 -53.386  1.00  0.00     0.719 A 
HETATM    2  N   UNL     1     -42.388  57.713 -52.549  1.00  0.00    -0.154 N 
HETATM    3  C   UNL     1     -41.840  56.871 -51.576  1.00  0.00     0.083 A 
HETATM    4  C   UNL     1     -40.963  57.436 -50.605  1.00  0.00     0.033 A 
HETATM    5  C   UNL     1     -40.737  58.762 -50.612  1.00  0.00     0.004 A 
HETATM    6  C   UNL     1     -41.384  59.633 -51.573  1.00  0.00     0.018 A 
HETATM    7  C   UNL     1     -42.186  59.097 -52.509  1.00  0.00     0.115 A 
HETATM    8  C   UNL     1     -42.371  55.621 -51.803  1.00  0.00     0.107 A 
HETATM    9  N   UNL     1     -43.175  55.638 -52.924  1.00  0.00    -0.064 NA
ENDROOT
BRANCH   1  10
HETATM   10  N   UNL     1     -43.767  57.253 -54.576  1.00  0.00    -0.147 N 
HETATM   11  C   UNL     1     -44.998  57.874 -54.654  1.00  0.00     0.233 A 
HETATM   12  N   UNL     1     -45.348  58.169 -55.887  1.00  0.00    -0.236 NA
HETATM   13  C   UNL     1     -44.339  57.681 -56.687  1.00  0.00     0.142 A 
HETATM   14  C   UNL     1     -43.387  57.073 -55.882  1.00  0.00     0.153 A 
BRANCH  13  15
HETATM   15  C   UNL     1     -44.212  57.797 -58.151  1.00  0.00     0.273 C 
HETATM   16  N   UNL     1     -43.343  58.747 -58.739  1.00  0.00    -0.347 N 
HETATM   17  C   UNL     1     -43.050  60.037 -58.118  1.00  0.00     0.128 C 
HETATM   18  C   UNL     1     -43.259  58.683 -60.197  1.00  0.00     0.128 C 
HETATM   19  C   UNL     1     -41.790  60.686 -58.684  1.00  0.00     0.053 C 
HETATM   20  C   UNL     1     -41.777  60.739 -60.216  1.00  0.00     0.190 C 
HETATM   21  C   UNL     1     -41.986  59.316 -60.740  1.00  0.00     0.053 C 
HETATM   22  O   UNL     1     -44.856  57.028 -58.868  1.00  0.00    -0.266 OA
BRANCH  20  23
HETATM   23  N   UNL     1     -42.824  61.720 -60.775  1.00  0.00    -0.074 N 
HETATM   24  C   UNL     1     -42.835  61.777 -62.292  1.00  0.00     0.269 C 
HETATM   25  H   UNL     1     -43.761  61.406 -60.495  1.00  0.00     0.279 HD
HETATM   26  C   UNL     1     -42.666  63.128 -60.239  1.00  0.00     0.269 C 
ENDBRANCH  20  23
ENDBRANCH  13  15
ENDBRANCH   1  10
BRANCH   8  27
HETATM   27  C   UNL     1     -42.175  54.367 -51.023  1.00  0.00     0.294 C 
BRANCH  27  28
HETATM   28  N   UNL     1     -40.780  53.864 -51.162  1.00  0.00    -0.066 N 
HETATM   29  H   UNL     1     -40.164  54.536 -50.684  1.00  0.00     0.277 HD
HETATM   30  H   UNL     1     -40.693  53.008 -50.598  1.00  0.00     0.277 HD
BRANCH  28  31
HETATM   31  C   UNL     1     -40.341  53.629 -52.559  1.00  0.00     0.272 C 
BRANCH  31  32
HETATM   32  C   UNL     1     -40.100  52.181 -52.835  1.00  0.00    -0.015 A 
HETATM   33  C   UNL     1     -39.738  51.313 -51.809  1.00  0.00     0.125 A 
HETATM   34  N   UNL     1     -39.475  50.005 -51.989  1.00  0.00    -0.273 NA
HETATM   35  C   UNL     1     -39.605  49.514 -53.240  1.00  0.00     0.116 A 
HETATM   36  C   UNL     1     -39.964  50.289 -54.328  1.00  0.00     0.020 A 
HETATM   37  C   UNL     1     -40.207  51.646 -54.123  1.00  0.00     0.012 A 
ENDBRANCH  31  32
ENDBRANCH  28  31
ENDBRANCH  27  28
ENDBRANCH   8  27
TORSDOF 7
ENDMDL
MODEL 3
REMARK VINA RESULT:      -7.8      2.263      5.000
REMARK  7 active torsions:
REMARK  status: ('A' for Active; 'I' for Inactive)
REMARK    1  A    between atoms: N_2  and  C_4 
REMARK       I    between atoms: N_7  and  C_8 
REMARK    2  A    between atoms: C_8  and  C_9 
REMARK    3  A    between atoms: N_12  and  C_13 
REMARK    4  A    between atoms: C_20  and  C_21 
REMARK    5  A    between atoms: C_21  and  N_22 
REMARK    6  A    between atoms: N_22  and  C_25 
REMARK    7  A    between atoms: C_25  and  C_26 
ROOT
HETATM    1  C   UNL     1     -41.970  55.969 -53.619  1.00  0.00     0.719 A 
HETATM    2  N   UNL     1     -41.745  57.205 -53.022  1.00  0.00    -0.154 N 
HETATM    3  C   UNL     1     -41.228  56.919 -51.754  1.00  0.00     0.083 A 
HETATM    4  C   UNL     1     -40.829  58.006 -50.923  1.00  0.00     0.033 A 
HETATM    5  C   UNL     1     -41.017  59.268 -51.351  1.00  0.00     0.004 A 
HETATM    6  C   UNL     1     -41.637  59.546 -52.632  1.00  0.00     0.018 A 
HETATM    7  C   UNL     1     -41.984  58.522 -53.430  1.00  0.00     0.115 A 
HETATM    8  C   UNL     1     -41.286  55.552 -51.612  1.00  0.00     0.107 A 
HETATM    9  N   UNL     1     -41.755  54.968 -52.771  1.00  0.00    -0.064 NA
ENDROOT
BRANCH   1  10
HETATM   10  N   UNL     1     -42.377  55.740 -54.940  1.00  0.00    -0.147 N 
HETATM   11  C   UNL     1     -42.995  54.590 -55.392  1.00  0.00     0.233 A 
HETATM   12  N   UNL     1     -43.332  54.652 -56.661  1.00  0.00    -0.236 NA
HETATM   13  C   UNL     1     -42.877  55.873 -57.107  1.00  0.00     0.142 A 
HETATM   14  C   UNL     1     -42.246  56.524 -56.059  1.00  0.00     0.153 A 
BRANCH  13  15
HETATM   15  C   UNL     1     -43.045  56.464 -58.448  1.00  0.00     0.273 C 
HETATM   16  N   UNL     1     -43.747  57.679 -58.631  1.00  0.00    -0.347 N 
HETATM   17  C   UNL     1     -44.858  58.085 -57.773  1.00  0.00     0.128 C 
HETATM   18  C   UNL     1     -43.754  58.183 -60.003  1.00  0.00     0.128 C 
HETATM   19  C   UNL     1     -45.159  59.578 -57.872  1.00  0.00     0.053 C 
HETATM   20  C   UNL     1     -45.303  60.069 -59.317  1.00  0.00     0.190 C 
HETATM   21  C   UNL     1     -44.035  59.677 -60.078  1.00  0.00     0.053 C 
HETATM   22  O   UNL     1     -42.538  55.896 -59.418  1.00  0.00    -0.266 OA
BRANCH  20  23
HETATM   23  N   UNL     1     -46.574  59.523 -59.994  1.00  0.00    -0.074 N 
HETATM   24  C   UNL     1     -46.735  59.998 -61.427  1.00  0.00     0.269 C 
HETATM   25  H   UNL     1     -46.518  58.498 -60.038  1.00  0.00     0.279 HD
HETATM   26  C   UNL     1     -47.842  59.849 -59.230  1.00  0.00     0.269 C 
ENDBRANCH  20  23
ENDBRANCH  13  15
ENDBRANCH   1  10
BRANCH   8  27
HETATM   27  C   UNL     1     -40.922  54.719 -50.431  1.00  0.00     0.294 C 
BRANCH  27  28
HETATM   28  N   UNL     1     -41.082  53.268 -50.732  1.00  0.00    -0.066 N 
HETATM   29  H   UNL     1     -41.677  52.867 -49.994  1.00  0.00     0.277 HD
HETATM   30  H   UNL     1     -41.652  53.181 -51.582  1.00  0.00     0.277 HD
BRANCH  28  31
HETATM   31  C   UNL     1     -39.808  52.519 -50.864  1.00  0.00     0.272 C 
BRANCH  31  32
HETATM   32  C   UNL     1     -39.822  51.592 -52.035  1.00  0.00    -0.015 A 
HETATM   33  C   UNL     1     -39.586  50.230 -51.866  1.00  0.00     0.125 A 
HETATM   34  N   UNL     1     -39.552  49.342 -52.878  1.00  0.00    -0.273 NA
HETATM   35  C   UNL     1     -39.794  49.810 -54.120  1.00  0.00     0.116 A 
HETATM   36  C   UNL     1     -40.045  51.142 -54.396  1.00  0.00     0.020 A 
HETATM   37  C   UNL     1     -40.051  52.048 -53.337  1.00  0.00     0.012 A 
ENDBRANCH  31  32
ENDBRANCH  28  31
ENDBRANCH  27  28
ENDBRANCH   8  27
TORSDOF 7
ENDMDL
MODEL 4
REMARK VINA RESULT:      -7.8      1.849      2.549
REMARK  7 active torsions:
REMARK  status: ('A' for Active; 'I' for Inactive)
REMARK    1  A    between atoms: N_2  and  C_4 
REMARK       I    between atoms: N_7  and  C_8 
REMARK    2  A    between atoms: C_8  and  C_9 
REMARK    3  A    between atoms: N_12  and  C_13 
REMARK    4  A    between atoms: C_20  and  C_21 
REMARK    5  A    between atoms: C_21  and  N_22 
REMARK    6  A    between atoms: N_22  and  C_25 
REMARK    7  A    between atoms: C_25  and  C_26 
ROOT
HETATM    1  C   UNL     1     -41.564  54.529 -53.616  1.00  0.00     0.719 A 
HETATM    2  N   UNL     1     -40.821  53.417 -53.238  1.00  0.00    -0.154 N 
HETATM    3  C   UNL     1     -40.557  53.588 -51.875  1.00  0.00     0.083 A 
HETATM    4  C   UNL     1     -39.862  52.555 -51.183  1.00  0.00     0.033 A 
HETATM    5  C   UNL     1     -39.425  51.481 -51.866  1.00  0.00     0.004 A 
HETATM    6  C   UNL     1     -39.628  51.363 -53.297  1.00  0.00     0.018 A 
HETATM    7  C   UNL     1     -40.313  52.321 -53.944  1.00  0.00     0.115 A 
HETATM    8  C   UNL     1     -41.041  54.833 -51.541  1.00  0.00     0.107 A 
HETATM    9  N   UNL     1     -41.657  55.416 -52.630  1.00  0.00    -0.064 NA
ENDROOT
BRANCH   1  10
HETATM   10  N   UNL     1     -42.160  54.752 -54.864  1.00  0.00    -0.147 N 
HETATM   11  C   UNL     1     -43.151  53.968 -55.422  1.00  0.00     0.233 A 
HETATM   12  N   UNL     1     -43.584  54.429 -56.575  1.00  0.00    -0.236 NA
HETATM   13  C   UNL     1     -42.821  55.543 -56.840  1.00  0.00     0.142 A 
HETATM   14  C   UNL     1     -41.910  55.716 -55.809  1.00  0.00     0.153 A 
BRANCH  13  15
HETATM   15  C   UNL     1     -42.937  56.466 -57.985  1.00  0.00     0.273 C 
HETATM   16  N   UNL     1     -43.454  57.774 -57.824  1.00  0.00    -0.347 N 
HETATM   17  C   UNL     1     -44.468  58.103 -56.824  1.00  0.00     0.128 C 
HETATM   18  C   UNL     1     -43.425  58.598 -59.030  1.00  0.00     0.128 C 
HETATM   19  C   UNL     1     -44.545  59.600 -56.540  1.00  0.00     0.053 C 
HETATM   20  C   UNL     1     -44.655  60.449 -57.812  1.00  0.00     0.190 C 
HETATM   21  C   UNL     1     -43.481  60.088 -58.725  1.00  0.00     0.053 C 
HETATM   22  O   UNL     1     -42.547  56.092 -59.094  1.00  0.00    -0.266 OA
BRANCH  20  23
HETATM   23  N   UNL     1     -46.012  60.269 -58.518  1.00  0.00    -0.074 N 
HETATM   24  C   UNL     1     -46.134  61.088 -59.789  1.00  0.00     0.269 C 
HETATM   25  H   UNL     1     -46.115  59.286 -58.801  1.00  0.00     0.279 HD
HETATM   26  C   UNL     1     -47.194  60.583 -57.623  1.00  0.00     0.269 C 
ENDBRANCH  20  23
ENDBRANCH  13  15
ENDBRANCH   1  10
BRANCH   8  27
HETATM   27  C   UNL     1     -40.967  55.544 -50.235  1.00  0.00     0.294 C 
BRANCH  27  28
HETATM   28  N   UNL     1     -41.757  56.807 -50.269  1.00  0.00    -0.066 N 
HETATM   29  H   UNL     1     -42.450  56.714 -51.024  1.00  0.00     0.277 HD
HETATM   30  H   UNL     1     -42.328  56.848 -49.415  1.00  0.00     0.277 HD
BRANCH  28  31
HETATM   31  C   UNL     1     -40.948  58.041 -50.428  1.00  0.00     0.272 C 
BRANCH  31  32
HETATM   32  C   UNL     1     -41.381  58.846 -51.609  1.00  0.00    -0.015 A 
HETATM   33  C   UNL     1     -40.641  58.834 -52.788  1.00  0.00     0.125 A 
HETATM   34  N   UNL     1     -40.954  59.558 -53.879  1.00  0.00    -0.273 NA
HETATM   35  C   UNL     1     -42.071  60.312 -53.823  1.00  0.00     0.116 A 
HETATM   36  C   UNL     1     -42.879  60.392 -52.702  1.00  0.00     0.020 A 
HETATM   37  C   UNL     1     -42.523  59.653 -51.575  1.00  0.00     0.012 A 
ENDBRANCH  31  32
ENDBRANCH  28  31
ENDBRANCH  27  28
ENDBRANCH   8  27
TORSDOF 7
ENDMDL
MODEL 5
REMARK VINA RESULT:      -7.5      2.194      3.220
REMARK  7 active torsions:
REMARK  status: ('A' for Active; 'I' for Inactive)
REMARK    1  A    between atoms: N_2  and  C_4 
REMARK       I    between atoms: N_7  and  C_8 
REMARK    2  A    between atoms: C_8  and  C_9 
REMARK    3  A    between atoms: N_12  and  C_13 
REMARK    4  A    between atoms: C_20  and  C_21 
REMARK    5  A    between atoms: C_21  and  N_22 
REMARK    6  A    between atoms: N_22  and  C_25 
REMARK    7  A    between atoms: C_25  and  C_26 
ROOT
HETATM    1  C   UNL     1     -41.822  55.119 -53.734  1.00  0.00     0.719 A 
HETATM    2  N   UNL     1     -41.083  53.961 -53.519  1.00  0.00    -0.154 N 
HETATM    3  C   UNL     1     -40.870  53.904 -52.138  1.00  0.00     0.083 A 
HETATM    4  C   UNL     1     -40.191  52.771 -51.603  1.00  0.00     0.033 A 
HETATM    5  C   UNL     1     -39.721  51.827 -52.439  1.00  0.00     0.004 A 
HETATM    6  C   UNL     1     -39.873  51.948 -53.875  1.00  0.00     0.018 A 
HETATM    7  C   UNL     1     -40.542  52.998 -54.379  1.00  0.00     0.115 A 
HETATM    8  C   UNL     1     -41.375  55.074 -51.620  1.00  0.00     0.107 A 
HETATM    9  N   UNL     1     -41.957  55.829 -52.618  1.00  0.00    -0.064 NA
ENDROOT
BRANCH   1  10
HETATM   10  N   UNL     1     -42.375  55.546 -54.948  1.00  0.00    -0.147 N 
HETATM   11  C   UNL     1     -42.378  54.814 -56.120  1.00  0.00     0.233 A 
HETATM   12  N   UNL     1     -43.016  55.414 -57.100  1.00  0.00    -0.236 NA
HETATM   13  C   UNL     1     -43.419  56.629 -56.592  1.00  0.00     0.142 A 
HETATM   14  C   UNL     1     -42.982  56.731 -55.280  1.00  0.00     0.153 A 
BRANCH  13  15
HETATM   15  C   UNL     1     -44.223  57.666 -57.265  1.00  0.00     0.273 C 
HETATM   16  N   UNL     1     -43.770  58.291 -58.451  1.00  0.00    -0.347 N 
HETATM   17  C   UNL     1     -42.353  58.507 -58.738  1.00  0.00     0.128 C 
HETATM   18  C   UNL     1     -44.714  59.234 -59.047  1.00  0.00     0.128 C 
HETATM   19  C   UNL     1     -42.090  58.779 -60.216  1.00  0.00     0.053 C 
HETATM   20  C   UNL     1     -42.994  59.873 -60.797  1.00  0.00     0.190 C 
HETATM   21  C   UNL     1     -44.448  59.477 -60.526  1.00  0.00     0.053 C 
HETATM   22  O   UNL     1     -45.322  57.968 -56.793  1.00  0.00    -0.266 OA
BRANCH  20  23
HETATM   23  N   UNL     1     -42.661  61.266 -60.232  1.00  0.00    -0.074 N 
HETATM   24  C   UNL     1     -43.615  62.345 -60.711  1.00  0.00     0.269 C 
HETATM   25  H   UNL     1     -42.748  61.243 -59.208  1.00  0.00     0.279 HD
HETATM   26  C   UNL     1     -41.242  61.706 -60.531  1.00  0.00     0.269 C 
ENDBRANCH  20  23
ENDBRANCH  13  15
ENDBRANCH   1  10
BRANCH   8  27
HETATM   27  C   UNL     1     -41.353  55.559 -50.211  1.00  0.00     0.294 C 
BRANCH  27  28
HETATM   28  N   UNL     1     -41.778  56.984 -50.130  1.00  0.00    -0.066 N 
HETATM   29  H   UNL     1     -42.654  57.072 -50.664  1.00  0.00     0.277 HD
HETATM   30  H   UNL     1     -42.062  57.176 -49.161  1.00  0.00     0.277 HD
BRANCH  28  31
HETATM   31  C   UNL     1     -40.763  57.962 -50.593  1.00  0.00     0.272 C 
BRANCH  31  32
HETATM   32  C   UNL     1     -41.286  58.839 -51.683  1.00  0.00    -0.015 A 
HETATM   33  C   UNL     1     -40.644  58.900 -52.916  1.00  0.00     0.125 A 
HETATM   34  N   UNL     1     -41.039  59.690 -53.932  1.00  0.00    -0.273 NA
HETATM   35  C   UNL     1     -42.145  60.440 -53.738  1.00  0.00     0.116 A 
HETATM   36  C   UNL     1     -42.860  60.450 -52.554  1.00  0.00     0.020 A 
HETATM   37  C   UNL     1     -42.417  59.643 -51.507  1.00  0.00     0.012 A 
ENDBRANCH  31  32
ENDBRANCH  28  31
ENDBRANCH  27  28
ENDBRANCH   8  27
TORSDOF 7
ENDMDL
MODEL 6
REMARK VINA RESULT:      -7.4      3.530      7.244
REMARK  7 active torsions:
REMARK  status: ('A' for Active; 'I' for Inactive)
REMARK    1  A    between atoms: N_2  and  C_4 
REMARK       I    between atoms: N_7  and  C_8 
REMARK    2  A    between atoms: C_8  and  C_9 
REMARK    3  A    between atoms: N_12  and  C_13 
REMARK    4  A    between atoms: C_20  and  C_21 
REMARK    5  A    between atoms: C_21  and  N_22 
REMARK    6  A    between atoms: N_22  and  C_25 
REMARK    7  A    between atoms: C_25  and  C_26 
ROOT
HETATM    1  C   UNL     1     -43.009  57.528 -55.482  1.00  0.00     0.719 A 
HETATM    2  N   UNL     1     -43.031  57.355 -56.862  1.00  0.00    -0.154 N 
HETATM    3  C   UNL     1     -43.033  55.970 -57.065  1.00  0.00     0.083 A 
HETATM    4  C   UNL     1     -43.125  55.481 -58.400  1.00  0.00     0.033 A 
HETATM    5  C   UNL     1     -43.143  56.354 -59.424  1.00  0.00     0.004 A 
HETATM    6  C   UNL     1     -43.049  57.783 -59.199  1.00  0.00     0.018 A 
HETATM    7  C   UNL     1     -42.995  58.247 -57.939  1.00  0.00     0.115 A 
HETATM    8  C   UNL     1     -42.889  55.397 -55.822  1.00  0.00     0.107 A 
HETATM    9  N   UNL     1     -42.867  56.370 -54.844  1.00  0.00    -0.064 NA
ENDROOT
BRANCH   1  10
HETATM   10  N   UNL     1     -43.114  58.741 -54.790  1.00  0.00    -0.147 N 
HETATM   11  C   UNL     1     -42.074  59.625 -54.575  1.00  0.00     0.233 A 
HETATM   12  N   UNL     1     -42.449  60.720 -53.952  1.00  0.00    -0.236 NA
HETATM   13  C   UNL     1     -43.789  60.553 -53.682  1.00  0.00     0.142 A 
HETATM   14  C   UNL     1     -44.189  59.312 -54.156  1.00  0.00     0.153 A 
BRANCH  13  15
HETATM   15  C   UNL     1     -44.708  61.514 -53.044  1.00  0.00     0.273 C 
HETATM   16  N   UNL     1     -44.623  61.805 -51.662  1.00  0.00    -0.347 N 
HETATM   17  C   UNL     1     -44.180  60.821 -50.675  1.00  0.00     0.128 C 
HETATM   18  C   UNL     1     -45.541  62.841 -51.194  1.00  0.00     0.128 C 
HETATM   19  C   UNL     1     -43.753  61.464 -49.359  1.00  0.00     0.053 C 
HETATM   20  C   UNL     1     -44.791  62.447 -48.805  1.00  0.00     0.190 C 
HETATM   21  C   UNL     1     -45.088  63.484 -49.891  1.00  0.00     0.053 C 
HETATM   22  O   UNL     1     -45.545  62.092 -53.742  1.00  0.00    -0.266 OA
BRANCH  20  23
HETATM   23  N   UNL     1     -46.069  61.736 -48.322  1.00  0.00    -0.074 N 
HETATM   24  C   UNL     1     -47.119  62.695 -47.793  1.00  0.00     0.269 C 
HETATM   25  H   UNL     1     -46.503  61.248 -49.116  1.00  0.00     0.279 HD
HETATM   26  C   UNL     1     -45.800  60.681 -47.267  1.00  0.00     0.269 C 
ENDBRANCH  20  23
ENDBRANCH  13  15
ENDBRANCH   1  10
BRANCH   8  27
HETATM   27  C   UNL     1     -42.767  53.955 -55.467  1.00  0.00     0.294 C 
BRANCH  27  28
HETATM   28  N   UNL     1     -42.072  53.785 -54.160  1.00  0.00    -0.066 N 
HETATM   29  H   UNL     1     -42.253  54.632 -53.605  1.00  0.00     0.277 HD
HETATM   30  H   UNL     1     -42.554  53.042 -53.639  1.00  0.00     0.277 HD
BRANCH  28  31
HETATM   31  C   UNL     1     -40.618  53.508 -54.262  1.00  0.00     0.272 C 
BRANCH  31  32
HETATM   32  C   UNL     1     -40.254  52.191 -53.657  1.00  0.00    -0.015 A 
HETATM   33  C   UNL     1     -39.942  52.093 -52.305  1.00  0.00     0.125 A 
HETATM   34  N   UNL     1     -39.575  50.947 -51.699  1.00  0.00    -0.273 NA
HETATM   35  C   UNL     1     -39.544  49.830 -52.455  1.00  0.00     0.116 A 
HETATM   36  C   UNL     1     -39.840  49.817 -53.807  1.00  0.00     0.020 A 
HETATM   37  C   UNL     1     -40.193  51.019 -54.418  1.00  0.00     0.012 A 
ENDBRANCH  31  32
ENDBRANCH  28  31
ENDBRANCH  27  28
ENDBRANCH   8  27
TORSDOF 7
ENDMDL
MODEL 7
REMARK VINA RESULT:      -7.4      3.085      9.470
REMARK  7 active torsions:
REMARK  status: ('A' for Active; 'I' for Inactive)
REMARK    1  A    between atoms: N_2  and  C_4 
REMARK       I    between atoms: N_7  and  C_8 
REMARK    2  A    between atoms: C_8  and  C_9 
REMARK    3  A    between atoms: N_12  and  C_13 
REMARK    4  A    between atoms: C_20  and  C_21 
REMARK    5  A    between atoms: C_21  and  N_22 
REMARK    6  A    between atoms: N_22  and  C_25 
REMARK    7  A    between atoms: C_25  and  C_26 
ROOT
HETATM    1  C   UNL     1     -42.859  57.998 -56.223  1.00  0.00     0.719 A 
HETATM    2  N   UNL     1     -42.703  57.629 -57.555  1.00  0.00    -0.154 N 
HETATM    3  C   UNL     1     -42.314  58.796 -58.222  1.00  0.00     0.083 A 
HETATM    4  C   UNL     1     -42.007  58.712 -59.611  1.00  0.00     0.033 A 
HETATM    5  C   UNL     1     -42.160  57.539 -60.252  1.00  0.00     0.004 A 
HETATM    6  C   UNL     1     -42.651  56.361 -59.563  1.00  0.00     0.018 A 
HETATM    7  C   UNL     1     -42.909  56.431 -58.246  1.00  0.00     0.115 A 
HETATM    8  C   UNL     1     -42.377  59.811 -57.295  1.00  0.00     0.107 A 
HETATM    9  N   UNL     1     -42.725  59.310 -56.057  1.00  0.00    -0.064 NA
ENDROOT
BRANCH   1  10
HETATM   10  N   UNL     1     -43.131  57.144 -55.145  1.00  0.00    -0.147 N 
HETATM   11  C   UNL     1     -44.394  56.777 -54.723  1.00  0.00     0.233 A 
HETATM   12  N   UNL     1     -44.374  55.917 -53.729  1.00  0.00    -0.236 NA
HETATM   13  C   UNL     1     -43.044  55.731 -53.425  1.00  0.00     0.142 A 
HETATM   14  C   UNL     1     -42.279  56.524 -54.266  1.00  0.00     0.153 A 
BRANCH  13  15
HETATM   15  C   UNL     1     -42.466  54.819 -52.420  1.00  0.00     0.273 C 
HETATM   16  N   UNL     1     -41.423  53.923 -52.756  1.00  0.00    -0.347 N 
HETATM   17  C   UNL     1     -41.286  53.335 -54.087  1.00  0.00     0.128 C 
HETATM   18  C   UNL     1     -40.895  53.148 -51.635  1.00  0.00     0.128 C 
HETATM   19  C   UNL     1     -39.889  52.775 -54.338  1.00  0.00     0.053 C 
HETATM   20  C   UNL     1     -39.401  51.848 -53.218  1.00  0.00     0.190 C 
HETATM   21  C   UNL     1     -39.493  52.616 -51.897  1.00  0.00     0.053 C 
HETATM   22  O   UNL     1     -42.886  54.865 -51.262  1.00  0.00    -0.266 OA
BRANCH  20  23
HETATM   23  N   UNL     1     -40.187  50.525 -53.173  1.00  0.00    -0.074 N 
HETATM   24  C   UNL     1     -39.673  49.566 -52.114  1.00  0.00     0.269 C 
HETATM   25  H   UNL     1     -41.165  50.723 -52.928  1.00  0.00     0.279 HD
HETATM   26  C   UNL     1     -40.217  49.805 -54.506  1.00  0.00     0.269 C 
ENDBRANCH  20  23
ENDBRANCH  13  15
ENDBRANCH   1  10
BRANCH   8  27
HETATM   27  C   UNL     1     -42.128  61.267 -57.486  1.00  0.00     0.294 C 
BRANCH  27  28
HETATM   28  N   UNL     1     -40.730  61.516 -57.935  1.00  0.00    -0.066 N 
HETATM   29  H   UNL     1     -40.109  61.261 -57.154  1.00  0.00     0.277 HD
HETATM   30  H   UNL     1     -40.503  60.827 -58.664  1.00  0.00     0.277 HD
BRANCH  28  31
HETATM   31  C   UNL     1     -40.465  62.897 -58.406  1.00  0.00     0.272 C 
BRANCH  31  32
HETATM   32  C   UNL     1     -40.143  62.940 -59.864  1.00  0.00    -0.015 A 
HETATM   33  C   UNL     1     -39.039  63.650 -60.327  1.00  0.00     0.125 A 
HETATM   34  N   UNL     1     -38.707  63.759 -61.627  1.00  0.00    -0.273 NA
HETATM   35  C   UNL     1     -39.482  63.109 -62.521  1.00  0.00     0.116 A 
HETATM   36  C   UNL     1     -40.598  62.373 -62.166  1.00  0.00     0.020 A 
HETATM   37  C   UNL     1     -40.938  62.295 -60.817  1.00  0.00     0.012 A 
ENDBRANCH  31  32
ENDBRANCH  28  31
ENDBRANCH  27  28
ENDBRANCH   8  27
TORSDOF 7
ENDMDL
MODEL 8
REMARK VINA RESULT:      -7.3      3.017      9.156
REMARK  7 active torsions:
REMARK  status: ('A' for Active; 'I' for Inactive)
REMARK    1  A    between atoms: N_2  and  C_4 
REMARK       I    between atoms: N_7  and  C_8 
REMARK    2  A    between atoms: C_8  and  C_9 
REMARK    3  A    between atoms: N_12  and  C_13 
REMARK    4  A    between atoms: C_20  and  C_21 
REMARK    5  A    between atoms: C_21  and  N_22 
REMARK    6  A    between atoms: N_22  and  C_25 
REMARK    7  A    between atoms: C_25  and  C_26 
ROOT
HETATM    1  C   UNL     1     -43.127  56.736 -56.651  1.00  0.00     0.719 A 
HETATM    2  N   UNL     1     -42.743  57.957 -57.193  1.00  0.00    -0.154 N 
HETATM    3  C   UNL     1     -42.904  57.820 -58.576  1.00  0.00     0.083 A 
HETATM    4  C   UNL     1     -42.651  58.952 -59.404  1.00  0.00     0.033 A 
HETATM    5  C   UNL     1     -42.208  60.093 -58.846  1.00  0.00     0.004 A 
HETATM    6  C   UNL     1     -41.961  60.189 -57.421  1.00  0.00     0.018 A 
HETATM    7  C   UNL     1     -42.231  59.133 -56.635  1.00  0.00     0.115 A 
HETATM    8  C   UNL     1     -43.250  56.506 -58.797  1.00  0.00     0.107 A 
HETATM    9  N   UNL     1     -43.379  55.836 -57.597  1.00  0.00    -0.064 NA
ENDROOT
BRANCH   1  10
HETATM   10  N   UNL     1     -43.247  56.425 -55.290  1.00  0.00    -0.147 N 
HETATM   11  C   UNL     1     -44.233  56.905 -54.451  1.00  0.00     0.233 A 
HETATM   12  N   UNL     1     -44.158  56.412 -53.234  1.00  0.00    -0.236 NA
HETATM   13  C   UNL     1     -43.043  55.604 -53.229  1.00  0.00     0.142 A 
HETATM   14  C   UNL     1     -42.453  55.650 -54.483  1.00  0.00     0.153 A 
BRANCH  13  15
HETATM   15  C   UNL     1     -42.538  54.769 -52.123  1.00  0.00     0.273 C 
HETATM   16  N   UNL     1     -41.438  53.897 -52.305  1.00  0.00    -0.347 N 
HETATM   17  C   UNL     1     -41.150  53.247 -53.582  1.00  0.00     0.128 C 
HETATM   18  C   UNL     1     -40.999  53.202 -51.097  1.00  0.00     0.128 C 
HETATM   19  C   UNL     1     -39.717  52.728 -53.665  1.00  0.00     0.053 C 
HETATM   20  C   UNL     1     -39.313  51.880 -52.453  1.00  0.00     0.190 C 
HETATM   21  C   UNL     1     -39.561  52.711 -51.191  1.00  0.00     0.053 C 
HETATM   22  O   UNL     1     -43.073  54.859 -51.016  1.00  0.00    -0.266 OA
BRANCH  20  23
HETATM   23  N   UNL     1     -40.055  50.532 -52.411  1.00  0.00    -0.074 N 
HETATM   24  C   UNL     1     -39.671  49.680 -51.215  1.00  0.00     0.269 C 
HETATM   25  H   UNL     1     -41.064  50.706 -52.324  1.00  0.00     0.279 HD
HETATM   26  C   UNL     1     -39.869  49.711 -53.671  1.00  0.00     0.269 C 
ENDBRANCH  20  23
ENDBRANCH  13  15
ENDBRANCH   1  10
BRANCH   8  27
HETATM   27  C   UNL     1     -43.477  55.805 -60.091  1.00  0.00     0.294 C 
BRANCH  27  28
HETATM   28  N   UNL     1     -44.652  56.375 -60.809  1.00  0.00    -0.066 N 
HETATM   29  H   UNL     1     -44.476  57.383 -60.930  1.00  0.00     0.277 HD
HETATM   30  H   UNL     1     -44.647  56.008 -61.768  1.00  0.00     0.277 HD
BRANCH  28  31
HETATM   31  C   UNL     1     -45.959  56.132 -60.150  1.00  0.00     0.272 C 
BRANCH  31  32
HETATM   32  C   UNL     1     -46.621  57.404 -59.732  1.00  0.00    -0.015 A 
HETATM   33  C   UNL     1     -47.120  58.291 -60.681  1.00  0.00     0.125 A 
HETATM   34  N   UNL     1     -47.700  59.468 -60.378  1.00  0.00    -0.273 NA
HETATM   35  C   UNL     1     -47.824  59.779 -59.071  1.00  0.00     0.116 A 
HETATM   36  C   UNL     1     -47.366  58.966 -58.049  1.00  0.00     0.020 A 
HETATM   37  C   UNL     1     -46.748  57.764 -58.386  1.00  0.00     0.012 A 
ENDBRANCH  31  32
ENDBRANCH  28  31
ENDBRANCH  27  28
ENDBRANCH   8  27
TORSDOF 7
ENDMDL
MODEL 9
REMARK VINA RESULT:      -7.3      4.183      7.228
REMARK  7 active torsions:
REMARK  status: ('A' for Active; 'I' for Inactive)
REMARK    1  A    between atoms: N_2  and  C_4 
REMARK       I    between atoms: N_7  and  C_8 
REMARK    2  A    between atoms: C_8  and  C_9 
REMARK    3  A    between atoms: N_12  and  C_13 
REMARK    4  A    between atoms: C_20  and  C_21 
REMARK    5  A    between atoms: C_21  and  N_22 
REMARK    6  A    between atoms: N_22  and  C_25 
REMARK    7  A    between atoms: C_25  and  C_26 
ROOT
HETATM    1  C   UNL     1     -41.906  56.774 -52.101  1.00  0.00     0.719 A 
HETATM    2  N   UNL     1     -41.411  55.816 -51.223  1.00  0.00    -0.154 N 
HETATM    3  C   UNL     1     -41.038  54.731 -52.024  1.00  0.00     0.083 A 
HETATM    4  C   UNL     1     -40.421  53.608 -51.401  1.00  0.00     0.033 A 
HETATM    5  C   UNL     1     -40.273  53.594 -50.064  1.00  0.00     0.004 A 
HETATM    6  C   UNL     1     -40.747  54.689 -49.240  1.00  0.00     0.018 A 
HETATM    7  C   UNL     1     -41.298  55.763 -49.830  1.00  0.00     0.115 A 
HETATM    8  C   UNL     1     -41.438  55.040 -53.304  1.00  0.00     0.107 A 
HETATM    9  N   UNL     1     -41.985  56.307 -53.343  1.00  0.00    -0.064 NA
ENDROOT
BRANCH   1  10
HETATM   10  N   UNL     1     -42.298  58.080 -51.780  1.00  0.00    -0.147 N 
HETATM   11  C   UNL     1     -41.474  59.043 -51.230  1.00  0.00     0.233 A 
HETATM   12  N   UNL     1     -42.069  60.206 -51.083  1.00  0.00    -0.236 NA
HETATM   13  C   UNL     1     -43.367  60.015 -51.500  1.00  0.00     0.142 A 
HETATM   14  C   UNL     1     -43.522  58.692 -51.884  1.00  0.00     0.153 A 
BRANCH  13  15
HETATM   15  C   UNL     1     -44.444  61.019 -51.590  1.00  0.00     0.273 C 
HETATM   16  N   UNL     1     -44.777  61.839 -50.486  1.00  0.00    -0.347 N 
HETATM   17  C   UNL     1     -44.640  61.391 -49.102  1.00  0.00     0.128 C 
HETATM   18  C   UNL     1     -45.803  62.844 -50.756  1.00  0.00     0.128 C 
HETATM   19  C   UNL     1     -44.632  62.551 -48.110  1.00  0.00     0.053 C 
HETATM   20  C   UNL     1     -45.797  63.526 -48.314  1.00  0.00     0.190 C 
HETATM   21  C   UNL     1     -45.765  64.002 -49.769  1.00  0.00     0.053 C 
HETATM   22  O   UNL     1     -45.039  61.159 -52.661  1.00  0.00    -0.266 OA
BRANCH  20  23
HETATM   23  N   UNL     1     -47.154  62.901 -47.941  1.00  0.00    -0.074 N 
HETATM   24  C   UNL     1     -48.324  63.839 -48.172  1.00  0.00     0.269 C 
HETATM   25  H   UNL     1     -47.322  62.082 -48.539  1.00  0.00     0.279 HD
HETATM   26  C   UNL     1     -47.207  62.403 -46.511  1.00  0.00     0.269 C 
ENDBRANCH  20  23
ENDBRANCH  13  15
ENDBRANCH   1  10
BRANCH   8  27
HETATM   27  C   UNL     1     -41.346  54.211 -54.538  1.00  0.00     0.294 C 
BRANCH  27  28
HETATM   28  N   UNL     1     -41.514  55.048 -55.759  1.00  0.00    -0.066 N 
HETATM   29  H   UNL     1     -41.262  56.013 -55.504  1.00  0.00     0.277 HD
HETATM   30  H   UNL     1     -40.789  54.775 -56.434  1.00  0.00     0.277 HD
BRANCH  28  31
HETATM   31  C   UNL     1     -42.864  54.987 -56.371  1.00  0.00     0.272 C 
BRANCH  31  32
HETATM   32  C   UNL     1     -42.966  55.846 -57.589  1.00  0.00    -0.015 A 
HETATM   33  C   UNL     1     -42.609  57.191 -57.541  1.00  0.00     0.125 A 
HETATM   34  N   UNL     1     -42.705  58.031 -58.589  1.00  0.00    -0.273 NA
HETATM   35  C   UNL     1     -43.146  57.518 -59.756  1.00  0.00     0.116 A 
HETATM   36  C   UNL     1     -43.521  56.195 -59.912  1.00  0.00     0.020 A 
HETATM   37  C   UNL     1     -43.438  55.349 -58.808  1.00  0.00     0.012 A 
ENDBRANCH  31  32
ENDBRANCH  28  31
ENDBRANCH  27  28
ENDBRANCH   8  27
TORSDOF 7
ENDMDL
MODEL 10
REMARK VINA RESULT:      -7.2      2.019      5.128
REMARK  7 active torsions:
REMARK  status: ('A' for Active; 'I' for Inactive)
REMARK    1  A    between atoms: N_2  and  C_4 
REMARK       I    between atoms: N_7  and  C_8 
REMARK    2  A    between atoms: C_8  and  C_9 
REMARK    3  A    between atoms: N_12  and  C_13 
REMARK    4  A    between atoms: C_20  and  C_21 
REMARK    5  A    between atoms: C_21  and  N_22 
REMARK    6  A    between atoms: N_22  and  C_25 
REMARK    7  A    between atoms: C_25  and  C_26 
ROOT
HETATM    1  C   UNL     1     -43.199  56.114 -54.756  1.00  0.00     0.719 A 
HETATM    2  N   UNL     1     -43.700  57.016 -53.823  1.00  0.00    -0.154 N 
HETATM    3  C   UNL     1     -43.607  56.366 -52.587  1.00  0.00     0.083 A 
HETATM    4  C   UNL     1     -43.987  57.081 -51.415  1.00  0.00     0.033 A 
HETATM    5  C   UNL     1     -44.480  58.327 -51.532  1.00  0.00     0.004 A 
HETATM    6  C   UNL     1     -44.654  58.951 -52.828  1.00  0.00     0.018 A 
HETATM    7  C   UNL     1     -44.265  58.291 -53.932  1.00  0.00     0.115 A 
HETATM    8  C   UNL     1     -43.179  55.085 -52.855  1.00  0.00     0.107 A 
HETATM    9  N   UNL     1     -42.936  54.934 -54.205  1.00  0.00    -0.064 NA
ENDROOT
BRANCH   1  10
HETATM   10  N   UNL     1     -42.982  56.355 -56.119  1.00  0.00    -0.147 N 
HETATM   11  C   UNL     1     -43.217  55.448 -57.133  1.00  0.00     0.233 A 
HETATM   12  N   UNL     1     -42.991  55.943 -58.330  1.00  0.00    -0.236 NA
HETATM   13  C   UNL     1     -42.530  57.223 -58.121  1.00  0.00     0.142 A 
HETATM   14  C   UNL     1     -42.479  57.462 -56.756  1.00  0.00     0.153 A 
BRANCH  13  15
HETATM   15  C   UNL     1     -42.182  58.234 -59.137  1.00  0.00     0.273 C 
HETATM   16  N   UNL     1     -42.300  59.618 -58.865  1.00  0.00    -0.347 N 
HETATM   17  C   UNL     1     -43.313  60.161 -57.962  1.00  0.00     0.128 C 
HETATM   18  C   UNL     1     -41.834  60.496 -59.937  1.00  0.00     0.128 C 
HETATM   19  C   UNL     1     -42.980  61.573 -57.490  1.00  0.00     0.053 C 
HETATM   20  C   UNL     1     -42.628  62.524 -58.639  1.00  0.00     0.190 C 
HETATM   21  C   UNL     1     -41.488  61.893 -59.443  1.00  0.00     0.053 C 
HETATM   22  O   UNL     1     -41.752  57.858 -60.229  1.00  0.00    -0.266 OA
BRANCH  20  23
HETATM   23  N   UNL     1     -43.847  62.847 -59.523  1.00  0.00    -0.074 N 
HETATM   24  C   UNL     1     -43.515  63.777 -60.676  1.00  0.00     0.269 C 
HETATM   25  H   UNL     1     -44.193  61.978 -59.949  1.00  0.00     0.279 HD
HETATM   26  C   UNL     1     -45.008  63.433 -58.745  1.00  0.00     0.269 C 
ENDBRANCH  20  23
ENDBRANCH  13  15
ENDBRANCH   1  10
BRANCH   8  27
HETATM   27  C   UNL     1     -42.974  53.952 -51.910  1.00  0.00     0.294 C 
BRANCH  27  28
HETATM   28  N   UNL     1     -41.601  53.982 -51.331  1.00  0.00    -0.066 N 
HETATM   29  H   UNL     1     -41.517  54.854 -50.789  1.00  0.00     0.277 HD
HETATM   30  H   UNL     1     -41.540  53.244 -50.619  1.00  0.00     0.277 HD
BRANCH  28  31
HETATM   31  C   UNL     1     -40.506  53.857 -52.324  1.00  0.00     0.272 C 
BRANCH  31  32
HETATM   32  C   UNL     1     -40.226  52.432 -52.673  1.00  0.00    -0.015 A 
HETATM   33  C   UNL     1     -39.784  51.537 -51.703  1.00  0.00     0.125 A 
HETATM   34  N   UNL     1     -39.483  50.248 -51.951  1.00  0.00    -0.273 NA
HETATM   35  C   UNL     1     -39.653  49.805 -53.214  1.00  0.00     0.116 A 
HETATM   36  C   UNL     1     -40.090  50.610 -54.251  1.00  0.00     0.020 A 
HETATM   37  C   UNL     1     -40.373  51.947 -53.977  1.00  0.00     0.012 A 
ENDBRANCH  31  32
ENDBRANCH  28  31
ENDBRANCH  27  28
ENDBRANCH   8  27
TORSDOF 7
ENDMDL
