MODEL 1
REMARK VINA RESULT:     -10.6      0.000      0.000
REMARK  5 active torsions:
REMARK  status: ('A' for Active; 'I' for Inactive)
REMARK    1  A    between atoms: N_4  and  C_5 
REMARK    2  A    between atoms: C_15  and  N_16 
REMARK       I    between atoms: N_16  and  C_17 
REMARK    3  A    between atoms: C_17  and  C_18 
REMARK    4  A    between atoms: C_20  and  C_21 
REMARK    5  A    between atoms: C_26  and  C_27 
ROOT
HETATM    1  N   UNL     1     -42.342  54.903 -55.045  1.00  0.00    -0.307 N 
HETATM    2  C   UNL     1     -41.003  54.836 -54.693  1.00  0.00     0.257 C 
HETATM    3  O   UNL     1     -40.133  55.627 -55.043  1.00  0.00    -0.267 OA
HETATM    4  H   UNL     1     -43.028  54.387 -54.512  1.00  0.00     0.170 HD
ENDROOT
BRANCH   1   5
HETATM    5  C   UNL     1     -42.808  55.915 -55.870  1.00  0.00     0.152 C 
HETATM    6  N   UNL     1     -43.248  57.180 -55.485  1.00  0.00    -0.045 N 
HETATM    7  N   UNL     1     -43.932  57.792 -56.514  1.00  0.00    -0.156 NA
HETATM    8  C   UNL     1     -43.647  57.044 -57.585  1.00  0.00     0.055 C 
HETATM    9  C   UNL     1     -44.135  57.444 -58.928  1.00  0.00     0.072 C 
HETATM   10  C   UNL     1     -42.912  55.888 -57.243  1.00  0.00     0.079 C 
BRANCH   6  11
HETATM   11  C   UNL     1     -42.929  57.954 -54.347  1.00  0.00     0.732 A 
HETATM   12  N   UNL     1     -43.787  58.322 -53.440  1.00  0.00    -0.067 NA
HETATM   13  C   UNL     1     -43.242  59.025 -52.404  1.00  0.00     0.065 A 
HETATM   14  C   UNL     1     -41.953  59.334 -52.255  1.00  0.00     0.036 A 
HETATM   15  C   UNL     1     -44.050  59.515 -51.250  1.00  0.00     0.061 C 
HETATM   16  C   UNL     1     -41.656  60.074 -51.009  1.00  0.00     0.047 C 
HETATM   17  C   UNL     1     -40.996  58.894 -53.267  1.00  0.00     0.268 A 
HETATM   18  C   UNL     1     -43.063  60.428 -50.508  1.00  0.00     0.011 C 
HETATM   19  O   UNL     1     -39.795  59.114 -53.178  1.00  0.00    -0.267 OA
HETATM   20  N   UNL     1     -41.573  58.203 -54.293  1.00  0.00    -0.152 N 
HETATM   21  H   UNL     1     -40.982  57.826 -55.026  1.00  0.00     0.188 HD
ENDBRANCH   6  11
ENDBRANCH   1   5
BRANCH   2  22
HETATM   22  C   UNL     1     -40.623  53.742 -53.757  1.00  0.00     0.034 A 
HETATM   23  C   UNL     1     -40.621  54.024 -52.384  1.00  0.00     0.033 A 
HETATM   24  C   UNL     1     -40.308  53.029 -51.447  1.00  0.00     0.049 A 
HETATM   25  C   UNL     1     -40.003  51.737 -51.906  1.00  0.00     0.032 A 
HETATM   26  C   UNL     1     -40.008  51.433 -53.278  1.00  0.00     0.049 A 
HETATM   27  C   UNL     1     -40.331  52.445 -54.199  1.00  0.00     0.033 A 
BRANCH  24  28
HETATM   28  C   UNL     1     -40.314  53.322 -49.964  1.00  0.00     0.417 C 
HETATM   29  F   UNL     1     -39.234  54.034 -49.540  1.00  0.00    -0.166 F 
HETATM   30  F   UNL     1     -41.410  54.034 -49.585  1.00  0.00    -0.166 F 
HETATM   31  F   UNL     1     -40.329  52.184 -49.216  1.00  0.00    -0.166 F 
ENDBRANCH  24  28
BRANCH  26  32
HETATM   32  C   UNL     1     -39.719  50.032 -53.769  1.00  0.00     0.417 C 
HETATM   33  F   UNL     1     -39.626  49.116 -52.769  1.00  0.00    -0.166 F 
HETATM   34  F   UNL     1     -40.678  49.577 -54.618  1.00  0.00    -0.166 F 
HETATM   35  F   UNL     1     -38.545  49.961 -54.457  1.00  0.00    -0.166 F 
ENDBRANCH  26  32
ENDBRANCH   2  22
TORSDOF 5
ENDMDL
MODEL 2
REMARK VINA RESULT:     -10.4      0.170      3.061
REMARK  5 active torsions:
REMARK  status: ('A' for Active; 'I' for Inactive)
REMARK    1  A    between atoms: N_4  and  C_5 
REMARK    2  A    between atoms: C_15  and  N_16 
REMARK       I    between atoms: N_16  and  C_17 
REMARK    3  A    between atoms: C_17  and  C_18 
REMARK    4  A    between atoms: C_20  and  C_21 
REMARK    5  A    between atoms: C_26  and  C_27 
ROOT
HETATM    1  N   UNL     1     -42.427  54.856 -55.030  1.00  0.00    -0.307 N 
HETATM    2  C   UNL     1     -41.112  54.811 -54.593  1.00  0.00     0.257 C 
HETATM    3  O   UNL     1     -40.230  55.606 -54.901  1.00  0.00    -0.267 OA
HETATM    4  H   UNL     1     -43.140  54.342 -54.532  1.00  0.00     0.170 HD
ENDROOT
BRANCH   1   5
HETATM    5  C   UNL     1     -42.850  55.850 -55.900  1.00  0.00     0.152 C 
HETATM    6  N   UNL     1     -43.303  57.125 -55.566  1.00  0.00    -0.045 N 
HETATM    7  N   UNL     1     -43.936  57.714 -56.640  1.00  0.00    -0.156 NA
HETATM    8  C   UNL     1     -43.604  56.939 -57.679  1.00  0.00     0.055 C 
HETATM    9  C   UNL     1     -44.027  57.308 -59.052  1.00  0.00     0.072 C 
HETATM   10  C   UNL     1     -42.890  55.790 -57.275  1.00  0.00     0.079 C 
BRANCH   6  11
HETATM   11  C   UNL     1     -43.035  57.925 -54.433  1.00  0.00     0.732 A 
HETATM   12  N   UNL     1     -43.920  58.258 -53.539  1.00  0.00    -0.067 NA
HETATM   13  C   UNL     1     -43.421  58.999 -52.505  1.00  0.00     0.065 A 
HETATM   14  C   UNL     1     -42.151  59.373 -52.346  1.00  0.00     0.036 A 
HETATM   15  C   UNL     1     -44.265  59.458 -51.364  1.00  0.00     0.061 C 
HETATM   16  C   UNL     1     -41.905  60.140 -51.106  1.00  0.00     0.047 C 
HETATM   17  C   UNL     1     -41.163  58.972 -53.344  1.00  0.00     0.268 A 
HETATM   18  C   UNL     1     -43.332  60.427 -50.622  1.00  0.00     0.011 C 
HETATM   19  O   UNL     1     -39.976  59.254 -53.247  1.00  0.00    -0.267 OA
HETATM   20  N   UNL     1     -41.694  58.243 -54.369  1.00  0.00    -0.152 N 
HETATM   21  H   UNL     1     -41.077  57.889 -55.092  1.00  0.00     0.188 HD
ENDBRANCH   6  11
ENDBRANCH   1   5
BRANCH   2  22
HETATM   22  C   UNL     1     -40.781  53.737 -53.616  1.00  0.00     0.034 A 
HETATM   23  C   UNL     1     -40.429  52.477 -54.120  1.00  0.00     0.033 A 
HETATM   24  C   UNL     1     -40.071  51.432 -53.255  1.00  0.00     0.049 A 
HETATM   25  C   UNL     1     -40.063  51.671 -51.870  1.00  0.00     0.032 A 
HETATM   26  C   UNL     1     -40.404  52.930 -51.347  1.00  0.00     0.049 A 
HETATM   27  C   UNL     1     -40.754  53.964 -52.234  1.00  0.00     0.033 A 
BRANCH  24  28
HETATM   28  C   UNL     1     -39.681  50.074 -53.790  1.00  0.00     0.417 C 
HETATM   29  F   UNL     1     -38.509  50.071 -54.482  1.00  0.00    -0.166 F 
HETATM   30  F   UNL     1     -39.537  49.153 -52.798  1.00  0.00    -0.166 F 
HETATM   31  F   UNL     1     -40.618  49.567 -54.637  1.00  0.00    -0.166 F 
ENDBRANCH  24  28
BRANCH  26  32
HETATM   32  C   UNL     1     -40.356  53.197 -49.860  1.00  0.00     0.417 C 
HETATM   33  F   UNL     1     -40.330  52.065 -49.106  1.00  0.00    -0.166 F 
HETATM   34  F   UNL     1     -39.262  53.919 -49.503  1.00  0.00    -0.166 F 
HETATM   35  F   UNL     1     -41.434  53.911 -49.431  1.00  0.00    -0.166 F 
ENDBRANCH  26  32
ENDBRANCH   2  22
TORSDOF 5
ENDMDL
MODEL 3
REMARK VINA RESULT:      -9.9      1.112      1.787
REMARK  5 active torsions:
REMARK  status: ('A' for Active; 'I' for Inactive)
REMARK    1  A    between atoms: N_4  and  C_5 
REMARK    2  A    between atoms: C_15  and  N_16 
REMARK       I    between atoms: N_16  and  C_17 
REMARK    3  A    between atoms: C_17  and  C_18 
REMARK    4  A    between atoms: C_20  and  C_21 
REMARK    5  A    between atoms: C_26  and  C_27 
ROOT
HETATM    1  N   UNL     1     -42.402  54.890 -55.057  1.00  0.00    -0.307 N 
HETATM    2  C   UNL     1     -41.055  54.830 -54.732  1.00  0.00     0.257 C 
HETATM    3  O   UNL     1     -40.195  55.621 -55.107  1.00  0.00    -0.267 OA
HETATM    4  H   UNL     1     -43.075  54.377 -54.505  1.00  0.00     0.170 HD
ENDROOT
BRANCH   1   5
HETATM    5  C   UNL     1     -42.888  55.895 -55.880  1.00  0.00     0.152 C 
HETATM    6  N   UNL     1     -43.456  57.105 -55.486  1.00  0.00    -0.045 N 
HETATM    7  N   UNL     1     -44.111  57.701 -56.542  1.00  0.00    -0.156 NA
HETATM    8  C   UNL     1     -43.690  57.021 -57.613  1.00  0.00     0.055 C 
HETATM    9  C   UNL     1     -44.110  57.434 -58.975  1.00  0.00     0.072 C 
HETATM   10  C   UNL     1     -42.890  55.913 -57.256  1.00  0.00     0.079 C 
BRANCH   6  11
HETATM   11  C   UNL     1     -43.285  57.856 -54.302  1.00  0.00     0.732 A 
HETATM   12  N   UNL     1     -42.141  58.051 -53.711  1.00  0.00    -0.067 NA
HETATM   13  C   UNL     1     -42.211  58.850 -52.605  1.00  0.00     0.065 A 
HETATM   14  C   UNL     1     -43.310  59.429 -52.121  1.00  0.00     0.036 A 
HETATM   15  C   UNL     1     -41.009  59.218 -51.802  1.00  0.00     0.061 C 
HETATM   16  C   UNL     1     -43.067  60.269 -50.928  1.00  0.00     0.047 C 
HETATM   17  C   UNL     1     -44.583  59.222 -52.807  1.00  0.00     0.268 A 
HETATM   18  C   UNL     1     -41.622  59.898 -50.569  1.00  0.00     0.011 C 
HETATM   19  O   UNL     1     -45.624  59.747 -52.437  1.00  0.00    -0.267 OA
HETATM   20  N   UNL     1     -44.482  58.412 -53.901  1.00  0.00    -0.152 N 
HETATM   21  H   UNL     1     -45.308  58.239 -54.463  1.00  0.00     0.188 HD
ENDBRANCH   6  11
ENDBRANCH   1   5
BRANCH   2  22
HETATM   22  C   UNL     1     -40.652  53.745 -53.795  1.00  0.00     0.034 A 
HETATM   23  C   UNL     1     -40.653  54.029 -52.423  1.00  0.00     0.033 A 
HETATM   24  C   UNL     1     -40.319  53.041 -51.484  1.00  0.00     0.049 A 
HETATM   25  C   UNL     1     -39.990  51.754 -51.943  1.00  0.00     0.032 A 
HETATM   26  C   UNL     1     -39.993  51.448 -53.315  1.00  0.00     0.049 A 
HETATM   27  C   UNL     1     -40.337  52.453 -54.236  1.00  0.00     0.033 A 
BRANCH  24  28
HETATM   28  C   UNL     1     -40.326  53.336 -50.002  1.00  0.00     0.417 C 
HETATM   29  F   UNL     1     -41.405  54.055 -49.590  1.00  0.00    -0.166 F 
HETATM   30  F   UNL     1     -40.319  52.200 -49.253  1.00  0.00    -0.166 F 
HETATM   31  F   UNL     1     -39.232  54.047 -49.615  1.00  0.00    -0.166 F 
ENDBRANCH  24  28
BRANCH  26  32
HETATM   32  C   UNL     1     -39.678  50.053 -53.804  1.00  0.00     0.417 C 
HETATM   33  F   UNL     1     -40.615  49.551 -54.652  1.00  0.00    -0.166 F 
HETATM   34  F   UNL     1     -38.493  49.997 -54.468  1.00  0.00    -0.166 F 
HETATM   35  F   UNL     1     -39.578  49.159 -52.781  1.00  0.00    -0.166 F 
ENDBRANCH  26  32
ENDBRANCH   2  22
TORSDOF 5
ENDMDL
MODEL 4
REMARK VINA RESULT:      -9.6      2.344      5.461
REMARK  5 active torsions:
REMARK  status: ('A' for Active; 'I' for Inactive)
REMARK    1  A    between atoms: N_4  and  C_5 
REMARK    2  A    between atoms: C_15  and  N_16 
REMARK       I    between atoms: N_16  and  C_17 
REMARK    3  A    between atoms: C_17  and  C_18 
REMARK    4  A    between atoms: C_20  and  C_21 
REMARK    5  A    between atoms: C_26  and  C_27 
ROOT
HETATM    1  N   UNL     1     -41.541  58.098 -53.254  1.00  0.00    -0.307 N 
HETATM    2  C   UNL     1     -42.376  57.067 -52.851  1.00  0.00     0.257 C 
HETATM    3  O   UNL     1     -43.603  57.102 -52.848  1.00  0.00    -0.267 OA
HETATM    4  H   UNL     1     -40.576  57.903 -53.480  1.00  0.00     0.170 HD
ENDROOT
BRANCH   1   5
HETATM    5  C   UNL     1     -42.066  59.304 -53.693  1.00  0.00     0.152 C 
HETATM    6  N   UNL     1     -42.170  59.747 -55.011  1.00  0.00    -0.045 N 
HETATM    7  N   UNL     1     -42.435  61.099 -55.050  1.00  0.00    -0.156 NA
HETATM    8  C   UNL     1     -42.782  61.400 -53.794  1.00  0.00     0.055 C 
HETATM    9  C   UNL     1     -43.235  62.771 -53.451  1.00  0.00     0.072 C 
HETATM   10  C   UNL     1     -42.612  60.304 -52.920  1.00  0.00     0.079 C 
BRANCH   6  11
HETATM   11  C   UNL     1     -42.253  59.020 -56.219  1.00  0.00     0.732 A 
HETATM   12  N   UNL     1     -42.616  57.772 -56.306  1.00  0.00    -0.067 NA
HETATM   13  C   UNL     1     -42.668  57.292 -57.584  1.00  0.00     0.065 A 
HETATM   14  C   UNL     1     -42.402  57.979 -58.694  1.00  0.00     0.036 A 
HETATM   15  C   UNL     1     -43.086  55.896 -57.901  1.00  0.00     0.061 C 
HETATM   16  C   UNL     1     -42.580  57.198 -59.938  1.00  0.00     0.047 C 
HETATM   17  C   UNL     1     -42.020  59.385 -58.585  1.00  0.00     0.268 A 
HETATM   18  C   UNL     1     -42.751  55.773 -59.395  1.00  0.00     0.011 C 
HETATM   19  O   UNL     1     -41.792  60.084 -59.563  1.00  0.00    -0.267 OA
HETATM   20  N   UNL     1     -41.967  59.832 -57.296  1.00  0.00    -0.152 N 
HETATM   21  H   UNL     1     -41.745  60.807 -57.122  1.00  0.00     0.188 HD
ENDBRANCH   6  11
ENDBRANCH   1   5
BRANCH   2  22
HETATM   22  C   UNL     1     -41.708  55.797 -52.453  1.00  0.00     0.034 A 
HETATM   23  C   UNL     1     -41.386  54.881 -53.464  1.00  0.00     0.033 A 
HETATM   24  C   UNL     1     -40.723  53.682 -53.162  1.00  0.00     0.049 A 
HETATM   25  C   UNL     1     -40.380  53.415 -51.826  1.00  0.00     0.032 A 
HETATM   26  C   UNL     1     -40.687  54.326 -50.801  1.00  0.00     0.049 A 
HETATM   27  C   UNL     1     -41.346  55.524 -51.128  1.00  0.00     0.033 A 
BRANCH  24  28
HETATM   28  C   UNL     1     -40.363  52.693 -54.247  1.00  0.00     0.417 C 
HETATM   29  F   UNL     1     -40.061  53.273 -55.440  1.00  0.00    -0.166 F 
HETATM   30  F   UNL     1     -39.285  51.933 -53.911  1.00  0.00    -0.166 F 
HETATM   31  F   UNL     1     -41.374  51.818 -54.500  1.00  0.00    -0.166 F 
ENDBRANCH  24  28
BRANCH  26  32
HETATM   32  C   UNL     1     -40.281  54.056 -49.369  1.00  0.00     0.417 C 
HETATM   33  F   UNL     1     -38.972  54.323 -49.117  1.00  0.00    -0.166 F 
HETATM   34  F   UNL     1     -40.999  54.795 -48.484  1.00  0.00    -0.166 F 
HETATM   35  F   UNL     1     -40.475  52.754 -49.016  1.00  0.00    -0.166 F 
ENDBRANCH  26  32
ENDBRANCH   2  22
TORSDOF 5
ENDMDL
MODEL 5
REMARK VINA RESULT:      -9.4      2.016      4.389
REMARK  5 active torsions:
REMARK  status: ('A' for Active; 'I' for Inactive)
REMARK    1  A    between atoms: N_4  and  C_5 
REMARK    2  A    between atoms: C_15  and  N_16 
REMARK       I    between atoms: N_16  and  C_17 
REMARK    3  A    between atoms: C_17  and  C_18 
REMARK    4  A    between atoms: C_20  and  C_21 
REMARK    5  A    between atoms: C_26  and  C_27 
ROOT
HETATM    1  N   UNL     1     -43.285  56.881 -53.296  1.00  0.00    -0.307 N 
HETATM    2  C   UNL     1     -41.962  56.915 -52.881  1.00  0.00     0.257 C 
HETATM    3  O   UNL     1     -41.277  57.926 -52.766  1.00  0.00    -0.267 OA
HETATM    4  H   UNL     1     -43.849  56.064 -53.110  1.00  0.00     0.170 HD
ENDROOT
BRANCH   1   5
HETATM    5  C   UNL     1     -43.950  58.049 -53.638  1.00  0.00     0.152 C 
HETATM    6  N   UNL     1     -43.792  58.799 -54.802  1.00  0.00    -0.045 N 
HETATM    7  N   UNL     1     -44.363  60.045 -54.660  1.00  0.00    -0.156 NA
HETATM    8  C   UNL     1     -45.109  59.937 -53.555  1.00  0.00     0.055 C 
HETATM    9  C   UNL     1     -45.966  61.067 -53.119  1.00  0.00     0.072 C 
HETATM   10  C   UNL     1     -44.920  58.697 -52.908  1.00  0.00     0.079 C 
BRANCH   6  11
HETATM   11  C   UNL     1     -43.352  58.413 -56.088  1.00  0.00     0.732 A 
HETATM   12  N   UNL     1     -43.657  57.287 -56.666  1.00  0.00    -0.067 NA
HETATM   13  C   UNL     1     -43.156  57.151 -57.930  1.00  0.00     0.065 A 
HETATM   14  C   UNL     1     -42.426  58.052 -58.587  1.00  0.00     0.036 A 
HETATM   15  C   UNL     1     -43.414  55.947 -58.771  1.00  0.00     0.061 C 
HETATM   16  C   UNL     1     -42.058  57.637 -59.958  1.00  0.00     0.047 C 
HETATM   17  C   UNL     1     -42.111  59.322 -57.938  1.00  0.00     0.268 A 
HETATM   18  C   UNL     1     -42.466  56.157 -59.961  1.00  0.00     0.011 C 
HETATM   19  O   UNL     1     -41.473  60.206 -58.493  1.00  0.00    -0.267 OA
HETATM   20  N   UNL     1     -42.616  59.423 -56.674  1.00  0.00    -0.152 N 
HETATM   21  H   UNL     1     -42.479  60.284 -56.156  1.00  0.00     0.188 HD
ENDBRANCH   6  11
ENDBRANCH   1   5
BRANCH   2  22
HETATM   22  C   UNL     1     -41.364  55.610 -52.483  1.00  0.00     0.034 A 
HETATM   23  C   UNL     1     -41.136  55.382 -51.120  1.00  0.00     0.033 A 
HETATM   24  C   UNL     1     -40.609  54.161 -50.675  1.00  0.00     0.049 A 
HETATM   25  C   UNL     1     -40.319  53.163 -51.620  1.00  0.00     0.032 A 
HETATM   26  C   UNL     1     -40.550  53.371 -52.991  1.00  0.00     0.049 A 
HETATM   27  C   UNL     1     -41.085  54.601 -53.413  1.00  0.00     0.033 A 
BRANCH  24  28
HETATM   28  C   UNL     1     -40.368  53.902 -49.205  1.00  0.00     0.417 C 
HETATM   29  F   UNL     1     -39.110  54.212 -48.791  1.00  0.00    -0.166 F 
HETATM   30  F   UNL     1     -41.214  54.616 -48.413  1.00  0.00    -0.166 F 
HETATM   31  F   UNL     1     -40.561  52.596 -48.876  1.00  0.00    -0.166 F 
ENDBRANCH  24  28
BRANCH  26  32
HETATM   32  C   UNL     1     -40.275  52.281 -54.003  1.00  0.00     0.417 C 
HETATM   33  F   UNL     1     -41.358  51.504 -54.270  1.00  0.00    -0.166 F 
HETATM   34  F   UNL     1     -39.860  52.782 -55.196  1.00  0.00    -0.166 F 
HETATM   35  F   UNL     1     -39.294  51.431 -53.590  1.00  0.00    -0.166 F 
ENDBRANCH  26  32
ENDBRANCH   2  22
TORSDOF 5
ENDMDL
MODEL 6
REMARK VINA RESULT:      -9.1      4.803      8.151
REMARK  5 active torsions:
REMARK  status: ('A' for Active; 'I' for Inactive)
REMARK    1  A    between atoms: N_4  and  C_5 
REMARK    2  A    between atoms: C_15  and  N_16 
REMARK       I    between atoms: N_16  and  C_17 
REMARK    3  A    between atoms: C_17  and  C_18 
REMARK    4  A    between atoms: C_20  and  C_21 
REMARK    5  A    between atoms: C_26  and  C_27 
ROOT
HETATM    1  N   UNL     1     -41.889  58.145 -55.107  1.00  0.00    -0.307 N 
HETATM    2  C   UNL     1     -43.089  57.712 -55.650  1.00  0.00     0.257 C 
HETATM    3  O   UNL     1     -44.121  57.497 -55.021  1.00  0.00    -0.267 OA
HETATM    4  H   UNL     1     -41.184  58.550 -55.707  1.00  0.00     0.170 HD
ENDROOT
BRANCH   1   5
HETATM    5  C   UNL     1     -41.767  58.363 -53.743  1.00  0.00     0.152 C 
HETATM    6  N   UNL     1     -41.728  57.400 -52.736  1.00  0.00    -0.045 N 
HETATM    7  N   UNL     1     -41.926  57.979 -51.501  1.00  0.00    -0.156 NA
HETATM    8  C   UNL     1     -41.783  59.289 -51.729  1.00  0.00     0.055 C 
HETATM    9  C   UNL     1     -41.834  60.254 -50.603  1.00  0.00     0.072 C 
HETATM   10  C   UNL     1     -41.637  59.575 -53.104  1.00  0.00     0.079 C 
BRANCH   6  11
HETATM   11  C   UNL     1     -41.328  56.046 -52.778  1.00  0.00     0.732 A 
HETATM   12  N   UNL     1     -41.018  55.401 -53.865  1.00  0.00    -0.067 NA
HETATM   13  C   UNL     1     -40.614  54.113 -53.657  1.00  0.00     0.065 A 
HETATM   14  C   UNL     1     -40.506  53.503 -52.477  1.00  0.00     0.036 A 
HETATM   15  C   UNL     1     -40.190  53.214 -54.769  1.00  0.00     0.061 C 
HETATM   16  C   UNL     1     -40.007  52.114 -52.565  1.00  0.00     0.047 C 
HETATM   17  C   UNL     1     -40.833  54.245 -51.262  1.00  0.00     0.268 A 
HETATM   18  C   UNL     1     -40.074  51.848 -54.075  1.00  0.00     0.011 C 
HETATM   19  O   UNL     1     -40.727  53.759 -50.144  1.00  0.00    -0.267 OA
HETATM   20  N   UNL     1     -41.243  55.525 -51.503  1.00  0.00    -0.152 N 
HETATM   21  H   UNL     1     -41.457  56.129 -50.718  1.00  0.00     0.188 HD
ENDBRANCH   6  11
ENDBRANCH   1   5
BRANCH   2  22
HETATM   22  C   UNL     1     -43.126  57.566 -57.132  1.00  0.00     0.034 A 
HETATM   23  C   UNL     1     -43.742  56.425 -57.663  1.00  0.00     0.033 A 
HETATM   24  C   UNL     1     -43.842  56.243 -59.051  1.00  0.00     0.049 A 
HETATM   25  C   UNL     1     -43.320  57.231 -59.903  1.00  0.00     0.032 A 
HETATM   26  C   UNL     1     -42.706  58.386 -59.388  1.00  0.00     0.049 A 
HETATM   27  C   UNL     1     -42.623  58.549 -57.994  1.00  0.00     0.033 A 
BRANCH  24  28
HETATM   28  C   UNL     1     -44.514  55.021 -59.633  1.00  0.00     0.417 C 
HETATM   29  F   UNL     1     -44.374  53.902 -58.872  1.00  0.00    -0.166 F 
HETATM   30  F   UNL     1     -45.852  55.201 -59.800  1.00  0.00    -0.166 F 
HETATM   31  F   UNL     1     -44.023  54.702 -60.862  1.00  0.00    -0.166 F 
ENDBRANCH  24  28
BRANCH  26  32
HETATM   32  C   UNL     1     -42.181  59.466 -60.306  1.00  0.00     0.417 C 
HETATM   33  F   UNL     1     -41.439  60.408 -59.665  1.00  0.00    -0.166 F 
HETATM   34  F   UNL     1     -41.392  58.964 -61.292  1.00  0.00    -0.166 F 
HETATM   35  F   UNL     1     -43.184  60.139 -60.935  1.00  0.00    -0.166 F 
ENDBRANCH  26  32
ENDBRANCH   2  22
TORSDOF 5
ENDMDL
MODEL 7
REMARK VINA RESULT:      -8.9      4.944      8.063
REMARK  5 active torsions:
REMARK  status: ('A' for Active; 'I' for Inactive)
REMARK    1  A    between atoms: N_4  and  C_5 
REMARK    2  A    between atoms: C_15  and  N_16 
REMARK       I    between atoms: N_16  and  C_17 
REMARK    3  A    between atoms: C_17  and  C_18 
REMARK    4  A    between atoms: C_20  and  C_21 
REMARK    5  A    between atoms: C_26  and  C_27 
ROOT
HETATM    1  N   UNL     1     -42.042  58.289 -55.135  1.00  0.00    -0.307 N 
HETATM    2  C   UNL     1     -43.316  58.215 -55.677  1.00  0.00     0.257 C 
HETATM    3  O   UNL     1     -44.365  58.351 -55.056  1.00  0.00    -0.267 OA
HETATM    4  H   UNL     1     -41.246  58.434 -55.740  1.00  0.00     0.170 HD
ENDROOT
BRANCH   1   5
HETATM    5  C   UNL     1     -41.862  58.521 -53.780  1.00  0.00     0.152 C 
HETATM    6  N   UNL     1     -41.779  57.569 -52.765  1.00  0.00    -0.045 N 
HETATM    7  N   UNL     1     -41.925  58.160 -51.529  1.00  0.00    -0.156 NA
HETATM    8  C   UNL     1     -41.794  59.468 -51.776  1.00  0.00     0.055 C 
HETATM    9  C   UNL     1     -41.799  60.444 -50.658  1.00  0.00     0.072 C 
HETATM   10  C   UNL     1     -41.707  59.740 -53.158  1.00  0.00     0.079 C 
BRANCH   6  11
HETATM   11  C   UNL     1     -41.378  56.215 -52.811  1.00  0.00     0.732 A 
HETATM   12  N   UNL     1     -41.069  55.572 -53.900  1.00  0.00    -0.067 NA
HETATM   13  C   UNL     1     -40.664  54.284 -53.695  1.00  0.00     0.065 A 
HETATM   14  C   UNL     1     -40.554  53.672 -52.516  1.00  0.00     0.036 A 
HETATM   15  C   UNL     1     -40.242  53.387 -54.809  1.00  0.00     0.061 C 
HETATM   16  C   UNL     1     -40.055  52.282 -52.608  1.00  0.00     0.047 C 
HETATM   17  C   UNL     1     -40.881  54.411 -51.299  1.00  0.00     0.268 A 
HETATM   18  C   UNL     1     -40.124  52.020 -54.118  1.00  0.00     0.011 C 
HETATM   19  O   UNL     1     -40.773  53.923 -50.182  1.00  0.00    -0.267 OA
HETATM   20  N   UNL     1     -41.291  55.691 -51.537  1.00  0.00    -0.152 N 
HETATM   21  H   UNL     1     -41.505  56.294 -50.750  1.00  0.00     0.188 HD
ENDBRANCH   6  11
ENDBRANCH   1   5
BRANCH   2  22
HETATM   22  C   UNL     1     -43.392  58.020 -57.152  1.00  0.00     0.034 A 
HETATM   23  C   UNL     1     -42.807  58.994 -57.973  1.00  0.00     0.033 A 
HETATM   24  C   UNL     1     -42.812  58.853 -59.369  1.00  0.00     0.049 A 
HETATM   25  C   UNL     1     -43.408  57.712 -59.933  1.00  0.00     0.032 A 
HETATM   26  C   UNL     1     -43.990  56.721 -59.125  1.00  0.00     0.049 A 
HETATM   27  C   UNL     1     -43.968  56.881 -57.728  1.00  0.00     0.033 A 
BRANCH  24  28
HETATM   28  C   UNL     1     -42.176  59.893 -60.262  1.00  0.00     0.417 C 
HETATM   29  F   UNL     1     -43.069  60.739 -60.843  1.00  0.00    -0.166 F 
HETATM   30  F   UNL     1     -41.293  60.678 -59.588  1.00  0.00    -0.166 F 
HETATM   31  F   UNL     1     -41.473  59.331 -61.284  1.00  0.00    -0.166 F 
ENDBRANCH  24  28
BRANCH  26  32
HETATM   32  C   UNL     1     -44.595  55.475 -59.731  1.00  0.00     0.417 C 
HETATM   33  F   UNL     1     -45.954  55.489 -59.757  1.00  0.00    -0.166 F 
HETATM   34  F   UNL     1     -44.190  55.279 -61.014  1.00  0.00    -0.166 F 
HETATM   35  F   UNL     1     -44.242  54.349 -59.050  1.00  0.00    -0.166 F 
ENDBRANCH  26  32
ENDBRANCH   2  22
TORSDOF 5
ENDMDL
MODEL 8
REMARK VINA RESULT:      -8.8      4.695      7.427
REMARK  5 active torsions:
REMARK  status: ('A' for Active; 'I' for Inactive)
REMARK    1  A    between atoms: N_4  and  C_5 
REMARK    2  A    between atoms: C_15  and  N_16 
REMARK       I    between atoms: N_16  and  C_17 
REMARK    3  A    between atoms: C_17  and  C_18 
REMARK    4  A    between atoms: C_20  and  C_21 
REMARK    5  A    between atoms: C_26  and  C_27 
ROOT
HETATM    1  N   UNL     1     -41.436  54.873 -55.811  1.00  0.00    -0.307 N 
HETATM    2  C   UNL     1     -42.768  55.017 -56.167  1.00  0.00     0.257 C 
HETATM    3  O   UNL     1     -43.730  54.684 -55.481  1.00  0.00    -0.267 OA
HETATM    4  H   UNL     1     -40.726  55.404 -56.296  1.00  0.00     0.170 HD
ENDROOT
BRANCH   1   5
HETATM    5  C   UNL     1     -41.085  54.301 -54.597  1.00  0.00     0.152 C 
HETATM    6  N   UNL     1     -41.036  54.928 -53.354  1.00  0.00    -0.045 N 
HETATM    7  N   UNL     1     -40.345  54.155 -52.446  1.00  0.00    -0.156 NA
HETATM    8  C   UNL     1     -40.246  52.962 -53.042  1.00  0.00     0.055 C 
HETATM    9  C   UNL     1     -39.635  51.815 -52.325  1.00  0.00     0.072 C 
HETATM   10  C   UNL     1     -40.733  52.990 -54.367  1.00  0.00     0.079 C 
BRANCH   6  11
HETATM   11  C   UNL     1     -41.729  56.060 -52.870  1.00  0.00     0.732 A 
HETATM   12  N   UNL     1     -42.888  56.019 -52.280  1.00  0.00    -0.067 NA
HETATM   13  C   UNL     1     -43.344  57.235 -51.854  1.00  0.00     0.065 A 
HETATM   14  C   UNL     1     -42.709  58.401 -51.980  1.00  0.00     0.036 A 
HETATM   15  C   UNL     1     -44.638  57.400 -51.132  1.00  0.00     0.061 C 
HETATM   16  C   UNL     1     -43.437  59.544 -51.387  1.00  0.00     0.047 C 
HETATM   17  C   UNL     1     -41.397  58.430 -52.622  1.00  0.00     0.268 A 
HETATM   18  C   UNL     1     -44.810  58.926 -51.092  1.00  0.00     0.011 C 
HETATM   19  O   UNL     1     -40.746  59.458 -52.743  1.00  0.00    -0.267 OA
HETATM   20  N   UNL     1     -40.975  57.203 -53.045  1.00  0.00    -0.152 N 
HETATM   21  H   UNL     1     -40.059  57.118 -53.471  1.00  0.00     0.188 HD
ENDBRANCH   6  11
ENDBRANCH   1   5
BRANCH   2  22
HETATM   22  C   UNL     1     -43.032  55.696 -57.466  1.00  0.00     0.034 A 
HETATM   23  C   UNL     1     -43.907  55.073 -58.366  1.00  0.00     0.033 A 
HETATM   24  C   UNL     1     -44.227  55.677 -59.591  1.00  0.00     0.049 A 
HETATM   25  C   UNL     1     -43.659  56.924 -59.900  1.00  0.00     0.032 A 
HETATM   26  C   UNL     1     -42.787  57.568 -59.006  1.00  0.00     0.049 A 
HETATM   27  C   UNL     1     -42.486  56.947 -57.781  1.00  0.00     0.033 A 
BRANCH  24  28
HETATM   28  C   UNL     1     -45.177  55.017 -60.563  1.00  0.00     0.417 C 
HETATM   29  F   UNL     1     -46.378  55.647 -60.671  1.00  0.00    -0.166 F 
HETATM   30  F   UNL     1     -44.665  54.960 -61.823  1.00  0.00    -0.166 F 
HETATM   31  F   UNL     1     -45.458  53.732 -60.214  1.00  0.00    -0.166 F 
ENDBRANCH  24  28
BRANCH  26  32
HETATM   32  C   UNL     1     -42.209  58.929 -59.323  1.00  0.00     0.417 C 
HETATM   33  F   UNL     1     -41.324  59.373 -58.391  1.00  0.00    -0.166 F 
HETATM   34  F   UNL     1     -41.550  58.943 -60.512  1.00  0.00    -0.166 F 
HETATM   35  F   UNL     1     -43.172  59.888 -59.416  1.00  0.00    -0.166 F 
ENDBRANCH  26  32
ENDBRANCH   2  22
TORSDOF 5
ENDMDL
MODEL 9
REMARK VINA RESULT:      -8.6      4.923      8.123
REMARK  5 active torsions:
REMARK  status: ('A' for Active; 'I' for Inactive)
REMARK    1  A    between atoms: N_4  and  C_5 
REMARK    2  A    between atoms: C_15  and  N_16 
REMARK       I    between atoms: N_16  and  C_17 
REMARK    3  A    between atoms: C_17  and  C_18 
REMARK    4  A    between atoms: C_20  and  C_21 
REMARK    5  A    between atoms: C_26  and  C_27 
ROOT
HETATM    1  N   UNL     1     -42.074  57.905 -54.614  1.00  0.00    -0.307 N 
HETATM    2  C   UNL     1     -43.400  58.103 -54.966  1.00  0.00     0.257 C 
HETATM    3  O   UNL     1     -44.295  58.460 -54.206  1.00  0.00    -0.267 OA
HETATM    4  H   UNL     1     -41.363  57.877 -55.331  1.00  0.00     0.170 HD
ENDROOT
BRANCH   1   5
HETATM    5  C   UNL     1     -41.653  58.095 -53.306  1.00  0.00     0.152 C 
HETATM    6  N   UNL     1     -41.432  57.114 -52.341  1.00  0.00    -0.045 N 
HETATM    7  N   UNL     1     -41.338  57.677 -51.087  1.00  0.00    -0.156 NA
HETATM    8  C   UNL     1     -41.201  58.986 -51.326  1.00  0.00     0.055 C 
HETATM    9  C   UNL     1     -40.975  59.931 -50.206  1.00  0.00     0.072 C 
HETATM   10  C   UNL     1     -41.346  59.290 -52.697  1.00  0.00     0.079 C 
BRANCH   6  11
HETATM   11  C   UNL     1     -41.099  55.748 -52.482  1.00  0.00     0.732 A 
HETATM   12  N   UNL     1     -40.907  55.149 -53.622  1.00  0.00    -0.067 NA
HETATM   13  C   UNL     1     -40.547  53.836 -53.512  1.00  0.00     0.065 A 
HETATM   14  C   UNL     1     -40.372  53.161 -52.375  1.00  0.00     0.036 A 
HETATM   15  C   UNL     1     -40.256  52.980 -54.698  1.00  0.00     0.061 C 
HETATM   16  C   UNL     1     -39.945  51.759 -52.573  1.00  0.00     0.047 C 
HETATM   17  C   UNL     1     -40.566  53.851 -51.102  1.00  0.00     0.268 A 
HETATM   18  C   UNL     1     -40.146  51.576 -54.083  1.00  0.00     0.011 C 
HETATM   19  O   UNL     1     -40.392  53.303 -50.022  1.00  0.00    -0.267 OA
HETATM   20  N   UNL     1     -40.935  55.157 -51.246  1.00  0.00    -0.152 N 
HETATM   21  H   UNL     1     -41.058  55.728 -50.417  1.00  0.00     0.188 HD
ENDBRANCH   6  11
ENDBRANCH   1   5
BRANCH   2  22
HETATM   22  C   UNL     1     -43.731  57.927 -56.408  1.00  0.00     0.034 A 
HETATM   23  C   UNL     1     -45.081  57.972 -56.781  1.00  0.00     0.033 A 
HETATM   24  C   UNL     1     -45.458  57.849 -58.127  1.00  0.00     0.049 A 
HETATM   25  C   UNL     1     -44.456  57.688 -59.100  1.00  0.00     0.032 A 
HETATM   26  C   UNL     1     -43.097  57.650 -58.745  1.00  0.00     0.049 A 
HETATM   27  C   UNL     1     -42.743  57.782 -57.390  1.00  0.00     0.033 A 
BRANCH  24  28
HETATM   28  C   UNL     1     -46.910  57.905 -58.541  1.00  0.00     0.417 C 
HETATM   29  F   UNL     1     -47.768  58.124 -57.507  1.00  0.00    -0.166 F 
HETATM   30  F   UNL     1     -47.149  58.893 -59.446  1.00  0.00    -0.166 F 
HETATM   31  F   UNL     1     -47.321  56.749 -59.130  1.00  0.00    -0.166 F 
ENDBRANCH  24  28
BRANCH  26  32
HETATM   32  C   UNL     1     -42.019  57.518 -59.796  1.00  0.00     0.417 C 
HETATM   33  F   UNL     1     -41.829  56.240 -60.220  1.00  0.00    -0.166 F 
HETATM   34  F   UNL     1     -42.291  58.253 -60.907  1.00  0.00    -0.166 F 
HETATM   35  F   UNL     1     -40.807  57.950 -59.347  1.00  0.00    -0.166 F 
ENDBRANCH  26  32
ENDBRANCH   2  22
TORSDOF 5
ENDMDL
MODEL 10
REMARK VINA RESULT:      -8.5      4.856      8.351
REMARK  5 active torsions:
REMARK  status: ('A' for Active; 'I' for Inactive)
REMARK    1  A    between atoms: N_4  and  C_5 
REMARK    2  A    between atoms: C_15  and  N_16 
REMARK       I    between atoms: N_16  and  C_17 
REMARK    3  A    between atoms: C_17  and  C_18 
REMARK    4  A    between atoms: C_20  and  C_21 
REMARK    5  A    between atoms: C_26  and  C_27 
ROOT
HETATM    1  N   UNL     1     -42.546  58.068 -54.595  1.00  0.00    -0.307 N 
HETATM    2  C   UNL     1     -43.907  57.951 -54.835  1.00  0.00     0.257 C 
HETATM    3  O   UNL     1     -44.788  57.999 -53.983  1.00  0.00    -0.267 OA
HETATM    4  H   UNL     1     -41.919  58.287 -55.356  1.00  0.00     0.170 HD
ENDROOT
BRANCH   1   5
HETATM    5  C   UNL     1     -42.067  58.244 -53.305  1.00  0.00     0.152 C 
HETATM    6  N   UNL     1     -41.745  57.250 -52.384  1.00  0.00    -0.045 N 
HETATM    7  N   UNL     1     -41.615  57.782 -51.119  1.00  0.00    -0.156 NA
HETATM    8  C   UNL     1     -41.559  59.102 -51.325  1.00  0.00     0.055 C 
HETATM    9  C   UNL     1     -41.324  60.027 -50.189  1.00  0.00     0.072 C 
HETATM   10  C   UNL     1     -41.791  59.437 -52.676  1.00  0.00     0.079 C 
BRANCH   6  11
HETATM   11  C   UNL     1     -41.348  55.909 -52.584  1.00  0.00     0.732 A 
HETATM   12  N   UNL     1     -41.041  55.394 -53.739  1.00  0.00    -0.067 NA
HETATM   13  C   UNL     1     -40.639  54.090 -53.683  1.00  0.00     0.065 A 
HETATM   14  C   UNL     1     -40.531  53.347 -52.582  1.00  0.00     0.036 A 
HETATM   15  C   UNL     1     -40.219  53.326 -54.893  1.00  0.00     0.061 C 
HETATM   16  C   UNL     1     -40.035  51.976 -52.833  1.00  0.00     0.047 C 
HETATM   17  C   UNL     1     -40.854  53.943 -51.288  1.00  0.00     0.268 A 
HETATM   18  C   UNL     1     -40.106  51.888 -54.363  1.00  0.00     0.011 C 
HETATM   19  O   UNL     1     -40.748  53.330 -50.234  1.00  0.00    -0.267 OA
HETATM   20  N   UNL     1     -41.262  55.243 -51.378  1.00  0.00    -0.152 N 
HETATM   21  H   UNL     1     -41.474  55.752 -50.527  1.00  0.00     0.188 HD
ENDBRANCH   6  11
ENDBRANCH   1   5
BRANCH   2  22
HETATM   22  C   UNL     1     -44.314  57.824 -56.262  1.00  0.00     0.034 A 
HETATM   23  C   UNL     1     -43.537  57.008 -57.095  1.00  0.00     0.033 A 
HETATM   24  C   UNL     1     -43.886  56.817 -58.441  1.00  0.00     0.049 A 
HETATM   25  C   UNL     1     -45.036  57.452 -58.939  1.00  0.00     0.032 A 
HETATM   26  C   UNL     1     -45.832  58.266 -58.116  1.00  0.00     0.049 A 
HETATM   27  C   UNL     1     -45.466  58.439 -56.769  1.00  0.00     0.033 A 
BRANCH  24  28
HETATM   28  C   UNL     1     -43.060  55.931 -59.344  1.00  0.00     0.417 C 
HETATM   29  F   UNL     1     -42.218  55.096 -58.676  1.00  0.00    -0.166 F 
HETATM   30  F   UNL     1     -43.834  55.136 -60.132  1.00  0.00    -0.166 F 
HETATM   31  F   UNL     1     -42.277  56.651 -60.193  1.00  0.00    -0.166 F 
ENDBRANCH  24  28
BRANCH  26  32
HETATM   32  C   UNL     1     -47.091  58.917 -58.644  1.00  0.00     0.417 C 
HETATM   33  F   UNL     1     -47.578  58.324 -59.766  1.00  0.00    -0.166 F 
HETATM   34  F   UNL     1     -48.099  58.897 -57.733  1.00  0.00    -0.166 F 
HETATM   35  F   UNL     1     -46.898  60.227 -58.962  1.00  0.00    -0.166 F 
ENDBRANCH  26  32
ENDBRANCH   2  22
TORSDOF 5
ENDMDL
