MODEL 1
REMARK VINA RESULT:      -8.9      0.000      0.000
REMARK  7 active torsions:
REMARK  status: ('A' for Active; 'I' for Inactive)
REMARK    1  A    between atoms: O_2  and  C_3 
REMARK    2  A    between atoms: C_5  and  C_6 
REMARK       I    between atoms: C_6  and  N_7 
REMARK    3  A    between atoms: N_7  and  C_8 
REMARK    4  A    between atoms: C_8  and  N_9 
REMARK    5  A    between atoms: N_9  and  C_10 
REMARK    6  A    between atoms: C_13  and  N_14 
REMARK       I    between atoms: N_17  and  C_18 
REMARK    7  A    between atoms: C_18  and  C_19 
ROOT
HETATM    1  C   UNL     1     -45.026  59.860 -50.394  1.00  0.00     0.034 A 
HETATM    2  C   UNL     1     -43.660  59.954 -50.648  1.00  0.00     0.032 A 
HETATM    3  C   UNL     1     -42.999  58.974 -51.406  1.00  0.00     0.031 A 
HETATM    4  C   UNL     1     -43.669  57.855 -51.924  1.00  0.00     0.030 A 
HETATM    5  C   UNL     1     -45.049  57.790 -51.657  1.00  0.00     0.031 A 
HETATM    6  C   UNL     1     -45.724  58.778 -50.919  1.00  0.00     0.032 A 
ENDROOT
BRANCH   1   7
HETATM    7  N   UNL     1     -45.589  60.806 -49.506  1.00  0.00    -0.333 N 
HETATM    8  H   UNL     1     -46.488  60.527 -49.130  1.00  0.00     0.168 HD
BRANCH   7   9
HETATM    9  C   UNL     1     -45.353  62.137 -49.446  1.00  0.00     0.179 C 
HETATM   10  S   UNL     1     -45.776  63.107 -50.743  1.00  0.00    -0.040 SA
BRANCH   9  11
HETATM   11  N   UNL     1     -44.849  62.731 -48.329  1.00  0.00    -0.299 N 
HETATM   12  C   UNL     1     -44.963  62.126 -47.083  1.00  0.00     0.257 C 
HETATM   13  O   UNL     1     -44.504  61.022 -46.806  1.00  0.00    -0.267 OA
HETATM   14  H   UNL     1     -45.083  63.711 -48.344  1.00  0.00     0.171 HD
BRANCH  12  15
HETATM   15  C   UNL     1     -45.614  62.928 -45.991  1.00  0.00     0.035 A 
HETATM   16  C   UNL     1     -44.914  63.470 -44.903  1.00  0.00     0.053 A 
HETATM   17  C   UNL     1     -45.572  64.237 -43.931  1.00  0.00     0.069 A 
HETATM   18  C   UNL     1     -46.937  64.486 -44.057  1.00  0.00     0.037 A 
HETATM   19  C   UNL     1     -47.642  63.969 -45.145  1.00  0.00     0.004 A 
HETATM   20  C   UNL     1     -46.986  63.194 -46.103  1.00  0.00     0.017 A 
BRANCH  17  21
HETATM   21  O   UNL     1     -44.764  64.683 -42.922  1.00  0.00    -0.356 OA
HETATM   22  C   UNL     1     -45.059  64.230 -41.607  1.00  0.00     0.210 C 
ENDBRANCH  17  21
ENDBRANCH  12  15
ENDBRANCH   9  11
ENDBRANCH   7   9
ENDBRANCH   1   7
BRANCH   4  23
HETATM   23  N   UNL     1     -43.011  56.810 -52.596  1.00  0.00    -0.378 N 
HETATM   24  C   UNL     1     -42.877  55.506 -51.906  1.00  0.00     0.143 C 
HETATM   25  C   UNL     1     -42.426  54.394 -52.872  1.00  0.00     0.146 C 
HETATM   26  N   UNL     1     -41.238  54.765 -53.650  1.00  0.00    -0.345 N 
HETATM   27  C   UNL     1     -40.432  53.811 -54.273  1.00  0.00     0.253 C 
HETATM   28  C   UNL     1     -41.361  56.064 -54.314  1.00  0.00     0.146 C 
HETATM   29  O   UNL     1     -39.861  54.006 -55.345  1.00  0.00    -0.267 OA
HETATM   30  C   UNL     1     -41.787  57.186 -53.351  1.00  0.00     0.143 C 
BRANCH  27  31
HETATM   31  C   UNL     1     -40.207  52.511 -53.598  1.00  0.00     0.032 A 
HETATM   32  C   UNL     1     -40.255  51.335 -54.352  1.00  0.00     0.017 A 
HETATM   33  C   UNL     1     -39.996  50.107 -53.741  1.00  0.00     0.001 A 
HETATM   34  C   UNL     1     -39.675  50.057 -52.384  1.00  0.00     0.000 A 
HETATM   35  C   UNL     1     -39.603  51.233 -51.635  1.00  0.00     0.001 A 
HETATM   36  C   UNL     1     -39.860  52.463 -52.242  1.00  0.00     0.017 A 
ENDBRANCH  27  31
ENDBRANCH   4  23
TORSDOF 7
ENDMDL
MODEL 2
REMARK VINA RESULT:      -8.7      7.397     11.622
REMARK  7 active torsions:
REMARK  status: ('A' for Active; 'I' for Inactive)
REMARK    1  A    between atoms: O_2  and  C_3 
REMARK    2  A    between atoms: C_5  and  C_6 
REMARK       I    between atoms: C_6  and  N_7 
REMARK    3  A    between atoms: N_7  and  C_8 
REMARK    4  A    between atoms: C_8  and  N_9 
REMARK    5  A    between atoms: N_9  and  C_10 
REMARK    6  A    between atoms: C_13  and  N_14 
REMARK       I    between atoms: N_17  and  C_18 
REMARK    7  A    between atoms: C_18  and  C_19 
ROOT
HETATM    1  C   UNL     1     -43.687  55.465 -54.515  1.00  0.00     0.034 A 
HETATM    2  C   UNL     1     -44.277  56.723 -54.417  1.00  0.00     0.032 A 
HETATM    3  C   UNL     1     -44.226  57.628 -55.488  1.00  0.00     0.031 A 
HETATM    4  C   UNL     1     -43.571  57.324 -56.692  1.00  0.00     0.030 A 
HETATM    5  C   UNL     1     -42.990  56.045 -56.765  1.00  0.00     0.031 A 
HETATM    6  C   UNL     1     -43.057  55.122 -55.706  1.00  0.00     0.032 A 
ENDROOT
BRANCH   1   7
HETATM    7  N   UNL     1     -43.656  54.667 -53.348  1.00  0.00    -0.333 N 
HETATM    8  H   UNL     1     -44.472  54.077 -53.236  1.00  0.00     0.168 HD
BRANCH   7   9
HETATM    9  C   UNL     1     -42.977  54.896 -52.199  1.00  0.00     0.179 C 
HETATM   10  S   UNL     1     -43.676  55.838 -51.005  1.00  0.00    -0.040 SA
BRANCH   9  11
HETATM   11  N   UNL     1     -41.769  54.320 -51.948  1.00  0.00    -0.299 N 
HETATM   12  C   UNL     1     -40.879  54.046 -52.979  1.00  0.00     0.257 C 
HETATM   13  O   UNL     1     -40.413  54.893 -53.734  1.00  0.00    -0.267 OA
HETATM   14  H   UNL     1     -41.895  53.568 -51.289  1.00  0.00     0.171 HD
BRANCH  12  15
HETATM   15  C   UNL     1     -40.397  52.627 -53.105  1.00  0.00     0.035 A 
HETATM   16  C   UNL     1     -39.981  51.849 -52.015  1.00  0.00     0.053 A 
HETATM   17  C   UNL     1     -39.570  50.520 -52.192  1.00  0.00     0.069 A 
HETATM   18  C   UNL     1     -39.596  49.954 -53.465  1.00  0.00     0.037 A 
HETATM   19  C   UNL     1     -40.025  50.712 -54.555  1.00  0.00     0.004 A 
HETATM   20  C   UNL     1     -40.420  52.038 -54.378  1.00  0.00     0.017 A 
BRANCH  17  21
HETATM   21  O   UNL     1     -39.178  49.894 -51.041  1.00  0.00    -0.356 OA
HETATM   22  C   UNL     1     -40.054  49.983 -49.924  1.00  0.00     0.210 C 
ENDBRANCH  17  21
ENDBRANCH  12  15
ENDBRANCH   9  11
ENDBRANCH   7   9
ENDBRANCH   1   7
BRANCH   4  23
HETATM   23  N   UNL     1     -43.418  58.251 -57.738  1.00  0.00    -0.378 N 
HETATM   24  C   UNL     1     -42.053  58.732 -58.054  1.00  0.00     0.143 C 
HETATM   25  C   UNL     1     -42.011  59.481 -59.399  1.00  0.00     0.146 C 
HETATM   26  N   UNL     1     -43.035  60.528 -59.499  1.00  0.00    -0.345 N 
HETATM   27  C   UNL     1     -42.942  61.571 -60.422  1.00  0.00     0.253 C 
HETATM   28  C   UNL     1     -44.381  60.058 -59.165  1.00  0.00     0.146 C 
HETATM   29  O   UNL     1     -43.920  62.076 -60.971  1.00  0.00    -0.267 OA
HETATM   30  C   UNL     1     -44.437  59.330 -57.810  1.00  0.00     0.143 C 
BRANCH  27  31
HETATM   31  C   UNL     1     -41.608  62.140 -60.728  1.00  0.00     0.032 A 
HETATM   32  C   UNL     1     -41.188  62.210 -62.060  1.00  0.00     0.017 A 
HETATM   33  C   UNL     1     -39.956  62.789 -62.370  1.00  0.00     0.001 A 
HETATM   34  C   UNL     1     -39.154  63.309 -61.353  1.00  0.00     0.000 A 
HETATM   35  C   UNL     1     -39.583  63.260 -60.026  1.00  0.00     0.001 A 
HETATM   36  C   UNL     1     -40.815  62.684 -59.711  1.00  0.00     0.017 A 
ENDBRANCH  27  31
ENDBRANCH   4  23
TORSDOF 7
ENDMDL
MODEL 3
REMARK VINA RESULT:      -8.7      6.567      9.730
REMARK  7 active torsions:
REMARK  status: ('A' for Active; 'I' for Inactive)
REMARK    1  A    between atoms: O_2  and  C_3 
REMARK    2  A    between atoms: C_5  and  C_6 
REMARK       I    between atoms: C_6  and  N_7 
REMARK    3  A    between atoms: N_7  and  C_8 
REMARK    4  A    between atoms: C_8  and  N_9 
REMARK    5  A    between atoms: N_9  and  C_10 
REMARK    6  A    between atoms: C_13  and  N_14 
REMARK       I    between atoms: N_17  and  C_18 
REMARK    7  A    between atoms: C_18  and  C_19 
ROOT
HETATM    1  C   UNL     1     -44.834  59.017 -55.342  1.00  0.00     0.034 A 
HETATM    2  C   UNL     1     -45.079  58.656 -54.019  1.00  0.00     0.032 A 
HETATM    3  C   UNL     1     -44.194  57.816 -53.325  1.00  0.00     0.031 A 
HETATM    4  C   UNL     1     -43.040  57.289 -53.926  1.00  0.00     0.030 A 
HETATM    5  C   UNL     1     -42.815  57.675 -55.260  1.00  0.00     0.031 A 
HETATM    6  C   UNL     1     -43.683  58.535 -55.956  1.00  0.00     0.032 A 
ENDROOT
BRANCH   1   7
HETATM    7  N   UNL     1     -45.841  59.746 -56.015  1.00  0.00    -0.333 N 
HETATM    8  H   UNL     1     -46.778  59.547 -55.683  1.00  0.00     0.168 HD
BRANCH   7   9
HETATM    9  C   UNL     1     -45.796  60.278 -57.259  1.00  0.00     0.179 C 
HETATM   10  S   UNL     1     -45.085  61.777 -57.486  1.00  0.00    -0.040 SA
BRANCH   9  11
HETATM   11  N   UNL     1     -46.243  59.600 -58.351  1.00  0.00    -0.299 N 
HETATM   12  C   UNL     1     -46.591  58.257 -58.266  1.00  0.00     0.257 C 
HETATM   13  O   UNL     1     -47.466  57.814 -57.529  1.00  0.00    -0.267 OA
HETATM   14  H   UNL     1     -45.667  59.837 -59.143  1.00  0.00     0.171 HD
BRANCH  12  15
HETATM   15  C   UNL     1     -45.904  57.313 -59.214  1.00  0.00     0.035 A 
HETATM   16  C   UNL     1     -44.513  57.262 -59.385  1.00  0.00     0.053 A 
HETATM   17  C   UNL     1     -43.928  56.338 -60.262  1.00  0.00     0.069 A 
HETATM   18  C   UNL     1     -44.735  55.440 -60.958  1.00  0.00     0.037 A 
HETATM   19  C   UNL     1     -46.119  55.468 -60.782  1.00  0.00     0.004 A 
HETATM   20  C   UNL     1     -46.699  56.399 -59.919  1.00  0.00     0.017 A 
BRANCH  17  21
HETATM   21  O   UNL     1     -42.564  56.417 -60.337  1.00  0.00    -0.356 OA
HETATM   22  C   UNL     1     -41.962  57.636 -59.918  1.00  0.00     0.210 C 
ENDBRANCH  17  21
ENDBRANCH  12  15
ENDBRANCH   9  11
ENDBRANCH   7   9
ENDBRANCH   1   7
BRANCH   4  23
HETATM   23  N   UNL     1     -42.196  56.365 -53.286  1.00  0.00    -0.378 N 
HETATM   24  C   UNL     1     -41.872  55.103 -53.993  1.00  0.00     0.143 C 
HETATM   25  C   UNL     1     -40.709  54.354 -53.317  1.00  0.00     0.146 C 
HETATM   26  N   UNL     1     -40.908  54.179 -51.873  1.00  0.00    -0.345 N 
HETATM   27  C   UNL     1     -40.212  53.217 -51.140  1.00  0.00     0.253 C 
HETATM   28  C   UNL     1     -41.249  55.422 -51.178  1.00  0.00     0.146 C 
HETATM   29  O   UNL     1     -39.859  53.381 -49.973  1.00  0.00    -0.267 OA
HETATM   30  C   UNL     1     -42.428  56.164 -51.832  1.00  0.00     0.143 C 
BRANCH  27  31
HETATM   31  C   UNL     1     -39.919  51.907 -51.771  1.00  0.00     0.032 A 
HETATM   32  C   UNL     1     -39.836  50.767 -50.966  1.00  0.00     0.017 A 
HETATM   33  C   UNL     1     -39.611  49.520 -51.550  1.00  0.00     0.001 A 
HETATM   34  C   UNL     1     -39.484  49.411 -52.936  1.00  0.00     0.000 A 
HETATM   35  C   UNL     1     -39.591  50.545 -53.742  1.00  0.00     0.001 A 
HETATM   36  C   UNL     1     -39.818  51.795 -53.163  1.00  0.00     0.017 A 
ENDBRANCH  27  31
ENDBRANCH   4  23
TORSDOF 7
ENDMDL
MODEL 4
REMARK VINA RESULT:      -8.7      2.650     11.444
REMARK  7 active torsions:
REMARK  status: ('A' for Active; 'I' for Inactive)
REMARK    1  A    between atoms: O_2  and  C_3 
REMARK    2  A    between atoms: C_5  and  C_6 
REMARK       I    between atoms: C_6  and  N_7 
REMARK    3  A    between atoms: N_7  and  C_8 
REMARK    4  A    between atoms: C_8  and  N_9 
REMARK    5  A    between atoms: N_9  and  C_10 
REMARK    6  A    between atoms: C_13  and  N_14 
REMARK       I    between atoms: N_17  and  C_18 
REMARK    7  A    between atoms: C_18  and  C_19 
ROOT
HETATM    1  C   UNL     1     -42.314  58.197 -54.594  1.00  0.00     0.034 A 
HETATM    2  C   UNL     1     -43.699  58.185 -54.439  1.00  0.00     0.032 A 
HETATM    3  C   UNL     1     -44.320  58.963 -53.449  1.00  0.00     0.031 A 
HETATM    4  C   UNL     1     -43.586  59.770 -52.565  1.00  0.00     0.030 A 
HETATM    5  C   UNL     1     -42.191  59.767 -52.749  1.00  0.00     0.031 A 
HETATM    6  C   UNL     1     -41.562  59.009 -53.753  1.00  0.00     0.032 A 
ENDROOT
BRANCH   1   7
HETATM    7  N   UNL     1     -41.755  57.280 -55.514  1.00  0.00    -0.333 N 
HETATM    8  H   UNL     1     -40.897  57.607 -55.944  1.00  0.00     0.168 HD
BRANCH   7   9
HETATM    9  C   UNL     1     -42.387  56.306 -56.209  1.00  0.00     0.179 C 
HETATM   10  S   UNL     1     -43.232  56.703 -57.598  1.00  0.00    -0.040 SA
BRANCH   9  11
HETATM   11  N   UNL     1     -42.294  54.993 -55.858  1.00  0.00    -0.299 N 
HETATM   12  C   UNL     1     -42.804  54.539 -54.648  1.00  0.00     0.257 C 
HETATM   13  O   UNL     1     -43.981  54.633 -54.314  1.00  0.00    -0.267 OA
HETATM   14  H   UNL     1     -41.370  54.659 -56.078  1.00  0.00     0.171 HD
BRANCH  12  15
HETATM   15  C   UNL     1     -41.856  53.805 -53.741  1.00  0.00     0.035 A 
HETATM   16  C   UNL     1     -40.974  52.808 -54.183  1.00  0.00     0.053 A 
HETATM   17  C   UNL     1     -40.091  52.180 -53.293  1.00  0.00     0.069 A 
HETATM   18  C   UNL     1     -40.069  52.567 -51.954  1.00  0.00     0.037 A 
HETATM   19  C   UNL     1     -40.928  53.571 -51.506  1.00  0.00     0.004 A 
HETATM   20  C   UNL     1     -41.816  54.184 -52.391  1.00  0.00     0.017 A 
BRANCH  17  21
HETATM   21  O   UNL     1     -39.305  51.218 -53.864  1.00  0.00    -0.356 OA
HETATM   22  C   UNL     1     -39.699  49.863 -53.675  1.00  0.00     0.210 C 
ENDBRANCH  17  21
ENDBRANCH  12  15
ENDBRANCH   9  11
ENDBRANCH   7   9
ENDBRANCH   1   7
BRANCH   4  23
HETATM   23  N   UNL     1     -44.176  60.476 -51.502  1.00  0.00    -0.378 N 
HETATM   24  C   UNL     1     -43.429  60.577 -50.226  1.00  0.00     0.143 C 
HETATM   25  C   UNL     1     -44.048  61.627 -49.285  1.00  0.00     0.146 C 
HETATM   26  N   UNL     1     -45.493  61.442 -49.101  1.00  0.00    -0.345 N 
HETATM   27  C   UNL     1     -46.180  61.998 -48.021  1.00  0.00     0.253 C 
HETATM   28  C   UNL     1     -46.229  61.320 -50.361  1.00  0.00     0.146 C 
HETATM   29  O   UNL     1     -47.338  62.405 -48.094  1.00  0.00    -0.267 OA
HETATM   30  C   UNL     1     -45.631  60.255 -51.298  1.00  0.00     0.143 C 
BRANCH  27  31
HETATM   31  C   UNL     1     -45.507  62.064 -46.701  1.00  0.00     0.032 A 
HETATM   32  C   UNL     1     -45.441  63.290 -46.033  1.00  0.00     0.017 A 
HETATM   33  C   UNL     1     -44.855  63.360 -44.767  1.00  0.00     0.001 A 
HETATM   34  C   UNL     1     -44.353  62.205 -44.167  1.00  0.00     0.000 A 
HETATM   35  C   UNL     1     -44.440  60.976 -44.823  1.00  0.00     0.001 A 
HETATM   36  C   UNL     1     -45.026  60.901 -46.088  1.00  0.00     0.017 A 
ENDBRANCH  27  31
ENDBRANCH   4  23
TORSDOF 7
ENDMDL
MODEL 5
REMARK VINA RESULT:      -8.7      3.829      6.220
REMARK  7 active torsions:
REMARK  status: ('A' for Active; 'I' for Inactive)
REMARK    1  A    between atoms: O_2  and  C_3 
REMARK    2  A    between atoms: C_5  and  C_6 
REMARK       I    between atoms: C_6  and  N_7 
REMARK    3  A    between atoms: N_7  and  C_8 
REMARK    4  A    between atoms: C_8  and  N_9 
REMARK    5  A    between atoms: N_9  and  C_10 
REMARK    6  A    between atoms: C_13  and  N_14 
REMARK       I    between atoms: N_17  and  C_18 
REMARK    7  A    between atoms: C_18  and  C_19 
ROOT
HETATM    1  C   UNL     1     -44.779  59.934 -50.424  1.00  0.00     0.034 A 
HETATM    2  C   UNL     1     -45.502  58.781 -50.718  1.00  0.00     0.032 A 
HETATM    3  C   UNL     1     -44.887  57.682 -51.339  1.00  0.00     0.031 A 
HETATM    4  C   UNL     1     -43.533  57.696 -51.707  1.00  0.00     0.030 A 
HETATM    5  C   UNL     1     -42.826  58.870 -51.392  1.00  0.00     0.031 A 
HETATM    6  C   UNL     1     -43.427  59.966 -50.749  1.00  0.00     0.032 A 
ENDROOT
BRANCH   1   7
HETATM    7  N   UNL     1     -45.499  61.046 -49.931  1.00  0.00    -0.333 N 
HETATM    8  H   UNL     1     -46.025  60.850 -49.087  1.00  0.00     0.168 HD
BRANCH   7   9
HETATM    9  C   UNL     1     -45.940  62.126 -50.619  1.00  0.00     0.179 C 
HETATM   10  S   UNL     1     -46.949  63.226 -49.862  1.00  0.00    -0.040 SA
BRANCH   9  11
HETATM   11  N   UNL     1     -45.527  62.390 -51.889  1.00  0.00    -0.299 N 
HETATM   12  C   UNL     1     -46.029  61.673 -52.968  1.00  0.00     0.257 C 
HETATM   13  O   UNL     1     -47.215  61.624 -53.274  1.00  0.00    -0.267 OA
HETATM   14  H   UNL     1     -44.526  62.509 -51.891  1.00  0.00     0.171 HD
BRANCH  12  15
HETATM   15  C   UNL     1     -45.027  60.994 -53.861  1.00  0.00     0.035 A 
HETATM   16  C   UNL     1     -45.207  59.709 -54.392  1.00  0.00     0.053 A 
HETATM   17  C   UNL     1     -44.250  59.140 -55.245  1.00  0.00     0.069 A 
HETATM   18  C   UNL     1     -43.114  59.869 -55.591  1.00  0.00     0.037 A 
HETATM   19  C   UNL     1     -42.932  61.157 -55.084  1.00  0.00     0.004 A 
HETATM   20  C   UNL     1     -43.880  61.714 -54.225  1.00  0.00     0.017 A 
BRANCH  17  21
HETATM   21  O   UNL     1     -44.554  57.876 -55.670  1.00  0.00    -0.356 OA
HETATM   22  C   UNL     1     -43.801  57.362 -56.762  1.00  0.00     0.210 C 
ENDBRANCH  17  21
ENDBRANCH  12  15
ENDBRANCH   9  11
ENDBRANCH   7   9
ENDBRANCH   1   7
BRANCH   4  23
HETATM   23  N   UNL     1     -42.921  56.651 -52.422  1.00  0.00    -0.378 N 
HETATM   24  C   UNL     1     -42.756  55.342 -51.747  1.00  0.00     0.143 C 
HETATM   25  C   UNL     1     -42.370  54.233 -52.743  1.00  0.00     0.146 C 
HETATM   26  N   UNL     1     -41.227  54.601 -53.588  1.00  0.00    -0.345 N 
HETATM   27  C   UNL     1     -40.465  53.646 -54.262  1.00  0.00     0.253 C 
HETATM   28  C   UNL     1     -41.380  55.904 -54.237  1.00  0.00     0.146 C 
HETATM   29  O   UNL     1     -39.956  53.843 -55.364  1.00  0.00    -0.267 OA
HETATM   30  C   UNL     1     -41.741  57.024 -53.244  1.00  0.00     0.143 C 
BRANCH  27  31
HETATM   31  C   UNL     1     -40.208  52.340 -53.607  1.00  0.00     0.032 A 
HETATM   32  C   UNL     1     -40.304  51.169 -54.365  1.00  0.00     0.017 A 
HETATM   33  C   UNL     1     -40.016  49.936 -53.777  1.00  0.00     0.001 A 
HETATM   34  C   UNL     1     -39.622  49.877 -52.439  1.00  0.00     0.000 A 
HETATM   35  C   UNL     1     -39.503  51.047 -51.689  1.00  0.00     0.001 A 
HETATM   36  C   UNL     1     -39.788  52.283 -52.273  1.00  0.00     0.017 A 
ENDBRANCH  27  31
ENDBRANCH   4  23
TORSDOF 7
ENDMDL
MODEL 6
REMARK VINA RESULT:      -8.6      6.873     10.687
REMARK  7 active torsions:
REMARK  status: ('A' for Active; 'I' for Inactive)
REMARK    1  A    between atoms: O_2  and  C_3 
REMARK    2  A    between atoms: C_5  and  C_6 
REMARK       I    between atoms: C_6  and  N_7 
REMARK    3  A    between atoms: N_7  and  C_8 
REMARK    4  A    between atoms: C_8  and  N_9 
REMARK    5  A    between atoms: N_9  and  C_10 
REMARK    6  A    between atoms: C_13  and  N_14 
REMARK       I    between atoms: N_17  and  C_18 
REMARK    7  A    between atoms: C_18  and  C_19 
ROOT
HETATM    1  C   UNL     1     -46.385  59.564 -58.400  1.00  0.00     0.034 A 
HETATM    2  C   UNL     1     -46.969  58.583 -57.603  1.00  0.00     0.032 A 
HETATM    3  C   UNL     1     -46.239  57.953 -56.584  1.00  0.00     0.031 A 
HETATM    4  C   UNL     1     -44.894  58.263 -56.329  1.00  0.00     0.030 A 
HETATM    5  C   UNL     1     -44.332  59.261 -57.145  1.00  0.00     0.031 A 
HETATM    6  C   UNL     1     -45.062  59.915 -58.154  1.00  0.00     0.032 A 
ENDROOT
BRANCH   1   7
HETATM    7  N   UNL     1     -47.138  60.047 -59.496  1.00  0.00    -0.333 N 
HETATM    8  H   UNL     1     -47.758  60.813 -59.257  1.00  0.00     0.168 HD
BRANCH   7   9
HETATM    9  C   UNL     1     -47.482  59.388 -60.627  1.00  0.00     0.179 C 
HETATM   10  S   UNL     1     -48.921  59.767 -61.393  1.00  0.00    -0.040 SA
BRANCH   9  11
HETATM   11  N   UNL     1     -46.657  58.474 -61.209  1.00  0.00    -0.299 N 
HETATM   12  C   UNL     1     -46.620  57.158 -60.765  1.00  0.00     0.257 C 
HETATM   13  O   UNL     1     -47.588  56.404 -60.755  1.00  0.00    -0.267 OA
HETATM   14  H   UNL     1     -45.754  58.895 -61.357  1.00  0.00     0.171 HD
BRANCH  12  15
HETATM   15  C   UNL     1     -45.279  56.613 -60.359  1.00  0.00     0.035 A 
HETATM   16  C   UNL     1     -44.089  57.354 -60.421  1.00  0.00     0.053 A 
HETATM   17  C   UNL     1     -42.872  56.799 -59.999  1.00  0.00     0.069 A 
HETATM   18  C   UNL     1     -42.844  55.503 -59.489  1.00  0.00     0.037 A 
HETATM   19  C   UNL     1     -44.024  54.763 -59.404  1.00  0.00     0.004 A 
HETATM   20  C   UNL     1     -45.231  55.312 -59.838  1.00  0.00     0.017 A 
BRANCH  17  21
HETATM   21  O   UNL     1     -41.796  57.633 -60.135  1.00  0.00    -0.356 OA
HETATM   22  C   UNL     1     -42.069  59.004 -60.403  1.00  0.00     0.210 C 
ENDBRANCH  17  21
ENDBRANCH  12  15
ENDBRANCH   9  11
ENDBRANCH   7   9
ENDBRANCH   1   7
BRANCH   4  23
HETATM   23  N   UNL     1     -44.113  57.574 -55.384  1.00  0.00    -0.378 N 
HETATM   24  C   UNL     1     -43.235  56.481 -55.862  1.00  0.00     0.143 C 
HETATM   25  C   UNL     1     -42.228  56.045 -54.782  1.00  0.00     0.146 C 
HETATM   26  N   UNL     1     -42.868  55.756 -53.492  1.00  0.00    -0.345 N 
HETATM   27  C   UNL     1     -42.244  54.985 -52.511  1.00  0.00     0.253 C 
HETATM   28  C   UNL     1     -43.754  56.826 -53.030  1.00  0.00     0.146 C 
HETATM   29  O   UNL     1     -42.383  55.185 -51.305  1.00  0.00    -0.267 OA
HETATM   30  C   UNL     1     -44.780  57.250 -54.096  1.00  0.00     0.143 C 
BRANCH  27  31
HETATM   31  C   UNL     1     -41.406  53.835 -52.927  1.00  0.00     0.032 A 
HETATM   32  C   UNL     1     -40.410  53.371 -52.062  1.00  0.00     0.017 A 
HETATM   33  C   UNL     1     -39.646  52.258 -52.417  1.00  0.00     0.001 A 
HETATM   34  C   UNL     1     -39.887  51.604 -53.626  1.00  0.00     0.000 A 
HETATM   35  C   UNL     1     -40.896  52.052 -54.479  1.00  0.00     0.001 A 
HETATM   36  C   UNL     1     -41.664  53.164 -54.128  1.00  0.00     0.017 A 
ENDBRANCH  27  31
ENDBRANCH   4  23
TORSDOF 7
ENDMDL
MODEL 7
REMARK VINA RESULT:      -8.5      4.178      5.948
REMARK  7 active torsions:
REMARK  status: ('A' for Active; 'I' for Inactive)
REMARK    1  A    between atoms: O_2  and  C_3 
REMARK    2  A    between atoms: C_5  and  C_6 
REMARK       I    between atoms: C_6  and  N_7 
REMARK    3  A    between atoms: N_7  and  C_8 
REMARK    4  A    between atoms: C_8  and  N_9 
REMARK    5  A    between atoms: N_9  and  C_10 
REMARK    6  A    between atoms: C_13  and  N_14 
REMARK       I    between atoms: N_17  and  C_18 
REMARK    7  A    between atoms: C_18  and  C_19 
ROOT
HETATM    1  C   UNL     1     -45.862  59.934 -51.877  1.00  0.00     0.034 A 
HETATM    2  C   UNL     1     -45.445  58.922 -51.015  1.00  0.00     0.032 A 
HETATM    3  C   UNL     1     -44.614  57.887 -51.469  1.00  0.00     0.031 A 
HETATM    4  C   UNL     1     -44.178  57.809 -52.801  1.00  0.00     0.030 A 
HETATM    5  C   UNL     1     -44.609  58.848 -53.647  1.00  0.00     0.031 A 
HETATM    6  C   UNL     1     -45.423  59.902 -53.196  1.00  0.00     0.032 A 
ENDROOT
BRANCH   1   7
HETATM    7  N   UNL     1     -46.812  60.859 -51.383  1.00  0.00    -0.333 N 
HETATM    8  H   UNL     1     -47.741  60.469 -51.274  1.00  0.00     0.168 HD
BRANCH   7   9
HETATM    9  C   UNL     1     -46.785  62.209 -51.471  1.00  0.00     0.179 C 
HETATM   10  S   UNL     1     -45.574  63.060 -50.690  1.00  0.00    -0.040 SA
BRANCH   9  11
HETATM   11  N   UNL     1     -47.671  62.900 -52.241  1.00  0.00    -0.299 N 
HETATM   12  C   UNL     1     -48.882  63.338 -51.720  1.00  0.00     0.257 C 
HETATM   13  O   UNL     1     -48.989  64.100 -50.765  1.00  0.00    -0.267 OA
HETATM   14  H   UNL     1     -47.735  62.457 -53.144  1.00  0.00     0.171 HD
BRANCH  12  15
HETATM   15  C   UNL     1     -50.129  62.913 -52.444  1.00  0.00     0.035 A 
HETATM   16  C   UNL     1     -50.121  62.179 -53.639  1.00  0.00     0.053 A 
HETATM   17  C   UNL     1     -51.319  61.785 -54.251  1.00  0.00     0.069 A 
HETATM   18  C   UNL     1     -52.537  62.106 -53.655  1.00  0.00     0.037 A 
HETATM   19  C   UNL     1     -52.559  62.820 -52.456  1.00  0.00     0.004 A 
HETATM   20  C   UNL     1     -51.365  63.222 -51.857  1.00  0.00     0.017 A 
BRANCH  17  21
HETATM   21  O   UNL     1     -51.154  61.090 -55.418  1.00  0.00    -0.356 OA
HETATM   22  C   UNL     1     -52.327  60.570 -56.034  1.00  0.00     0.210 C 
ENDBRANCH  17  21
ENDBRANCH  12  15
ENDBRANCH   9  11
ENDBRANCH   7   9
ENDBRANCH   1   7
BRANCH   4  23
HETATM   23  N   UNL     1     -43.432  56.728 -53.303  1.00  0.00    -0.378 N 
HETATM   24  C   UNL     1     -43.218  55.555 -52.424  1.00  0.00     0.143 C 
HETATM   25  C   UNL     1     -42.667  54.349 -53.208  1.00  0.00     0.146 C 
HETATM   26  N   UNL     1     -41.494  54.689 -54.022  1.00  0.00    -0.345 N 
HETATM   27  C   UNL     1     -40.608  53.716 -54.488  1.00  0.00     0.253 C 
HETATM   28  C   UNL     1     -41.697  55.861 -54.874  1.00  0.00     0.146 C 
HETATM   29  O   UNL     1     -40.030  53.792 -55.571  1.00  0.00    -0.267 OA
HETATM   30  C   UNL     1     -42.223  57.080 -54.094  1.00  0.00     0.143 C 
BRANCH  27  31
HETATM   31  C   UNL     1     -40.302  52.551 -53.623  1.00  0.00     0.032 A 
HETATM   32  C   UNL     1     -40.223  51.279 -54.198  1.00  0.00     0.017 A 
HETATM   33  C   UNL     1     -39.887  50.180 -53.407  1.00  0.00     0.001 A 
HETATM   34  C   UNL     1     -39.616  50.354 -52.049  1.00  0.00     0.000 A 
HETATM   35  C   UNL     1     -39.671  51.626 -51.479  1.00  0.00     0.001 A 
HETATM   36  C   UNL     1     -40.006  52.730 -52.266  1.00  0.00     0.017 A 
ENDBRANCH  27  31
ENDBRANCH   4  23
TORSDOF 7
ENDMDL
MODEL 8
REMARK VINA RESULT:      -8.5      7.237     10.466
REMARK  7 active torsions:
REMARK  status: ('A' for Active; 'I' for Inactive)
REMARK    1  A    between atoms: O_2  and  C_3 
REMARK    2  A    between atoms: C_5  and  C_6 
REMARK       I    between atoms: C_6  and  N_7 
REMARK    3  A    between atoms: N_7  and  C_8 
REMARK    4  A    between atoms: C_8  and  N_9 
REMARK    5  A    between atoms: N_9  and  C_10 
REMARK    6  A    between atoms: C_13  and  N_14 
REMARK       I    between atoms: N_17  and  C_18 
REMARK    7  A    between atoms: C_18  and  C_19 
ROOT
HETATM    1  C   UNL     1     -43.592  60.719 -58.097  1.00  0.00     0.034 A 
HETATM    2  C   UNL     1     -44.395  60.626 -56.963  1.00  0.00     0.032 A 
HETATM    3  C   UNL     1     -44.122  59.682 -55.961  1.00  0.00     0.031 A 
HETATM    4  C   UNL     1     -43.049  58.783 -56.058  1.00  0.00     0.030 A 
HETATM    5  C   UNL     1     -42.252  58.903 -57.210  1.00  0.00     0.031 A 
HETATM    6  C   UNL     1     -42.503  59.861 -58.208  1.00  0.00     0.032 A 
ENDROOT
BRANCH   1   7
HETATM    7  N   UNL     1     -44.015  61.594 -59.125  1.00  0.00    -0.333 N 
HETATM    8  H   UNL     1     -44.719  62.261 -58.828  1.00  0.00     0.168 HD
BRANCH   7   9
HETATM    9  C   UNL     1     -43.974  61.391 -60.462  1.00  0.00     0.179 C 
HETATM   10  S   UNL     1     -42.834  62.202 -61.382  1.00  0.00    -0.040 SA
BRANCH   9  11
HETATM   11  N   UNL     1     -44.783  60.487 -61.081  1.00  0.00    -0.299 N 
HETATM   12  C   UNL     1     -45.799  59.843 -60.386  1.00  0.00     0.257 C 
HETATM   13  O   UNL     1     -46.728  60.419 -59.828  1.00  0.00    -0.267 OA
HETATM   14  H   UNL     1     -44.219  59.884 -61.658  1.00  0.00     0.171 HD
BRANCH  12  15
HETATM   15  C   UNL     1     -45.794  58.340 -60.407  1.00  0.00     0.035 A 
HETATM   16  C   UNL     1     -44.631  57.566 -60.281  1.00  0.00     0.053 A 
HETATM   17  C   UNL     1     -44.693  56.165 -60.277  1.00  0.00     0.069 A 
HETATM   18  C   UNL     1     -45.929  55.530 -60.376  1.00  0.00     0.037 A 
HETATM   19  C   UNL     1     -47.096  56.288 -60.482  1.00  0.00     0.004 A 
HETATM   20  C   UNL     1     -47.029  57.682 -60.499  1.00  0.00     0.017 A 
BRANCH  17  21
HETATM   21  O   UNL     1     -43.478  55.547 -60.164  1.00  0.00    -0.356 OA
HETATM   22  C   UNL     1     -42.342  56.382 -59.972  1.00  0.00     0.210 C 
ENDBRANCH  17  21
ENDBRANCH  12  15
ENDBRANCH   9  11
ENDBRANCH   7   9
ENDBRANCH   1   7
BRANCH   4  23
HETATM   23  N   UNL     1     -42.817  57.762 -55.119  1.00  0.00    -0.378 N 
HETATM   24  C   UNL     1     -41.671  56.850 -55.342  1.00  0.00     0.143 C 
HETATM   25  C   UNL     1     -41.363  56.005 -54.092  1.00  0.00     0.146 C 
HETATM   26  N   UNL     1     -42.551  55.328 -53.558  1.00  0.00    -0.345 N 
HETATM   27  C   UNL     1     -42.456  54.228 -52.704  1.00  0.00     0.253 C 
HETATM   28  C   UNL     1     -43.690  56.224 -53.357  1.00  0.00     0.146 C 
HETATM   29  O   UNL     1     -43.256  54.006 -51.797  1.00  0.00    -0.267 OA
HETATM   30  C   UNL     1     -44.021  57.054 -54.611  1.00  0.00     0.143 C 
BRANCH  27  31
HETATM   31  C   UNL     1     -41.368  53.243 -52.921  1.00  0.00     0.032 A 
HETATM   32  C   UNL     1     -40.514  52.928 -51.860  1.00  0.00     0.017 A 
HETATM   33  C   UNL     1     -39.517  51.967 -52.033  1.00  0.00     0.001 A 
HETATM   34  C   UNL     1     -39.385  51.313 -53.259  1.00  0.00     0.000 A 
HETATM   35  C   UNL     1     -40.252  51.609 -54.311  1.00  0.00     0.001 A 
HETATM   36  C   UNL     1     -41.252  52.569 -54.142  1.00  0.00     0.017 A 
ENDBRANCH  27  31
ENDBRANCH   4  23
TORSDOF 7
ENDMDL
MODEL 9
REMARK VINA RESULT:      -8.2      6.230      9.382
REMARK  7 active torsions:
REMARK  status: ('A' for Active; 'I' for Inactive)
REMARK    1  A    between atoms: O_2  and  C_3 
REMARK    2  A    between atoms: C_5  and  C_6 
REMARK       I    between atoms: C_6  and  N_7 
REMARK    3  A    between atoms: N_7  and  C_8 
REMARK    4  A    between atoms: C_8  and  N_9 
REMARK    5  A    between atoms: N_9  and  C_10 
REMARK    6  A    between atoms: C_13  and  N_14 
REMARK       I    between atoms: N_17  and  C_18 
REMARK    7  A    between atoms: C_18  and  C_19 
ROOT
HETATM    1  C   UNL     1     -45.140  59.173 -54.600  1.00  0.00     0.034 A 
HETATM    2  C   UNL     1     -45.183  57.825 -54.950  1.00  0.00     0.032 A 
HETATM    3  C   UNL     1     -44.322  56.896 -54.346  1.00  0.00     0.031 A 
HETATM    4  C   UNL     1     -43.372  57.275 -53.384  1.00  0.00     0.030 A 
HETATM    5  C   UNL     1     -43.356  58.641 -53.046  1.00  0.00     0.031 A 
HETATM    6  C   UNL     1     -44.230  59.575 -53.628  1.00  0.00     0.032 A 
ENDROOT
BRANCH   1   7
HETATM    7  N   UNL     1     -45.936  60.067 -55.354  1.00  0.00    -0.333 N 
HETATM    8  H   UNL     1     -46.900  59.768 -55.454  1.00  0.00     0.168 HD
BRANCH   7   9
HETATM    9  C   UNL     1     -45.533  60.957 -56.290  1.00  0.00     0.179 C 
HETATM   10  S   UNL     1     -45.260  62.548 -55.847  1.00  0.00    -0.040 SA
BRANCH   9  11
HETATM   11  N   UNL     1     -45.266  60.586 -57.572  1.00  0.00    -0.299 N 
HETATM   12  C   UNL     1     -45.674  59.350 -58.059  1.00  0.00     0.257 C 
HETATM   13  O   UNL     1     -46.841  58.976 -58.104  1.00  0.00    -0.267 OA
HETATM   14  H   UNL     1     -44.315  60.832 -57.794  1.00  0.00     0.171 HD
BRANCH  12  15
HETATM   15  C   UNL     1     -44.612  58.464 -58.647  1.00  0.00     0.035 A 
HETATM   16  C   UNL     1     -44.836  57.134 -59.033  1.00  0.00     0.053 A 
HETATM   17  C   UNL     1     -43.812  56.366 -59.606  1.00  0.00     0.069 A 
HETATM   18  C   UNL     1     -42.558  56.936 -59.817  1.00  0.00     0.037 A 
HETATM   19  C   UNL     1     -42.327  58.264 -59.455  1.00  0.00     0.004 A 
HETATM   20  C   UNL     1     -43.345  59.021 -58.873  1.00  0.00     0.017 A 
BRANCH  17  21
HETATM   21  O   UNL     1     -44.174  55.084 -59.915  1.00  0.00    -0.356 OA
HETATM   22  C   UNL     1     -44.999  54.902 -61.060  1.00  0.00     0.210 C 
ENDBRANCH  17  21
ENDBRANCH  12  15
ENDBRANCH   9  11
ENDBRANCH   7   9
ENDBRANCH   1   7
BRANCH   4  23
HETATM   23  N   UNL     1     -42.431  56.383 -52.842  1.00  0.00    -0.378 N 
HETATM   24  C   UNL     1     -42.276  55.054 -53.478  1.00  0.00     0.143 C 
HETATM   25  C   UNL     1     -41.012  54.328 -52.981  1.00  0.00     0.146 C 
HETATM   26  N   UNL     1     -40.920  54.286 -51.516  1.00  0.00    -0.345 N 
HETATM   27  C   UNL     1     -40.107  53.369 -50.850  1.00  0.00     0.253 C 
HETATM   28  C   UNL     1     -41.095  55.595 -50.885  1.00  0.00     0.146 C 
HETATM   29  O   UNL     1     -39.524  53.622 -49.797  1.00  0.00    -0.267 OA
HETATM   30  C   UNL     1     -42.370  56.317 -51.358  1.00  0.00     0.143 C 
BRANCH  27  31
HETATM   31  C   UNL     1     -39.967  52.000 -51.404  1.00  0.00     0.032 A 
HETATM   32  C   UNL     1     -39.765  51.840 -52.778  1.00  0.00     0.017 A 
HETATM   33  C   UNL     1     -39.581  50.562 -53.308  1.00  0.00     0.001 A 
HETATM   34  C   UNL     1     -39.585  49.450 -52.465  1.00  0.00     0.000 A 
HETATM   35  C   UNL     1     -39.763  49.611 -51.090  1.00  0.00     0.001 A 
HETATM   36  C   UNL     1     -39.945  50.887 -50.555  1.00  0.00     0.017 A 
ENDBRANCH  27  31
ENDBRANCH   4  23
TORSDOF 7
ENDMDL
MODEL 10
REMARK VINA RESULT:      -8.0      6.246      9.413
REMARK  7 active torsions:
REMARK  status: ('A' for Active; 'I' for Inactive)
REMARK    1  A    between atoms: O_2  and  C_3 
REMARK    2  A    between atoms: C_5  and  C_6 
REMARK       I    between atoms: C_6  and  N_7 
REMARK    3  A    between atoms: N_7  and  C_8 
REMARK    4  A    between atoms: C_8  and  N_9 
REMARK    5  A    between atoms: N_9  and  C_10 
REMARK    6  A    between atoms: C_13  and  N_14 
REMARK       I    between atoms: N_17  and  C_18 
REMARK    7  A    between atoms: C_18  and  C_19 
ROOT
HETATM    1  C   UNL     1     -40.978  53.359 -53.633  1.00  0.00     0.034 A 
HETATM    2  C   UNL     1     -42.347  53.612 -53.600  1.00  0.00     0.032 A 
HETATM    3  C   UNL     1     -42.937  54.504 -54.508  1.00  0.00     0.031 A 
HETATM    4  C   UNL     1     -42.185  55.192 -55.473  1.00  0.00     0.030 A 
HETATM    5  C   UNL     1     -40.807  54.912 -55.488  1.00  0.00     0.031 A 
HETATM    6  C   UNL     1     -40.210  54.002 -54.597  1.00  0.00     0.032 A 
ENDROOT
BRANCH   1   7
HETATM    7  N   UNL     1     -40.438  52.561 -52.597  1.00  0.00    -0.333 N 
HETATM    8  H   UNL     1     -40.427  51.570 -52.809  1.00  0.00     0.168 HD
BRANCH   7   9
HETATM    9  C   UNL     1     -40.370  52.845 -51.275  1.00  0.00     0.179 C 
HETATM   10  S   UNL     1     -40.265  51.592 -50.170  1.00  0.00    -0.040 SA
BRANCH   9  11
HETATM   11  N   UNL     1     -40.308  54.125 -50.814  1.00  0.00    -0.299 N 
HETATM   12  C   UNL     1     -41.366  54.683 -50.108  1.00  0.00     0.257 C 
HETATM   13  O   UNL     1     -41.808  54.235 -49.054  1.00  0.00    -0.267 OA
HETATM   14  H   UNL     1     -39.924  54.715 -51.535  1.00  0.00     0.171 HD
BRANCH  12  15
HETATM   15  C   UNL     1     -41.935  55.971 -50.636  1.00  0.00     0.035 A 
HETATM   16  C   UNL     1     -41.164  57.118 -50.879  1.00  0.00     0.053 A 
HETATM   17  C   UNL     1     -41.747  58.281 -51.402  1.00  0.00     0.069 A 
HETATM   18  C   UNL     1     -43.107  58.294 -51.708  1.00  0.00     0.037 A 
HETATM   19  C   UNL     1     -43.880  57.153 -51.489  1.00  0.00     0.004 A 
HETATM   20  C   UNL     1     -43.300  56.002 -50.955  1.00  0.00     0.017 A 
BRANCH  17  21
HETATM   21  O   UNL     1     -40.876  59.322 -51.569  1.00  0.00    -0.356 OA
HETATM   22  C   UNL     1     -39.901  59.520 -50.552  1.00  0.00     0.210 C 
ENDBRANCH  17  21
ENDBRANCH  12  15
ENDBRANCH   9  11
ENDBRANCH   7   9
ENDBRANCH   1   7
BRANCH   4  23
HETATM   23  N   UNL     1     -42.736  56.166 -56.324  1.00  0.00    -0.378 N 
HETATM   24  C   UNL     1     -43.760  57.084 -55.771  1.00  0.00     0.143 C 
HETATM   25  C   UNL     1     -44.029  58.272 -56.713  1.00  0.00     0.146 C 
HETATM   26  N   UNL     1     -44.307  57.852 -58.092  1.00  0.00    -0.345 N 
HETATM   27  C   UNL     1     -44.953  58.687 -59.005  1.00  0.00     0.253 C 
HETATM   28  C   UNL     1     -43.308  56.928 -58.631  1.00  0.00     0.146 C 
HETATM   29  O   UNL     1     -44.700  58.695 -60.208  1.00  0.00    -0.267 OA
HETATM   30  C   UNL     1     -43.052  55.724 -57.708  1.00  0.00     0.143 C 
BRANCH  27  31
HETATM   31  C   UNL     1     -46.034  59.579 -58.521  1.00  0.00     0.032 A 
HETATM   32  C   UNL     1     -45.768  60.942 -58.359  1.00  0.00     0.017 A 
HETATM   33  C   UNL     1     -46.789  61.804 -57.952  1.00  0.00     0.001 A 
HETATM   34  C   UNL     1     -48.072  61.306 -57.723  1.00  0.00     0.000 A 
HETATM   35  C   UNL     1     -48.343  59.950 -57.908  1.00  0.00     0.001 A 
HETATM   36  C   UNL     1     -47.327  59.084 -58.316  1.00  0.00     0.017 A 
ENDBRANCH  27  31
ENDBRANCH   4  23
TORSDOF 7
ENDMDL
