MODEL 1
REMARK VINA RESULT:      -7.5      0.000      0.000
REMARK  6 active torsions:
REMARK  status: ('A' for Active; 'I' for Inactive)
REMARK    1  A    between atoms: C_8  and  C_9 
REMARK    2  A    between atoms: C_9  and  C_10 
REMARK       I    between atoms: C_10  and  N_11 
REMARK    3  A    between atoms: N_11  and  C_12 
REMARK    4  A    between atoms: C_12  and  C_13 
REMARK    5  A    between atoms: C_13  and  N_14 
REMARK    6  A    between atoms: C_13  and  C_20 
ROOT
HETATM    1  C   UNL     1     -41.845  54.512 -53.931  1.00  0.00     0.160 C 
ENDROOT
BRANCH   1   2
HETATM    2  N   UNL     1     -41.894  55.939 -54.237  1.00  0.00    -0.358 N 
HETATM    3  C   UNL     1     -43.107  56.605 -54.194  1.00  0.00     0.226 C 
HETATM    4  O   UNL     1     -44.162  55.970 -54.185  1.00  0.00    -0.273 OA
HETATM    5  H   UNL     1     -41.084  56.485 -53.967  1.00  0.00     0.162 HD
BRANCH   3   6
HETATM    6  C   UNL     1     -43.073  58.139 -54.193  1.00  0.00     0.111 C 
HETATM    7  C   UNL     1     -42.261  58.751 -55.334  1.00  0.00     0.025 C 
BRANCH   6   8
HETATM    8  C   UNL     1     -42.706  58.693 -52.846  1.00  0.00     0.004 A 
HETATM    9  C   UNL     1     -43.593  59.071 -51.849  1.00  0.00     0.033 A 
HETATM   10  C   UNL     1     -45.075  59.052 -51.776  1.00  0.00     0.070 C 
HETATM   11  N   UNL     1     -42.832  59.510 -50.804  1.00  0.00    -0.282 N 
HETATM   12  H   UNL     1     -43.141  59.861 -49.901  1.00  0.00     0.189 HD
HETATM   13  N   UNL     1     -41.519  59.459 -51.045  1.00  0.00    -0.179 NA
HETATM   14  C   UNL     1     -41.423  58.970 -52.284  1.00  0.00     0.060 A 
HETATM   15  C   UNL     1     -40.068  58.792 -52.863  1.00  0.00     0.073 C 
ENDBRANCH   6   8
ENDBRANCH   3   6
ENDBRANCH   1   2
BRANCH   1  16
HETATM   16  C   UNL     1     -40.818  54.041 -52.845  1.00  0.00     0.238 C 
BRANCH  16  17
HETATM   17  N   UNL     1     -41.267  54.303 -51.401  1.00  0.00    -0.061 N 
HETATM   18  H   UNL     1     -40.822  53.544 -50.868  1.00  0.00     0.280 HD
HETATM   19  C   UNL     1     -42.739  54.215 -51.083  1.00  0.00     0.236 C 
HETATM   20  C   UNL     1     -43.122  55.628 -50.698  1.00  0.00     0.029 C 
HETATM   21  C   UNL     1     -41.893  56.128 -49.969  1.00  0.00     0.029 C 
HETATM   22  C   UNL     1     -40.737  55.583 -50.787  1.00  0.00     0.236 C 
ENDBRANCH  16  17
BRANCH  16  23
HETATM   23  C   UNL     1     -40.411  52.579 -53.000  1.00  0.00    -0.024 A 
HETATM   24  C   UNL     1     -39.982  51.790 -51.919  1.00  0.00     0.033 A 
HETATM   25  C   UNL     1     -39.591  50.462 -52.119  1.00  0.00     0.034 A 
HETATM   26 CL   UNL     1     -39.067  49.527 -50.774  1.00  0.00    -0.084 Cl
HETATM   27  C   UNL     1     -39.617  49.899 -53.389  1.00  0.00     0.024 A 
HETATM   28  C   UNL     1     -40.035  50.668 -54.473  1.00  0.00     0.002 A 
HETATM   29  C   UNL     1     -40.425  51.996 -54.282  1.00  0.00     0.009 A 
ENDBRANCH  16  23
ENDBRANCH   1  16
TORSDOF 6
ENDMDL
MODEL 2
REMARK VINA RESULT:      -7.4      3.309      4.861
REMARK  6 active torsions:
REMARK  status: ('A' for Active; 'I' for Inactive)
REMARK    1  A    between atoms: C_8  and  C_9 
REMARK    2  A    between atoms: C_9  and  C_10 
REMARK       I    between atoms: C_10  and  N_11 
REMARK    3  A    between atoms: N_11  and  C_12 
REMARK    4  A    between atoms: C_12  and  C_13 
REMARK    5  A    between atoms: C_13  and  N_14 
REMARK    6  A    between atoms: C_13  and  C_20 
ROOT
HETATM    1  C   UNL     1     -42.969  54.536 -54.438  1.00  0.00     0.160 C 
ENDROOT
BRANCH   1   2
HETATM    2  N   UNL     1     -43.097  54.884 -55.851  1.00  0.00    -0.358 N 
HETATM    3  C   UNL     1     -43.330  56.200 -56.212  1.00  0.00     0.226 C 
HETATM    4  O   UNL     1     -43.709  57.014 -55.371  1.00  0.00    -0.273 OA
HETATM    5  H   UNL     1     -42.537  54.343 -56.500  1.00  0.00     0.162 HD
BRANCH   3   6
HETATM    6  C   UNL     1     -43.130  56.576 -57.686  1.00  0.00     0.111 C 
HETATM    7  C   UNL     1     -42.247  57.802 -57.909  1.00  0.00     0.025 C 
BRANCH   6   8
HETATM    8  C   UNL     1     -44.433  56.646 -58.431  1.00  0.00     0.004 A 
HETATM    9  C   UNL     1     -44.935  55.681 -59.291  1.00  0.00     0.033 A 
HETATM   10  C   UNL     1     -44.406  54.364 -59.726  1.00  0.00     0.070 C 
HETATM   11  N   UNL     1     -46.136  56.152 -59.738  1.00  0.00    -0.282 N 
HETATM   12  H   UNL     1     -46.788  55.709 -60.380  1.00  0.00     0.189 HD
HETATM   13  N   UNL     1     -46.452  57.353 -59.246  1.00  0.00    -0.179 NA
HETATM   14  C   UNL     1     -45.425  57.672 -58.453  1.00  0.00     0.060 A 
HETATM   15  C   UNL     1     -45.467  58.977 -57.746  1.00  0.00     0.073 C 
ENDBRANCH   6   8
ENDBRANCH   3   6
ENDBRANCH   1   2
BRANCH   1  16
HETATM   16  C   UNL     1     -41.598  54.836 -53.743  1.00  0.00     0.238 C 
BRANCH  16  17
HETATM   17  N   UNL     1     -41.692  55.811 -52.562  1.00  0.00    -0.061 N 
HETATM   18  H   UNL     1     -40.995  55.452 -51.895  1.00  0.00     0.280 HD
HETATM   19  C   UNL     1     -42.990  55.883 -51.796  1.00  0.00     0.236 C 
HETATM   20  C   UNL     1     -43.503  57.281 -52.063  1.00  0.00     0.029 C 
HETATM   21  C   UNL     1     -42.235  58.107 -52.109  1.00  0.00     0.029 C 
HETATM   22  C   UNL     1     -41.256  57.230 -52.866  1.00  0.00     0.236 C 
ENDBRANCH  16  17
BRANCH  16  23
HETATM   23  C   UNL     1     -40.858  53.573 -53.309  1.00  0.00    -0.024 A 
HETATM   24  C   UNL     1     -40.689  52.463 -54.156  1.00  0.00     0.033 A 
HETATM   25  C   UNL     1     -40.029  51.318 -53.701  1.00  0.00     0.034 A 
HETATM   26 CL   UNL     1     -39.842  49.976 -54.762  1.00  0.00    -0.084 Cl
HETATM   27  C   UNL     1     -39.531  51.252 -52.406  1.00  0.00     0.024 A 
HETATM   28  C   UNL     1     -39.694  52.341 -51.552  1.00  0.00     0.002 A 
HETATM   29  C   UNL     1     -40.355  53.489 -51.997  1.00  0.00     0.009 A 
ENDBRANCH  16  23
ENDBRANCH   1  16
TORSDOF 6
ENDMDL
MODEL 3
REMARK VINA RESULT:      -7.3      3.480      5.200
REMARK  6 active torsions:
REMARK  status: ('A' for Active; 'I' for Inactive)
REMARK    1  A    between atoms: C_8  and  C_9 
REMARK    2  A    between atoms: C_9  and  C_10 
REMARK       I    between atoms: C_10  and  N_11 
REMARK    3  A    between atoms: N_11  and  C_12 
REMARK    4  A    between atoms: C_12  and  C_13 
REMARK    5  A    between atoms: C_13  and  N_14 
REMARK    6  A    between atoms: C_13  and  C_20 
ROOT
HETATM    1  C   UNL     1     -43.198  55.692 -54.570  1.00  0.00     0.160 C 
ENDROOT
BRANCH   1   2
HETATM    2  N   UNL     1     -43.453  55.775 -56.005  1.00  0.00    -0.358 N 
HETATM    3  C   UNL     1     -43.370  57.000 -56.644  1.00  0.00     0.226 C 
HETATM    4  O   UNL     1     -43.367  58.041 -55.987  1.00  0.00    -0.273 OA
HETATM    5  H   UNL     1     -43.177  54.971 -56.558  1.00  0.00     0.162 HD
BRANCH   3   6
HETATM    6  C   UNL     1     -43.317  56.998 -58.177  1.00  0.00     0.111 C 
HETATM    7  C   UNL     1     -42.545  58.169 -58.782  1.00  0.00     0.025 C 
BRANCH   6   8
HETATM    8  C   UNL     1     -44.678  56.812 -58.787  1.00  0.00     0.004 A 
HETATM    9  C   UNL     1     -45.114  55.696 -59.486  1.00  0.00     0.033 A 
HETATM   10  C   UNL     1     -44.447  54.417 -59.835  1.00  0.00     0.070 C 
HETATM   11  N   UNL     1     -46.404  55.953 -59.854  1.00  0.00    -0.282 N 
HETATM   12  H   UNL     1     -47.041  55.358 -60.376  1.00  0.00     0.189 HD
HETATM   13  N   UNL     1     -46.839  57.152 -59.458  1.00  0.00    -0.179 NA
HETATM   14  C   UNL     1     -45.802  57.692 -58.813  1.00  0.00     0.060 A 
HETATM   15  C   UNL     1     -45.963  59.053 -58.244  1.00  0.00     0.073 C 
ENDBRANCH   6   8
ENDBRANCH   3   6
ENDBRANCH   1   2
BRANCH   1  16
HETATM   16  C   UNL     1     -41.710  55.812 -54.093  1.00  0.00     0.238 C 
BRANCH  16  17
HETATM   17  N   UNL     1     -41.483  56.861 -52.997  1.00  0.00    -0.061 N 
HETATM   18  H   UNL     1     -40.928  56.358 -52.292  1.00  0.00     0.280 HD
HETATM   19  C   UNL     1     -42.687  57.398 -52.262  1.00  0.00     0.236 C 
HETATM   20  C   UNL     1     -42.738  58.860 -52.650  1.00  0.00     0.029 C 
HETATM   21  C   UNL     1     -41.275  59.241 -52.741  1.00  0.00     0.029 C 
HETATM   22  C   UNL     1     -40.627  58.042 -53.408  1.00  0.00     0.236 C 
ENDBRANCH  16  17
BRANCH  16  23
HETATM   23  C   UNL     1     -41.112  54.476 -53.659  1.00  0.00    -0.024 A 
HETATM   24  C   UNL     1     -40.984  54.103 -52.309  1.00  0.00     0.033 A 
HETATM   25  C   UNL     1     -40.403  52.880 -51.962  1.00  0.00     0.034 A 
HETATM   26 CL   UNL     1     -40.259  52.458 -50.301  1.00  0.00    -0.084 Cl
HETATM   27  C   UNL     1     -39.936  52.013 -52.942  1.00  0.00     0.024 A 
HETATM   28  C   UNL     1     -40.051  52.368 -54.285  1.00  0.00     0.002 A 
HETATM   29  C   UNL     1     -40.629  53.590 -54.640  1.00  0.00     0.009 A 
ENDBRANCH  16  23
ENDBRANCH   1  16
TORSDOF 6
ENDMDL
MODEL 4
REMARK VINA RESULT:      -7.3      3.061      4.309
REMARK  6 active torsions:
REMARK  status: ('A' for Active; 'I' for Inactive)
REMARK    1  A    between atoms: C_8  and  C_9 
REMARK    2  A    between atoms: C_9  and  C_10 
REMARK       I    between atoms: C_10  and  N_11 
REMARK    3  A    between atoms: N_11  and  C_12 
REMARK    4  A    between atoms: C_12  and  C_13 
REMARK    5  A    between atoms: C_13  and  N_14 
REMARK    6  A    between atoms: C_13  and  C_20 
ROOT
HETATM    1  C   UNL     1     -41.633  54.705 -55.114  1.00  0.00     0.160 C 
ENDROOT
BRANCH   1   2
HETATM    2  N   UNL     1     -41.743  55.931 -55.900  1.00  0.00    -0.358 N 
HETATM    3  C   UNL     1     -42.690  56.015 -56.906  1.00  0.00     0.226 C 
HETATM    4  O   UNL     1     -43.233  54.995 -57.331  1.00  0.00    -0.273 OA
HETATM    5  H   UNL     1     -41.543  56.797 -55.412  1.00  0.00     0.162 HD
BRANCH   3   6
HETATM    6  C   UNL     1     -42.996  57.406 -57.476  1.00  0.00     0.111 C 
HETATM    7  C   UNL     1     -42.459  58.563 -56.636  1.00  0.00     0.025 C 
BRANCH   6   8
HETATM    8  C   UNL     1     -44.448  57.561 -57.832  1.00  0.00     0.004 A 
HETATM    9  C   UNL     1     -45.461  57.957 -56.972  1.00  0.00     0.033 A 
HETATM   10  C   UNL     1     -45.457  58.336 -55.537  1.00  0.00     0.070 C 
HETATM   11  N   UNL     1     -46.610  57.965 -57.709  1.00  0.00    -0.282 N 
HETATM   12  H   UNL     1     -47.551  58.208 -57.410  1.00  0.00     0.189 HD
HETATM   13  N   UNL     1     -46.428  57.594 -58.980  1.00  0.00    -0.179 NA
HETATM   14  C   UNL     1     -45.120  57.339 -59.072  1.00  0.00     0.060 A 
HETATM   15  C   UNL     1     -44.585  56.890 -60.382  1.00  0.00     0.073 C 
ENDBRANCH   6   8
ENDBRANCH   3   6
ENDBRANCH   1   2
BRANCH   1  16
HETATM   16  C   UNL     1     -40.880  54.791 -53.743  1.00  0.00     0.238 C 
BRANCH  16  17
HETATM   17  N   UNL     1     -41.667  55.507 -52.637  1.00  0.00    -0.061 N 
HETATM   18  H   UNL     1     -41.334  55.057 -51.774  1.00  0.00     0.280 HD
HETATM   19  C   UNL     1     -43.169  55.360 -52.619  1.00  0.00     0.236 C 
HETATM   20  C   UNL     1     -43.682  56.757 -52.896  1.00  0.00     0.029 C 
HETATM   21  C   UNL     1     -42.679  57.637 -52.181  1.00  0.00     0.029 C 
HETATM   22  C   UNL     1     -41.343  56.977 -52.469  1.00  0.00     0.236 C 
ENDBRANCH  16  17
BRANCH  16  23
HETATM   23  C   UNL     1     -40.401  53.433 -53.237  1.00  0.00    -0.024 A 
HETATM   24  C   UNL     1     -40.198  52.333 -54.089  1.00  0.00     0.033 A 
HETATM   25  C   UNL     1     -39.786  51.101 -53.573  1.00  0.00     0.034 A 
HETATM   26 CL   UNL     1     -39.552  49.775 -54.643  1.00  0.00    -0.084 Cl
HETATM   27  C   UNL     1     -39.573  50.939 -52.210  1.00  0.00     0.024 A 
HETATM   28  C   UNL     1     -39.773  52.017 -51.350  1.00  0.00     0.002 A 
HETATM   29  C   UNL     1     -40.187  53.251 -51.857  1.00  0.00     0.009 A 
ENDBRANCH  16  23
ENDBRANCH   1  16
TORSDOF 6
ENDMDL
MODEL 5
REMARK VINA RESULT:      -7.0      2.634      3.861
REMARK  6 active torsions:
REMARK  status: ('A' for Active; 'I' for Inactive)
REMARK    1  A    between atoms: C_8  and  C_9 
REMARK    2  A    between atoms: C_9  and  C_10 
REMARK       I    between atoms: C_10  and  N_11 
REMARK    3  A    between atoms: N_11  and  C_12 
REMARK    4  A    between atoms: C_12  and  C_13 
REMARK    5  A    between atoms: C_13  and  N_14 
REMARK    6  A    between atoms: C_13  and  C_20 
ROOT
HETATM    1  C   UNL     1     -41.947  54.975 -54.839  1.00  0.00     0.160 C 
ENDROOT
BRANCH   1   2
HETATM    2  N   UNL     1     -42.359  56.251 -55.420  1.00  0.00    -0.358 N 
HETATM    3  C   UNL     1     -43.042  56.264 -56.624  1.00  0.00     0.226 C 
HETATM    4  O   UNL     1     -43.055  55.262 -57.339  1.00  0.00    -0.273 OA
HETATM    5  H   UNL     1     -42.608  56.983 -54.765  1.00  0.00     0.162 HD
BRANCH   3   6
HETATM    6  C   UNL     1     -43.737  57.571 -57.029  1.00  0.00     0.111 C 
HETATM    7  C   UNL     1     -44.775  57.414 -58.139  1.00  0.00     0.025 C 
BRANCH   6   8
HETATM    8  C   UNL     1     -42.751  58.672 -57.297  1.00  0.00     0.004 A 
HETATM    9  C   UNL     1     -42.005  58.837 -58.456  1.00  0.00     0.033 A 
HETATM   10  C   UNL     1     -41.938  58.055 -59.715  1.00  0.00     0.070 C 
HETATM   11  N   UNL     1     -41.250  59.959 -58.271  1.00  0.00    -0.282 N 
HETATM   12  H   UNL     1     -40.587  60.387 -58.911  1.00  0.00     0.189 HD
HETATM   13  N   UNL     1     -41.437  60.534 -57.079  1.00  0.00    -0.179 NA
HETATM   14  C   UNL     1     -42.341  59.762 -56.471  1.00  0.00     0.060 A 
HETATM   15  C   UNL     1     -42.769  60.133 -55.099  1.00  0.00     0.073 C 
ENDBRANCH   6   8
ENDBRANCH   3   6
ENDBRANCH   1   2
BRANCH   1  16
HETATM   16  C   UNL     1     -41.059  55.023 -53.549  1.00  0.00     0.238 C 
BRANCH  16  17
HETATM   17  N   UNL     1     -41.733  55.696 -52.346  1.00  0.00    -0.061 N 
HETATM   18  H   UNL     1     -41.313  55.221 -51.537  1.00  0.00     0.280 HD
HETATM   19  C   UNL     1     -43.225  55.539 -52.182  1.00  0.00     0.236 C 
HETATM   20  C   UNL     1     -43.768  56.941 -52.360  1.00  0.00     0.029 C 
HETATM   21  C   UNL     1     -42.701  57.804 -51.720  1.00  0.00     0.029 C 
HETATM   22  C   UNL     1     -41.399  57.163 -52.163  1.00  0.00     0.236 C 
ENDBRANCH  16  17
BRANCH  16  23
HETATM   23  C   UNL     1     -40.526  53.652 -53.140  1.00  0.00    -0.024 A 
HETATM   24  C   UNL     1     -40.365  52.595 -54.053  1.00  0.00     0.033 A 
HETATM   25  C   UNL     1     -39.900  51.349 -53.623  1.00  0.00     0.034 A 
HETATM   26 CL   UNL     1     -39.720  50.077 -54.766  1.00  0.00    -0.084 Cl
HETATM   27  C   UNL     1     -39.591  51.131 -52.286  1.00  0.00     0.024 A 
HETATM   28  C   UNL     1     -39.748  52.166 -51.366  1.00  0.00     0.002 A 
HETATM   29  C   UNL     1     -40.215  53.413 -51.788  1.00  0.00     0.009 A 
ENDBRANCH  16  23
ENDBRANCH   1  16
TORSDOF 6
ENDMDL
MODEL 6
REMARK VINA RESULT:      -6.8      4.146      6.479
REMARK  6 active torsions:
REMARK  status: ('A' for Active; 'I' for Inactive)
REMARK    1  A    between atoms: C_8  and  C_9 
REMARK    2  A    between atoms: C_9  and  C_10 
REMARK       I    between atoms: C_10  and  N_11 
REMARK    3  A    between atoms: N_11  and  C_12 
REMARK    4  A    between atoms: C_12  and  C_13 
REMARK    5  A    between atoms: C_13  and  N_14 
REMARK    6  A    between atoms: C_13  and  C_20 
ROOT
HETATM    1  C   UNL     1     -41.750  55.487 -55.676  1.00  0.00     0.160 C 
ENDROOT
BRANCH   1   2
HETATM    2  N   UNL     1     -42.461  55.650 -56.942  1.00  0.00    -0.358 N 
HETATM    3  C   UNL     1     -42.616  56.917 -57.479  1.00  0.00     0.226 C 
HETATM    4  O   UNL     1     -42.422  57.913 -56.782  1.00  0.00    -0.273 OA
HETATM    5  H   UNL     1     -42.363  54.897 -57.613  1.00  0.00     0.162 HD
BRANCH   3   6
HETATM    6  C   UNL     1     -43.065  57.015 -58.943  1.00  0.00     0.111 C 
HETATM    7  C   UNL     1     -42.482  58.205 -59.702  1.00  0.00     0.025 C 
BRANCH   6   8
HETATM    8  C   UNL     1     -44.557  56.902 -59.082  1.00  0.00     0.004 A 
HETATM    9  C   UNL     1     -45.244  55.869 -59.704  1.00  0.00     0.033 A 
HETATM   10  C   UNL     1     -44.781  54.631 -60.378  1.00  0.00     0.070 C 
HETATM   11  N   UNL     1     -46.571  56.171 -59.596  1.00  0.00    -0.282 N 
HETATM   12  H   UNL     1     -47.368  55.638 -59.933  1.00  0.00     0.189 HD
HETATM   13  N   UNL     1     -46.804  57.324 -58.962  1.00  0.00    -0.179 NA
HETATM   14  C   UNL     1     -45.591  57.786 -58.648  1.00  0.00     0.060 A 
HETATM   15  C   UNL     1     -45.501  59.080 -57.926  1.00  0.00     0.073 C 
ENDBRANCH   6   8
ENDBRANCH   3   6
ENDBRANCH   1   2
BRANCH   1  16
HETATM   16  C   UNL     1     -42.606  55.159 -54.405  1.00  0.00     0.238 C 
BRANCH  16  17
HETATM   17  N   UNL     1     -42.242  53.831 -53.728  1.00  0.00    -0.061 N 
HETATM   18  H   UNL     1     -43.072  53.244 -53.887  1.00  0.00     0.280 HD
HETATM   19  C   UNL     1     -42.020  53.827 -52.235  1.00  0.00     0.236 C 
HETATM   20  C   UNL     1     -40.555  53.482 -52.078  1.00  0.00     0.029 C 
HETATM   21  C   UNL     1     -40.313  52.499 -53.204  1.00  0.00     0.029 C 
HETATM   22  C   UNL     1     -41.094  53.079 -54.369  1.00  0.00     0.236 C 
ENDBRANCH  16  17
BRANCH  16  23
HETATM   23  C   UNL     1     -42.596  56.283 -53.372  1.00  0.00    -0.024 A 
HETATM   24  C   UNL     1     -43.749  56.685 -52.675  1.00  0.00     0.033 A 
HETATM   25  C   UNL     1     -43.695  57.740 -51.760  1.00  0.00     0.034 A 
HETATM   26 CL   UNL     1     -45.125  58.209 -50.928  1.00  0.00    -0.084 Cl
HETATM   27  C   UNL     1     -42.502  58.414 -51.524  1.00  0.00     0.024 A 
HETATM   28  C   UNL     1     -41.350  58.032 -52.209  1.00  0.00     0.002 A 
HETATM   29  C   UNL     1     -41.397  56.980 -53.128  1.00  0.00     0.009 A 
ENDBRANCH  16  23
ENDBRANCH   1  16
TORSDOF 6
ENDMDL
MODEL 7
REMARK VINA RESULT:      -6.6      2.082      3.524
REMARK  6 active torsions:
REMARK  status: ('A' for Active; 'I' for Inactive)
REMARK    1  A    between atoms: C_8  and  C_9 
REMARK    2  A    between atoms: C_9  and  C_10 
REMARK       I    between atoms: C_10  and  N_11 
REMARK    3  A    between atoms: N_11  and  C_12 
REMARK    4  A    between atoms: C_12  and  C_13 
REMARK    5  A    between atoms: C_13  and  N_14 
REMARK    6  A    between atoms: C_13  and  C_20 
ROOT
HETATM    1  C   UNL     1     -41.327  55.618 -51.947  1.00  0.00     0.160 C 
ENDROOT
BRANCH   1   2
HETATM    2  N   UNL     1     -42.373  56.456 -51.365  1.00  0.00    -0.358 N 
HETATM    3  C   UNL     1     -42.421  57.804 -51.679  1.00  0.00     0.226 C 
HETATM    4  O   UNL     1     -41.449  58.353 -52.198  1.00  0.00    -0.273 OA
HETATM    5  H   UNL     1     -43.269  56.010 -51.205  1.00  0.00     0.162 HD
BRANCH   3   6
HETATM    6  C   UNL     1     -43.702  58.568 -51.323  1.00  0.00     0.111 C 
HETATM    7  C   UNL     1     -44.962  57.704 -51.292  1.00  0.00     0.025 C 
BRANCH   6   8
HETATM    8  C   UNL     1     -43.863  59.813 -52.150  1.00  0.00     0.004 A 
HETATM    9  C   UNL     1     -43.506  61.098 -51.768  1.00  0.00     0.033 A 
HETATM   10  C   UNL     1     -42.894  61.633 -50.527  1.00  0.00     0.070 C 
HETATM   11  N   UNL     1     -43.823  61.912 -52.817  1.00  0.00    -0.282 N 
HETATM   12  H   UNL     1     -43.698  62.918 -52.895  1.00  0.00     0.189 HD
HETATM   13  N   UNL     1     -44.367  61.261 -53.849  1.00  0.00    -0.179 NA
HETATM   14  C   UNL     1     -44.405  59.984 -53.459  1.00  0.00     0.060 A 
HETATM   15  C   UNL     1     -44.972  58.983 -54.397  1.00  0.00     0.073 C 
ENDBRANCH   6   8
ENDBRANCH   3   6
ENDBRANCH   1   2
BRANCH   1  16
HETATM   16  C   UNL     1     -41.781  54.413 -52.839  1.00  0.00     0.238 C 
BRANCH  16  17
HETATM   17  N   UNL     1     -41.847  54.731 -54.339  1.00  0.00    -0.061 N 
HETATM   18  H   UNL     1     -41.450  53.892 -54.782  1.00  0.00     0.280 HD
HETATM   19  C   UNL     1     -41.034  55.891 -54.860  1.00  0.00     0.236 C 
HETATM   20  C   UNL     1     -42.069  56.888 -55.334  1.00  0.00     0.029 C 
HETATM   21  C   UNL     1     -43.163  56.003 -55.895  1.00  0.00     0.029 C 
HETATM   22  C   UNL     1     -43.246  54.855 -54.907  1.00  0.00     0.236 C 
ENDBRANCH  16  17
BRANCH  16  23
HETATM   23  C   UNL     1     -40.945  53.156 -52.616  1.00  0.00    -0.024 A 
HETATM   24  C   UNL     1     -40.628  52.260 -53.652  1.00  0.00     0.033 A 
HETATM   25  C   UNL     1     -39.883  51.106 -53.390  1.00  0.00     0.034 A 
HETATM   26 CL   UNL     1     -39.516  50.029 -54.680  1.00  0.00    -0.084 Cl
HETATM   27  C   UNL     1     -39.445  50.821 -52.103  1.00  0.00     0.024 A 
HETATM   28  C   UNL     1     -39.754  51.696 -51.063  1.00  0.00     0.002 A 
HETATM   29  C   UNL     1     -40.500  52.850 -51.315  1.00  0.00     0.009 A 
ENDBRANCH  16  23
ENDBRANCH   1  16
TORSDOF 6
ENDMDL
MODEL 8
REMARK VINA RESULT:      -6.6      2.961      5.399
REMARK  6 active torsions:
REMARK  status: ('A' for Active; 'I' for Inactive)
REMARK    1  A    between atoms: C_8  and  C_9 
REMARK    2  A    between atoms: C_9  and  C_10 
REMARK       I    between atoms: C_10  and  N_11 
REMARK    3  A    between atoms: N_11  and  C_12 
REMARK    4  A    between atoms: C_12  and  C_13 
REMARK    5  A    between atoms: C_13  and  N_14 
REMARK    6  A    between atoms: C_13  and  C_20 
ROOT
HETATM    1  C   UNL     1     -42.197  58.822 -55.554  1.00  0.00     0.160 C 
ENDROOT
BRANCH   1   2
HETATM    2  N   UNL     1     -42.524  58.911 -54.133  1.00  0.00    -0.358 N 
HETATM    3  C   UNL     1     -41.540  59.271 -53.227  1.00  0.00     0.226 C 
HETATM    4  O   UNL     1     -40.354  59.236 -53.556  1.00  0.00    -0.273 OA
HETATM    5  H   UNL     1     -43.463  59.218 -53.906  1.00  0.00     0.162 HD
BRANCH   3   6
HETATM    6  C   UNL     1     -41.989  59.671 -51.816  1.00  0.00     0.111 C 
HETATM    7  C   UNL     1     -40.868  59.681 -50.778  1.00  0.00     0.025 C 
BRANCH   6   8
HETATM    8  C   UNL     1     -43.197  58.898 -51.370  1.00  0.00     0.004 A 
HETATM    9  C   UNL     1     -44.433  59.434 -51.038  1.00  0.00     0.033 A 
HETATM   10  C   UNL     1     -44.939  60.829 -51.018  1.00  0.00     0.070 C 
HETATM   11  N   UNL     1     -45.230  58.380 -50.695  1.00  0.00    -0.282 N 
HETATM   12  H   UNL     1     -46.203  58.393 -50.401  1.00  0.00     0.189 HD
HETATM   13  N   UNL     1     -44.609  57.199 -50.768  1.00  0.00    -0.179 NA
HETATM   14  C   UNL     1     -43.370  57.495 -51.170  1.00  0.00     0.060 A 
HETATM   15  C   UNL     1     -42.407  56.379 -51.347  1.00  0.00     0.073 C 
ENDBRANCH   6   8
ENDBRANCH   3   6
ENDBRANCH   1   2
BRANCH   1  16
HETATM   16  C   UNL     1     -42.754  57.591 -56.347  1.00  0.00     0.238 C 
BRANCH  16  17
HETATM   17  N   UNL     1     -42.150  57.419 -57.747  1.00  0.00    -0.061 N 
HETATM   18  H   UNL     1     -41.254  56.948 -57.567  1.00  0.00     0.280 HD
HETATM   19  C   UNL     1     -41.808  58.660 -58.535  1.00  0.00     0.236 C 
HETATM   20  C   UNL     1     -42.750  58.620 -59.719  1.00  0.00     0.029 C 
HETATM   21  C   UNL     1     -42.845  57.141 -60.030  1.00  0.00     0.029 C 
HETATM   22  C   UNL     1     -42.914  56.484 -58.663  1.00  0.00     0.236 C 
ENDBRANCH  16  17
BRANCH  16  23
HETATM   23  C   UNL     1     -42.641  56.280 -55.573  1.00  0.00    -0.024 A 
HETATM   24  C   UNL     1     -41.456  55.525 -55.527  1.00  0.00     0.033 A 
HETATM   25  C   UNL     1     -41.411  54.315 -54.827  1.00  0.00     0.034 A 
HETATM   26 CL   UNL     1     -39.947  53.414 -54.796  1.00  0.00    -0.084 Cl
HETATM   27  C   UNL     1     -42.536  53.836 -54.168  1.00  0.00     0.024 A 
HETATM   28  C   UNL     1     -43.720  54.569 -54.206  1.00  0.00     0.002 A 
HETATM   29  C   UNL     1     -43.774  55.778 -54.905  1.00  0.00     0.009 A 
ENDBRANCH  16  23
ENDBRANCH   1  16
TORSDOF 6
ENDMDL
MODEL 9
REMARK VINA RESULT:      -6.5      2.749      4.684
REMARK  6 active torsions:
REMARK  status: ('A' for Active; 'I' for Inactive)
REMARK    1  A    between atoms: C_8  and  C_9 
REMARK    2  A    between atoms: C_9  and  C_10 
REMARK       I    between atoms: C_10  and  N_11 
REMARK    3  A    between atoms: N_11  and  C_12 
REMARK    4  A    between atoms: C_12  and  C_13 
REMARK    5  A    between atoms: C_13  and  N_14 
REMARK    6  A    between atoms: C_13  and  C_20 
ROOT
HETATM    1  C   UNL     1     -41.789  55.529 -53.223  1.00  0.00     0.160 C 
ENDROOT
BRANCH   1   2
HETATM    2  N   UNL     1     -41.616  56.363 -54.409  1.00  0.00    -0.358 N 
HETATM    3  C   UNL     1     -42.516  56.257 -55.456  1.00  0.00     0.226 C 
HETATM    4  O   UNL     1     -43.274  55.289 -55.524  1.00  0.00    -0.273 OA
HETATM    5  H   UNL     1     -41.227  57.287 -54.257  1.00  0.00     0.162 HD
BRANCH   3   6
HETATM    6  C   UNL     1     -42.497  57.361 -56.521  1.00  0.00     0.111 C 
HETATM    7  C   UNL     1     -42.272  58.767 -55.966  1.00  0.00     0.025 C 
BRANCH   6   8
HETATM    8  C   UNL     1     -43.682  57.275 -57.441  1.00  0.00     0.004 A 
HETATM    9  C   UNL     1     -44.958  57.752 -57.177  1.00  0.00     0.033 A 
HETATM   10  C   UNL     1     -45.534  58.453 -56.003  1.00  0.00     0.070 C 
HETATM   11  N   UNL     1     -45.711  57.466 -58.279  1.00  0.00    -0.282 N 
HETATM   12  H   UNL     1     -46.692  57.671 -58.444  1.00  0.00     0.189 HD
HETATM   13  N   UNL     1     -45.029  56.831 -59.237  1.00  0.00    -0.179 NA
HETATM   14  C   UNL     1     -43.796  56.700 -58.743  1.00  0.00     0.060 A 
HETATM   15  C   UNL     1     -42.776  56.017 -59.578  1.00  0.00     0.073 C 
ENDBRANCH   6   8
ENDBRANCH   3   6
ENDBRANCH   1   2
BRANCH   1  16
HETATM   16  C   UNL     1     -41.414  56.158 -51.837  1.00  0.00     0.238 C 
BRANCH  16  17
HETATM   17  N   UNL     1     -42.463  57.132 -51.284  1.00  0.00    -0.061 N 
HETATM   18  H   UNL     1     -42.316  57.093 -50.267  1.00  0.00     0.280 HD
HETATM   19  C   UNL     1     -43.921  56.810 -51.499  1.00  0.00     0.236 C 
HETATM   20  C   UNL     1     -44.418  57.916 -52.405  1.00  0.00     0.029 C 
HETATM   21  C   UNL     1     -43.643  59.125 -51.923  1.00  0.00     0.029 C 
HETATM   22  C   UNL     1     -42.250  58.585 -51.660  1.00  0.00     0.236 C 
ENDBRANCH  16  17
BRANCH  16  23
HETATM   23  C   UNL     1     -41.073  55.113 -50.779  1.00  0.00    -0.024 A 
HETATM   24  C   UNL     1     -40.747  53.784 -51.100  1.00  0.00     0.033 A 
HETATM   25  C   UNL     1     -40.471  52.856 -50.092  1.00  0.00     0.034 A 
HETATM   26 CL   UNL     1     -40.080  51.237 -50.521  1.00  0.00    -0.084 Cl
HETATM   27  C   UNL     1     -40.516  53.228 -48.754  1.00  0.00     0.024 A 
HETATM   28  C   UNL     1     -40.842  54.541 -48.417  1.00  0.00     0.002 A 
HETATM   29  C   UNL     1     -41.122  55.473 -49.419  1.00  0.00     0.009 A 
ENDBRANCH  16  23
ENDBRANCH   1  16
TORSDOF 6
ENDMDL
MODEL 10
REMARK VINA RESULT:      -6.5      3.811      6.280
REMARK  6 active torsions:
REMARK  status: ('A' for Active; 'I' for Inactive)
REMARK    1  A    between atoms: C_8  and  C_9 
REMARK    2  A    between atoms: C_9  and  C_10 
REMARK       I    between atoms: C_10  and  N_11 
REMARK    3  A    between atoms: N_11  and  C_12 
REMARK    4  A    between atoms: C_12  and  C_13 
REMARK    5  A    between atoms: C_13  and  N_14 
REMARK    6  A    between atoms: C_13  and  C_20 
ROOT
HETATM    1  C   UNL     1     -43.015  57.496 -55.093  1.00  0.00     0.160 C 
ENDROOT
BRANCH   1   2
HETATM    2  N   UNL     1     -43.409  57.399 -56.496  1.00  0.00    -0.358 N 
HETATM    3  C   UNL     1     -44.582  57.999 -56.920  1.00  0.00     0.226 C 
HETATM    4  O   UNL     1     -45.425  58.358 -56.097  1.00  0.00    -0.273 OA
HETATM    5  H   UNL     1     -42.655  57.381 -57.174  1.00  0.00     0.162 HD
BRANCH   3   6
HETATM    6  C   UNL     1     -44.791  58.158 -58.431  1.00  0.00     0.111 C 
HETATM    7  C   UNL     1     -46.112  57.593 -58.948  1.00  0.00     0.025 C 
BRANCH   6   8
HETATM    8  C   UNL     1     -43.601  57.683 -59.216  1.00  0.00     0.004 A 
HETATM    9  C   UNL     1     -42.577  58.479 -59.710  1.00  0.00     0.033 A 
HETATM   10  C   UNL     1     -42.328  59.940 -59.633  1.00  0.00     0.070 C 
HETATM   11  N   UNL     1     -41.713  57.639 -60.351  1.00  0.00    -0.282 N 
HETATM   12  H   UNL     1     -40.846  57.871 -60.830  1.00  0.00     0.189 HD
HETATM   13  N   UNL     1     -42.097  56.360 -60.324  1.00  0.00    -0.179 NA
HETATM   14  C   UNL     1     -43.246  56.368 -59.643  1.00  0.00     0.060 A 
HETATM   15  C   UNL     1     -43.946  55.075 -59.438  1.00  0.00     0.073 C 
ENDBRANCH   6   8
ENDBRANCH   3   6
ENDBRANCH   1   2
BRANCH   1  16
HETATM   16  C   UNL     1     -42.844  56.158 -54.297  1.00  0.00     0.238 C 
BRANCH  16  17
HETATM   17  N   UNL     1     -42.000  55.100 -55.020  1.00  0.00    -0.061 N 
HETATM   18  H   UNL     1     -42.099  55.350 -56.013  1.00  0.00     0.280 HD
HETATM   19  C   UNL     1     -42.425  53.655 -54.919  1.00  0.00     0.236 C 
HETATM   20  C   UNL     1     -41.302  52.990 -54.152  1.00  0.00     0.029 C 
HETATM   21  C   UNL     1     -40.071  53.717 -54.652  1.00  0.00     0.029 C 
HETATM   22  C   UNL     1     -40.513  55.166 -54.740  1.00  0.00     0.236 C 
ENDBRANCH  16  17
BRANCH  16  23
HETATM   23  C   UNL     1     -42.307  56.368 -52.884  1.00  0.00    -0.024 A 
HETATM   24  C   UNL     1     -41.469  57.443 -52.541  1.00  0.00     0.033 A 
HETATM   25  C   UNL     1     -40.979  57.575 -51.238  1.00  0.00     0.034 A 
HETATM   26 CL   UNL     1     -39.952  58.900 -50.854  1.00  0.00    -0.084 Cl
HETATM   27  C   UNL     1     -41.307  56.645 -50.259  1.00  0.00     0.024 A 
HETATM   28  C   UNL     1     -42.133  55.570 -50.582  1.00  0.00     0.002 A 
HETATM   29  C   UNL     1     -42.625  55.430 -51.883  1.00  0.00     0.009 A 
ENDBRANCH  16  23
ENDBRANCH   1  16
TORSDOF 6
ENDMDL
