MODEL 1
REMARK VINA RESULT:      -8.3      0.000      0.000
REMARK  7 active torsions:
REMARK  status: ('A' for Active; 'I' for Inactive)
REMARK       I    between atoms: C_2  and  N_3 
REMARK    1  A    between atoms: N_3  and  C_4 
REMARK    2  A    between atoms: N_9  and  C_10 
REMARK    3  A    between atoms: C_10  and  C_11 
REMARK    4  A    between atoms: C_11  and  C_12 
REMARK    5  A    between atoms: C_12  and  O_13 
REMARK    6  A    between atoms: O_13  and  C_14 
REMARK    7  A    between atoms: C_17  and  C_18 
REMARK       I    between atoms: N_30  and  C_31 
ROOT
HETATM    1  C   UNL     1     -41.413  56.286 -50.461  1.00  0.00     0.191 C 
HETATM    2  S   UNL     1     -42.682  55.747 -51.515  1.00  0.00    -0.042 SA
HETATM    3  C   UNL     1     -42.364  57.245 -52.531  1.00  0.00     0.224 A 
HETATM    4  C   UNL     1     -43.415  58.315 -52.126  1.00  0.00     0.271 A 
HETATM    5  O   UNL     1     -43.507  58.835 -51.021  1.00  0.00    -0.269 OA
HETATM    6  N   UNL     1     -44.233  58.535 -53.250  1.00  0.00    -0.314 N 
HETATM    7  C   UNL     1     -43.755  57.797 -54.353  1.00  0.00     0.047 A 
HETATM    8  C   UNL     1     -42.646  57.023 -53.984  1.00  0.00     0.019 A 
HETATM    9  C   UNL     1     -44.236  57.788 -55.650  1.00  0.00     0.030 A 
HETATM   10  C   UNL     1     -43.584  56.980 -56.588  1.00  0.00     0.002 A 
HETATM   11  C   UNL     1     -42.473  56.205 -56.220  1.00  0.00     0.001 A 
HETATM   12  C   UNL     1     -41.994  56.221 -54.909  1.00  0.00     0.013 A 
HETATM   13  N   UNL     1     -41.032  57.676 -52.116  1.00  0.00    -0.201 N 
HETATM   14  C   UNL     1     -40.393  58.755 -52.706  1.00  0.00     0.238 C 
HETATM   15  C   UNL     1     -39.082  59.158 -52.077  1.00  0.00     0.119 C 
HETATM   16  O   UNL     1     -40.846  59.367 -53.672  1.00  0.00    -0.272 OA
HETATM   17  N   UNL     1     -40.611  57.206 -50.878  1.00  0.00    -0.141 NA
ENDROOT
BRANCH   6  18
HETATM   18  C   UNL     1     -45.309  59.512 -53.365  1.00  0.00     0.134 C 
BRANCH  18  19
HETATM   19  C   UNL     1     -44.867  60.972 -53.382  1.00  0.00     0.047 C 
BRANCH  19  20
HETATM   20  C   UNL     1     -45.024  61.625 -54.750  1.00  0.00     0.177 C 
BRANCH  20  21
HETATM   21  O   UNL     1     -43.704  61.838 -55.248  1.00  0.00    -0.351 OA
BRANCH  21  22
HETATM   22  C   UNL     1     -43.326  61.153 -56.364  1.00  0.00     0.068 A 
HETATM   23  C   UNL     1     -42.065  60.627 -56.617  1.00  0.00     0.037 A 
HETATM   24  C   UNL     1     -41.815  59.934 -57.811  1.00  0.00     0.011 A 
HETATM   25  C   UNL     1     -42.818  59.749 -58.778  1.00  0.00    -0.050 A 
HETATM   26  C   UNL     1     -44.086  60.289 -58.497  1.00  0.00     0.011 A 
HETATM   27  C   UNL     1     -44.334  60.976 -57.307  1.00  0.00     0.037 A 
BRANCH  25  28
HETATM   28  C   UNL     1     -42.580  58.994 -60.096  1.00  0.00    -0.024 C 
HETATM   29  C   UNL     1     -41.743  57.704 -59.934  1.00  0.00     0.019 C 
HETATM   30  C   UNL     1     -43.935  58.585 -60.712  1.00  0.00     0.019 C 
HETATM   31  C   UNL     1     -41.825  59.906 -61.088  1.00  0.00     0.019 C 
ENDBRANCH  25  28
ENDBRANCH  21  22
ENDBRANCH  20  21
ENDBRANCH  19  20
ENDBRANCH  18  19
ENDBRANCH   6  18
BRANCH   1  32
HETATM   32  N   UNL     1     -41.387  55.656 -49.251  1.00  0.00    -0.305 N 
HETATM   33  C   UNL     1     -40.777  54.484 -48.875  1.00  0.00     0.219 C 
HETATM   34  C   UNL     1     -39.859  53.801 -49.851  1.00  0.00     0.117 C 
HETATM   35  O   UNL     1     -40.984  54.028 -47.750  1.00  0.00    -0.274 OA
HETATM   36  H   UNL     1     -41.880  56.114 -48.498  1.00  0.00     0.171 HD
ENDBRANCH   1  32
TORSDOF 7
ENDMDL
MODEL 2
REMARK VINA RESULT:      -8.3      2.494      4.595
REMARK  7 active torsions:
REMARK  status: ('A' for Active; 'I' for Inactive)
REMARK       I    between atoms: C_2  and  N_3 
REMARK    1  A    between atoms: N_3  and  C_4 
REMARK    2  A    between atoms: N_9  and  C_10 
REMARK    3  A    between atoms: C_10  and  C_11 
REMARK    4  A    between atoms: C_11  and  C_12 
REMARK    5  A    between atoms: C_12  and  O_13 
REMARK    6  A    between atoms: O_13  and  C_14 
REMARK    7  A    between atoms: C_17  and  C_18 
REMARK       I    between atoms: N_30  and  C_31 
ROOT
HETATM    1  C   UNL     1     -43.639  57.561 -51.136  1.00  0.00     0.191 C 
HETATM    2  S   UNL     1     -43.838  55.848 -51.328  1.00  0.00    -0.042 SA
HETATM    3  C   UNL     1     -42.550  55.927 -52.637  1.00  0.00     0.224 A 
HETATM    4  C   UNL     1     -43.280  55.972 -54.008  1.00  0.00     0.271 A 
HETATM    5  O   UNL     1     -44.015  56.875 -54.390  1.00  0.00    -0.269 OA
HETATM    6  N   UNL     1     -42.956  54.782 -54.687  1.00  0.00    -0.314 N 
HETATM    7  C   UNL     1     -42.022  54.034 -53.940  1.00  0.00     0.047 A 
HETATM    8  C   UNL     1     -41.741  54.671 -52.723  1.00  0.00     0.019 A 
HETATM    9  C   UNL     1     -41.405  52.845 -54.286  1.00  0.00     0.030 A 
HETATM   10  C   UNL     1     -40.492  52.291 -53.383  1.00  0.00     0.002 A 
HETATM   11  C   UNL     1     -40.210  52.927 -52.164  1.00  0.00     0.001 A 
HETATM   12  C   UNL     1     -40.835  54.127 -51.824  1.00  0.00     0.013 A 
HETATM   13  N   UNL     1     -41.876  57.199 -52.392  1.00  0.00    -0.201 N 
HETATM   14  C   UNL     1     -40.782  57.606 -53.140  1.00  0.00     0.238 C 
HETATM   15  C   UNL     1     -40.283  59.001 -52.855  1.00  0.00     0.119 C 
HETATM   16  O   UNL     1     -40.242  56.901 -53.991  1.00  0.00    -0.272 OA
HETATM   17  N   UNL     1     -42.600  58.126 -51.651  1.00  0.00    -0.141 NA
ENDROOT
BRANCH   6  18
HETATM   18  C   UNL     1     -43.350  54.419 -56.043  1.00  0.00     0.134 C 
BRANCH  18  19
HETATM   19  C   UNL     1     -42.583  55.124 -57.157  1.00  0.00     0.047 C 
BRANCH  19  20
HETATM   20  C   UNL     1     -43.408  56.192 -57.864  1.00  0.00     0.177 C 
BRANCH  20  21
HETATM   21  O   UNL     1     -42.733  56.475 -59.089  1.00  0.00    -0.351 OA
BRANCH  21  22
HETATM   22  C   UNL     1     -42.406  57.772 -59.351  1.00  0.00     0.068 A 
HETATM   23  C   UNL     1     -42.347  58.367 -60.605  1.00  0.00     0.037 A 
HETATM   24  C   UNL     1     -42.001  59.721 -60.729  1.00  0.00     0.011 A 
HETATM   25  C   UNL     1     -41.709  60.512 -59.605  1.00  0.00    -0.050 A 
HETATM   26  C   UNL     1     -41.778  59.887 -58.347  1.00  0.00     0.011 A 
HETATM   27  C   UNL     1     -42.125  58.540 -58.224  1.00  0.00     0.037 A 
BRANCH  25  28
HETATM   28  C   UNL     1     -41.328  61.999 -59.705  1.00  0.00    -0.024 C 
HETATM   29  C   UNL     1     -40.789  62.413 -61.093  1.00  0.00     0.019 C 
HETATM   30  C   UNL     1     -42.568  62.872 -59.416  1.00  0.00     0.019 C 
HETATM   31  C   UNL     1     -40.227  62.323 -58.672  1.00  0.00     0.019 C 
ENDBRANCH  25  28
ENDBRANCH  21  22
ENDBRANCH  20  21
ENDBRANCH  19  20
ENDBRANCH  18  19
ENDBRANCH   6  18
BRANCH   1  32
HETATM   32  N   UNL     1     -44.639  58.163 -50.430  1.00  0.00    -0.305 N 
HETATM   33  C   UNL     1     -45.513  59.156 -50.801  1.00  0.00     0.219 C 
HETATM   34  C   UNL     1     -45.529  59.606 -52.236  1.00  0.00     0.117 C 
HETATM   35  O   UNL     1     -46.266  59.645 -49.958  1.00  0.00    -0.274 OA
HETATM   36  H   UNL     1     -44.780  57.833 -49.486  1.00  0.00     0.171 HD
ENDBRANCH   1  32
TORSDOF 7
ENDMDL
MODEL 3
REMARK VINA RESULT:      -8.3      3.657      7.760
REMARK  7 active torsions:
REMARK  status: ('A' for Active; 'I' for Inactive)
REMARK       I    between atoms: C_2  and  N_3 
REMARK    1  A    between atoms: N_3  and  C_4 
REMARK    2  A    between atoms: N_9  and  C_10 
REMARK    3  A    between atoms: C_10  and  C_11 
REMARK    4  A    between atoms: C_11  and  C_12 
REMARK    5  A    between atoms: C_12  and  O_13 
REMARK    6  A    between atoms: O_13  and  C_14 
REMARK    7  A    between atoms: C_17  and  C_18 
REMARK       I    between atoms: N_30  and  C_31 
ROOT
HETATM    1  C   UNL     1     -44.584  57.993 -58.834  1.00  0.00     0.191 C 
HETATM    2  S   UNL     1     -45.805  58.034 -57.601  1.00  0.00    -0.042 SA
HETATM    3  C   UNL     1     -44.554  58.811 -56.501  1.00  0.00     0.224 A 
HETATM    4  C   UNL     1     -43.959  57.688 -55.606  1.00  0.00     0.271 A 
HETATM    5  O   UNL     1     -43.310  56.730 -56.009  1.00  0.00    -0.269 OA
HETATM    6  N   UNL     1     -44.335  57.975 -54.281  1.00  0.00    -0.314 N 
HETATM    7  C   UNL     1     -45.017  59.209 -54.224  1.00  0.00     0.047 A 
HETATM    8  C   UNL     1     -45.166  59.748 -55.509  1.00  0.00     0.019 A 
HETATM    9  C   UNL     1     -45.491  59.874 -53.107  1.00  0.00     0.030 A 
HETATM   10  C   UNL     1     -46.128  61.105 -53.296  1.00  0.00     0.002 A 
HETATM   11  C   UNL     1     -46.278  61.647 -54.582  1.00  0.00     0.001 A 
HETATM   12  C   UNL     1     -45.796  60.969 -55.703  1.00  0.00     0.013 A 
HETATM   13  N   UNL     1     -43.533  59.305 -57.421  1.00  0.00    -0.201 N 
HETATM   14  C   UNL     1     -42.433  60.022 -56.979  1.00  0.00     0.238 C 
HETATM   15  C   UNL     1     -41.402  60.345 -58.033  1.00  0.00     0.119 C 
HETATM   16  O   UNL     1     -42.277  60.376 -55.812  1.00  0.00    -0.272 OA
HETATM   17  N   UNL     1     -43.521  58.707 -58.676  1.00  0.00    -0.141 NA
ENDROOT
BRANCH   6  18
HETATM   18  C   UNL     1     -43.940  57.239 -53.085  1.00  0.00     0.134 C 
BRANCH  18  19
HETATM   19  C   UNL     1     -42.782  57.845 -52.299  1.00  0.00     0.047 C 
BRANCH  19  20
HETATM   20  C   UNL     1     -41.622  56.876 -52.108  1.00  0.00     0.177 C 
BRANCH  20  21
HETATM   21  O   UNL     1     -41.192  56.500 -53.417  1.00  0.00    -0.351 OA
BRANCH  21  22
HETATM   22  C   UNL     1     -40.882  55.191 -53.634  1.00  0.00     0.068 A 
HETATM   23  C   UNL     1     -40.371  54.653 -54.808  1.00  0.00     0.037 A 
HETATM   24  C   UNL     1     -40.088  53.281 -54.892  1.00  0.00     0.011 A 
HETATM   25  C   UNL     1     -40.307  52.417 -53.805  1.00  0.00    -0.050 A 
HETATM   26  C   UNL     1     -40.822  52.987 -52.627  1.00  0.00     0.011 A 
HETATM   27  C   UNL     1     -41.100  54.353 -52.545  1.00  0.00     0.037 A 
BRANCH  25  28
HETATM   28  C   UNL     1     -40.007  50.909 -53.862  1.00  0.00    -0.024 C 
HETATM   29  C   UNL     1     -38.819  50.544 -54.781  1.00  0.00     0.019 C 
HETATM   30  C   UNL     1     -39.666  50.395 -52.447  1.00  0.00     0.019 C 
HETATM   31  C   UNL     1     -41.244  50.154 -54.392  1.00  0.00     0.019 C 
ENDBRANCH  25  28
ENDBRANCH  21  22
ENDBRANCH  20  21
ENDBRANCH  19  20
ENDBRANCH  18  19
ENDBRANCH   6  18
BRANCH   1  32
HETATM   32  N   UNL     1     -44.882  57.182 -59.889  1.00  0.00    -0.305 N 
HETATM   33  C   UNL     1     -44.425  55.924 -60.197  1.00  0.00     0.219 C 
HETATM   34  C   UNL     1     -43.569  55.200 -59.195  1.00  0.00     0.117 C 
HETATM   35  O   UNL     1     -44.734  55.416 -61.275  1.00  0.00    -0.274 OA
HETATM   36  H   UNL     1     -45.551  57.543 -60.555  1.00  0.00     0.171 HD
ENDBRANCH   1  32
TORSDOF 7
ENDMDL
MODEL 4
REMARK VINA RESULT:      -8.3      3.361      4.627
REMARK  7 active torsions:
REMARK  status: ('A' for Active; 'I' for Inactive)
REMARK       I    between atoms: C_2  and  N_3 
REMARK    1  A    between atoms: N_3  and  C_4 
REMARK    2  A    between atoms: N_9  and  C_10 
REMARK    3  A    between atoms: C_10  and  C_11 
REMARK    4  A    between atoms: C_11  and  C_12 
REMARK    5  A    between atoms: C_12  and  O_13 
REMARK    6  A    between atoms: O_13  and  C_14 
REMARK    7  A    between atoms: C_17  and  C_18 
REMARK       I    between atoms: N_30  and  C_31 
ROOT
HETATM    1  C   UNL     1     -40.907  53.261 -53.820  1.00  0.00     0.191 C 
HETATM    2  S   UNL     1     -40.354  54.632 -54.730  1.00  0.00    -0.042 SA
HETATM    3  C   UNL     1     -41.798  55.554 -54.064  1.00  0.00     0.224 A 
HETATM    4  C   UNL     1     -42.911  55.524 -55.148  1.00  0.00     0.271 A 
HETATM    5  O   UNL     1     -43.481  54.516 -55.551  1.00  0.00    -0.269 OA
HETATM    6  N   UNL     1     -43.102  56.849 -55.580  1.00  0.00    -0.314 N 
HETATM    7  C   UNL     1     -42.305  57.730 -54.818  1.00  0.00     0.047 A 
HETATM    8  C   UNL     1     -41.521  57.015 -53.902  1.00  0.00     0.019 A 
HETATM    9  C   UNL     1     -42.251  59.111 -54.884  1.00  0.00     0.030 A 
HETATM   10  C   UNL     1     -41.388  59.778 -54.009  1.00  0.00     0.002 A 
HETATM   11  C   UNL     1     -40.602  59.064 -53.091  1.00  0.00     0.001 A 
HETATM   12  C   UNL     1     -40.663  57.671 -53.031  1.00  0.00     0.013 A 
HETATM   13  N   UNL     1     -42.214  54.769 -52.905  1.00  0.00    -0.201 N 
HETATM   14  C   UNL     1     -43.249  55.173 -52.078  1.00  0.00     0.238 C 
HETATM   15  C   UNL     1     -43.646  54.190 -51.005  1.00  0.00     0.119 C 
HETATM   16  O   UNL     1     -43.830  56.251 -52.195  1.00  0.00    -0.272 OA
HETATM   17  N   UNL     1     -41.787  53.446 -52.895  1.00  0.00    -0.141 NA
ENDROOT
BRANCH   6  18
HETATM   18  C   UNL     1     -44.100  57.319 -56.534  1.00  0.00     0.134 C 
BRANCH  18  19
HETATM   19  C   UNL     1     -43.729  57.149 -58.003  1.00  0.00     0.047 C 
BRANCH  19  20
HETATM   20  C   UNL     1     -42.575  58.047 -58.433  1.00  0.00     0.177 C 
BRANCH  20  21
HETATM   21  O   UNL     1     -43.103  59.370 -58.511  1.00  0.00    -0.351 OA
BRANCH  21  22
HETATM   22  C   UNL     1     -42.346  60.324 -59.123  1.00  0.00     0.068 A 
HETATM   23  C   UNL     1     -42.329  60.612 -60.482  1.00  0.00     0.037 A 
HETATM   24  C   UNL     1     -41.502  61.631 -60.978  1.00  0.00     0.011 A 
HETATM   25  C   UNL     1     -40.676  62.387 -60.129  1.00  0.00    -0.050 A 
HETATM   26  C   UNL     1     -40.713  62.078 -58.757  1.00  0.00     0.011 A 
HETATM   27  C   UNL     1     -41.539  61.065 -58.264  1.00  0.00     0.037 A 
BRANCH  25  28
HETATM   28  C   UNL     1     -39.759  63.511 -60.639  1.00  0.00    -0.024 C 
HETATM   29  C   UNL     1     -38.638  63.899 -59.648  1.00  0.00     0.019 C 
HETATM   30  C   UNL     1     -39.076  63.068 -61.950  1.00  0.00     0.019 C 
HETATM   31  C   UNL     1     -40.594  64.782 -60.905  1.00  0.00     0.019 C 
ENDBRANCH  25  28
ENDBRANCH  21  22
ENDBRANCH  20  21
ENDBRANCH  19  20
ENDBRANCH  18  19
ENDBRANCH   6  18
BRANCH   1  32
HETATM   32  N   UNL     1     -40.330  52.080 -54.184  1.00  0.00    -0.305 N 
HETATM   33  C   UNL     1     -39.590  51.190 -53.444  1.00  0.00     0.219 C 
HETATM   34  C   UNL     1     -39.471  51.405 -51.960  1.00  0.00     0.117 C 
HETATM   35  O   UNL     1     -39.054  50.234 -54.006  1.00  0.00    -0.274 OA
HETATM   36  H   UNL     1     -40.465  51.794 -55.143  1.00  0.00     0.171 HD
ENDBRANCH   1  32
TORSDOF 7
ENDMDL
MODEL 5
REMARK VINA RESULT:      -8.2      3.374      7.929
REMARK  7 active torsions:
REMARK  status: ('A' for Active; 'I' for Inactive)
REMARK       I    between atoms: C_2  and  N_3 
REMARK    1  A    between atoms: N_3  and  C_4 
REMARK    2  A    between atoms: N_9  and  C_10 
REMARK    3  A    between atoms: C_10  and  C_11 
REMARK    4  A    between atoms: C_11  and  C_12 
REMARK    5  A    between atoms: C_12  and  O_13 
REMARK    6  A    between atoms: O_13  and  C_14 
REMARK    7  A    between atoms: C_17  and  C_18 
REMARK       I    between atoms: N_30  and  C_31 
ROOT
HETATM    1  C   UNL     1     -42.680  59.121 -60.124  1.00  0.00     0.191 C 
HETATM    2  S   UNL     1     -41.881  58.614 -58.669  1.00  0.00    -0.042 SA
HETATM    3  C   UNL     1     -43.534  58.137 -58.023  1.00  0.00     0.224 A 
HETATM    4  C   UNL     1     -44.033  59.297 -57.117  1.00  0.00     0.271 A 
HETATM    5  O   UNL     1     -44.283  60.435 -57.496  1.00  0.00    -0.269 OA
HETATM    6  N   UNL     1     -44.108  58.793 -55.805  1.00  0.00    -0.314 N 
HETATM    7  C   UNL     1     -43.807  57.414 -55.795  1.00  0.00     0.047 A 
HETATM    8  C   UNL     1     -43.469  56.975 -57.083  1.00  0.00     0.019 A 
HETATM    9  C   UNL     1     -43.833  56.540 -54.723  1.00  0.00     0.030 A 
HETATM   10  C   UNL     1     -43.509  55.200 -54.960  1.00  0.00     0.002 A 
HETATM   11  C   UNL     1     -43.171  54.758 -56.248  1.00  0.00     0.001 A 
HETATM   12  C   UNL     1     -43.148  55.647 -57.325  1.00  0.00     0.013 A 
HETATM   13  N   UNL     1     -44.368  58.048 -59.219  1.00  0.00    -0.201 N 
HETATM   14  C   UNL     1     -45.692  57.644 -59.161  1.00  0.00     0.238 C 
HETATM   15  C   UNL     1     -46.455  57.733 -60.459  1.00  0.00     0.119 C 
HETATM   16  O   UNL     1     -46.236  57.245 -58.133  1.00  0.00    -0.272 OA
HETATM   17  N   UNL     1     -43.894  58.736 -60.330  1.00  0.00    -0.141 NA
ENDROOT
BRANCH   6  18
HETATM   18  C   UNL     1     -44.600  59.498 -54.628  1.00  0.00     0.134 C 
BRANCH  18  19
HETATM   19  C   UNL     1     -43.704  60.623 -54.119  1.00  0.00     0.047 C 
BRANCH  19  20
HETATM   20  C   UNL     1     -42.223  60.357 -54.357  1.00  0.00     0.177 C 
BRANCH  20  21
HETATM   21  O   UNL     1     -41.654  60.078 -53.078  1.00  0.00    -0.351 OA
BRANCH  21  22
HETATM   22  C   UNL     1     -41.624  58.781 -52.664  1.00  0.00     0.068 A 
HETATM   23  C   UNL     1     -42.316  58.247 -51.584  1.00  0.00     0.037 A 
HETATM   24  C   UNL     1     -42.199  56.884 -51.272  1.00  0.00     0.011 A 
HETATM   25  C   UNL     1     -41.390  56.023 -52.033  1.00  0.00    -0.050 A 
HETATM   26  C   UNL     1     -40.701  56.586 -53.123  1.00  0.00     0.011 A 
HETATM   27  C   UNL     1     -40.822  57.943 -53.433  1.00  0.00     0.037 A 
BRANCH  25  28
HETATM   28  C   UNL     1     -41.239  54.524 -51.721  1.00  0.00    -0.024 C 
HETATM   29  C   UNL     1     -40.288  54.226 -50.540  1.00  0.00     0.019 C 
HETATM   30  C   UNL     1     -42.617  53.929 -51.360  1.00  0.00     0.019 C 
HETATM   31  C   UNL     1     -40.676  53.791 -52.958  1.00  0.00     0.019 C 
ENDBRANCH  25  28
ENDBRANCH  21  22
ENDBRANCH  20  21
ENDBRANCH  19  20
ENDBRANCH  18  19
ENDBRANCH   6  18
BRANCH   1  32
HETATM   32  N   UNL     1     -41.915  59.904 -60.938  1.00  0.00    -0.305 N 
HETATM   33  C   UNL     1     -41.802  61.272 -61.001  1.00  0.00     0.219 C 
HETATM   34  C   UNL     1     -42.486  62.104 -59.953  1.00  0.00     0.117 C 
HETATM   35  O   UNL     1     -41.137  61.782 -61.904  1.00  0.00    -0.274 OA
HETATM   36  H   UNL     1     -41.324  59.418 -61.598  1.00  0.00     0.171 HD
ENDBRANCH   1  32
TORSDOF 7
ENDMDL
MODEL 6
REMARK VINA RESULT:      -8.0     17.956     21.951
REMARK  7 active torsions:
REMARK  status: ('A' for Active; 'I' for Inactive)
REMARK       I    between atoms: C_2  and  N_3 
REMARK    1  A    between atoms: N_3  and  C_4 
REMARK    2  A    between atoms: N_9  and  C_10 
REMARK    3  A    between atoms: C_10  and  C_11 
REMARK    4  A    between atoms: C_11  and  C_12 
REMARK    5  A    between atoms: C_12  and  O_13 
REMARK    6  A    between atoms: O_13  and  C_14 
REMARK    7  A    between atoms: C_17  and  C_18 
REMARK       I    between atoms: N_30  and  C_31 
ROOT
HETATM    1  C   UNL     1     -36.268  41.426 -57.785  1.00  0.00     0.191 C 
HETATM    2  S   UNL     1     -34.985  42.095 -56.827  1.00  0.00    -0.042 SA
HETATM    3  C   UNL     1     -35.182  40.656 -55.703  1.00  0.00     0.224 A 
HETATM    4  C   UNL     1     -36.059  41.117 -54.505  1.00  0.00     0.271 A 
HETATM    5  O   UNL     1     -37.227  41.479 -54.580  1.00  0.00    -0.269 OA
HETATM    6  N   UNL     1     -35.248  41.063 -53.356  1.00  0.00    -0.314 N 
HETATM    7  C   UNL     1     -33.984  40.523 -53.676  1.00  0.00     0.047 A 
HETATM    8  C   UNL     1     -33.897  40.257 -55.049  1.00  0.00     0.019 A 
HETATM    9  C   UNL     1     -32.932  40.244 -52.823  1.00  0.00     0.030 A 
HETATM   10  C   UNL     1     -31.770  39.690 -53.371  1.00  0.00     0.002 A 
HETATM   11  C   UNL     1     -31.680  39.423 -54.746  1.00  0.00     0.001 A 
HETATM   12  C   UNL     1     -32.748  39.707 -55.599  1.00  0.00     0.013 A 
HETATM   13  N   UNL     1     -35.914  39.679 -56.504  1.00  0.00    -0.201 N 
HETATM   14  C   UNL     1     -36.208  38.412 -56.028  1.00  0.00     0.238 C 
HETATM   15  C   UNL     1     -37.084  37.569 -56.922  1.00  0.00     0.119 C 
HETATM   16  O   UNL     1     -35.805  37.981 -54.949  1.00  0.00    -0.272 OA
HETATM   17  N   UNL     1     -36.612  40.199 -57.588  1.00  0.00    -0.141 NA
ENDROOT
BRANCH   6  18
HETATM   18  C   UNL     1     -35.663  41.332 -51.984  1.00  0.00     0.134 C 
BRANCH  18  19
HETATM   19  C   UNL     1     -36.424  40.202 -51.299  1.00  0.00     0.047 C 
BRANCH  19  20
HETATM   20  C   UNL     1     -35.867  39.857 -49.923  1.00  0.00     0.177 C 
BRANCH  20  21
HETATM   21  O   UNL     1     -34.775  38.965 -50.144  1.00  0.00    -0.351 OA
BRANCH  21  22
HETATM   22  C   UNL     1     -33.724  39.016 -49.279  1.00  0.00     0.068 A 
HETATM   23  C   UNL     1     -32.628  39.865 -49.366  1.00  0.00     0.037 A 
HETATM   24  C   UNL     1     -31.616  39.816 -48.395  1.00  0.00     0.011 A 
HETATM   25  C   UNL     1     -31.677  38.921 -47.314  1.00  0.00    -0.050 A 
HETATM   26  C   UNL     1     -32.798  38.074 -47.246  1.00  0.00     0.011 A 
HETATM   27  C   UNL     1     -33.806  38.126 -48.212  1.00  0.00     0.037 A 
BRANCH  25  28
HETATM   28  C   UNL     1     -30.587  38.841 -46.232  1.00  0.00    -0.024 C 
HETATM   29  C   UNL     1     -31.090  39.193 -44.813  1.00  0.00     0.019 C 
HETATM   30  C   UNL     1     -30.019  37.407 -46.173  1.00  0.00     0.019 C 
HETATM   31  C   UNL     1     -29.447  39.826 -46.570  1.00  0.00     0.019 C 
ENDBRANCH  25  28
ENDBRANCH  21  22
ENDBRANCH  20  21
ENDBRANCH  19  20
ENDBRANCH  18  19
ENDBRANCH   6  18
BRANCH   1  32
HETATM   32  N   UNL     1     -36.803  42.297 -58.689  1.00  0.00    -0.305 N 
HETATM   33  C   UNL     1     -37.267  42.077 -59.963  1.00  0.00     0.219 C 
HETATM   34  C   UNL     1     -37.368  40.662 -60.463  1.00  0.00     0.117 C 
HETATM   35  O   UNL     1     -37.600  43.037 -60.659  1.00  0.00    -0.274 OA
HETATM   36  H   UNL     1     -36.888  43.257 -58.388  1.00  0.00     0.171 HD
ENDBRANCH   1  32
TORSDOF 7
ENDMDL
MODEL 7
REMARK VINA RESULT:      -7.9      3.184      6.357
REMARK  7 active torsions:
REMARK  status: ('A' for Active; 'I' for Inactive)
REMARK       I    between atoms: C_2  and  N_3 
REMARK    1  A    between atoms: N_3  and  C_4 
REMARK    2  A    between atoms: N_9  and  C_10 
REMARK    3  A    between atoms: C_10  and  C_11 
REMARK    4  A    between atoms: C_11  and  C_12 
REMARK    5  A    between atoms: C_12  and  O_13 
REMARK    6  A    between atoms: O_13  and  C_14 
REMARK    7  A    between atoms: C_17  and  C_18 
REMARK       I    between atoms: N_30  and  C_31 
ROOT
HETATM    1  C   UNL     1     -41.486  56.400 -50.575  1.00  0.00     0.191 C 
HETATM    2  S   UNL     1     -42.745  55.862 -51.641  1.00  0.00    -0.042 SA
HETATM    3  C   UNL     1     -42.393  57.341 -52.673  1.00  0.00     0.224 A 
HETATM    4  C   UNL     1     -43.438  58.429 -52.299  1.00  0.00     0.271 A 
HETATM    5  O   UNL     1     -43.541  58.965 -51.202  1.00  0.00    -0.269 OA
HETATM    6  N   UNL     1     -44.236  58.643 -53.439  1.00  0.00    -0.314 N 
HETATM    7  C   UNL     1     -43.749  57.884 -54.524  1.00  0.00     0.047 A 
HETATM    8  C   UNL     1     -42.655  57.103 -54.127  1.00  0.00     0.019 A 
HETATM    9  C   UNL     1     -44.209  57.863 -55.828  1.00  0.00     0.030 A 
HETATM   10  C   UNL     1     -43.552  57.035 -56.744  1.00  0.00     0.002 A 
HETATM   11  C   UNL     1     -42.456  56.252 -56.348  1.00  0.00     0.001 A 
HETATM   12  C   UNL     1     -41.997  56.281 -55.030  1.00  0.00     0.013 A 
HETATM   13  N   UNL     1     -41.063  57.764 -52.243  1.00  0.00    -0.201 N 
HETATM   14  C   UNL     1     -40.402  58.826 -52.837  1.00  0.00     0.238 C 
HETATM   15  C   UNL     1     -39.097  59.223 -52.193  1.00  0.00     0.119 C 
HETATM   16  O   UNL     1     -40.833  59.431 -53.818  1.00  0.00    -0.272 OA
HETATM   17  N   UNL     1     -40.666  57.305 -50.992  1.00  0.00    -0.141 NA
ENDROOT
BRANCH   6  18
HETATM   18  C   UNL     1     -45.298  59.631 -53.584  1.00  0.00     0.134 C 
BRANCH  18  19
HETATM   19  C   UNL     1     -44.831  61.059 -53.844  1.00  0.00     0.047 C 
BRANCH  19  20
HETATM   20  C   UNL     1     -45.490  62.078 -52.922  1.00  0.00     0.177 C 
BRANCH  20  21
HETATM   21  O   UNL     1     -44.451  62.603 -52.097  1.00  0.00    -0.351 OA
BRANCH  21  22
HETATM   22  C   UNL     1     -44.640  62.587 -50.747  1.00  0.00     0.068 A 
HETATM   23  C   UNL     1     -44.027  63.423 -49.822  1.00  0.00     0.037 A 
HETATM   24  C   UNL     1     -44.322  63.302 -48.456  1.00  0.00     0.011 A 
HETATM   25  C   UNL     1     -45.235  62.345 -47.983  1.00  0.00    -0.050 A 
HETATM   26  C   UNL     1     -45.844  61.512 -48.939  1.00  0.00     0.011 A 
HETATM   27  C   UNL     1     -45.552  61.636 -50.299  1.00  0.00     0.037 A 
BRANCH  25  28
HETATM   28  C   UNL     1     -45.582  62.184 -46.493  1.00  0.00    -0.024 C 
HETATM   29  C   UNL     1     -47.061  61.818 -46.233  1.00  0.00     0.019 C 
HETATM   30  C   UNL     1     -44.718  61.063 -45.877  1.00  0.00     0.019 C 
HETATM   31  C   UNL     1     -45.301  63.508 -45.749  1.00  0.00     0.019 C 
ENDBRANCH  25  28
ENDBRANCH  21  22
ENDBRANCH  20  21
ENDBRANCH  19  20
ENDBRANCH  18  19
ENDBRANCH   6  18
BRANCH   1  32
HETATM   32  N   UNL     1     -41.486  55.787 -49.356  1.00  0.00    -0.305 N 
HETATM   33  C   UNL     1     -40.809  54.671 -48.926  1.00  0.00     0.219 C 
HETATM   34  C   UNL     1     -39.780  54.055 -49.832  1.00  0.00     0.117 C 
HETATM   35  O   UNL     1     -41.050  54.211 -47.809  1.00  0.00    -0.274 OA
HETATM   36  H   UNL     1     -42.061  56.211 -48.643  1.00  0.00     0.171 HD
ENDBRANCH   1  32
TORSDOF 7
ENDMDL
MODEL 8
REMARK VINA RESULT:      -7.9      3.712      7.557
REMARK  7 active torsions:
REMARK  status: ('A' for Active; 'I' for Inactive)
REMARK       I    between atoms: C_2  and  N_3 
REMARK    1  A    between atoms: N_3  and  C_4 
REMARK    2  A    between atoms: N_9  and  C_10 
REMARK    3  A    between atoms: C_10  and  C_11 
REMARK    4  A    between atoms: C_11  and  C_12 
REMARK    5  A    between atoms: C_12  and  O_13 
REMARK    6  A    between atoms: O_13  and  C_14 
REMARK    7  A    between atoms: C_17  and  C_18 
REMARK       I    between atoms: N_30  and  C_31 
ROOT
HETATM    1  C   UNL     1     -44.985  62.729 -50.407  1.00  0.00     0.191 C 
HETATM    2  S   UNL     1     -44.541  61.235 -49.644  1.00  0.00    -0.042 SA
HETATM    3  C   UNL     1     -43.764  60.745 -51.235  1.00  0.00     0.224 A 
HETATM    4  C   UNL     1     -44.777  59.838 -51.989  1.00  0.00     0.271 A 
HETATM    5  O   UNL     1     -45.876  60.192 -52.399  1.00  0.00    -0.269 OA
HETATM    6  N   UNL     1     -44.199  58.558 -52.074  1.00  0.00    -0.314 N 
HETATM    7  C   UNL     1     -42.890  58.577 -51.547  1.00  0.00     0.047 A 
HETATM    8  C   UNL     1     -42.581  59.849 -51.045  1.00  0.00     0.019 A 
HETATM    9  C   UNL     1     -41.969  57.546 -51.504  1.00  0.00     0.030 A 
HETATM   10  C   UNL     1     -40.715  57.808 -50.942  1.00  0.00     0.002 A 
HETATM   11  C   UNL     1     -40.403  59.081 -50.439  1.00  0.00     0.001 A 
HETATM   12  C   UNL     1     -41.339  60.116 -50.488  1.00  0.00     0.013 A 
HETATM   13  N   UNL     1     -43.601  62.008 -51.952  1.00  0.00    -0.201 N 
HETATM   14  C   UNL     1     -42.982  62.074 -53.189  1.00  0.00     0.238 C 
HETATM   15  C   UNL     1     -43.011  63.426 -53.858  1.00  0.00     0.119 C 
HETATM   16  O   UNL     1     -42.445  61.110 -53.733  1.00  0.00    -0.272 OA
HETATM   17  N   UNL     1     -44.415  63.048 -51.520  1.00  0.00    -0.141 NA
ENDROOT
BRANCH   6  18
HETATM   18  C   UNL     1     -44.750  57.398 -52.764  1.00  0.00     0.134 C 
BRANCH  18  19
HETATM   19  C   UNL     1     -44.705  57.462 -54.288  1.00  0.00     0.047 C 
BRANCH  19  20
HETATM   20  C   UNL     1     -43.564  56.646 -54.883  1.00  0.00     0.177 C 
BRANCH  20  21
HETATM   21  O   UNL     1     -43.822  55.285 -54.539  1.00  0.00    -0.351 OA
BRANCH  21  22
HETATM   22  C   UNL     1     -43.017  54.700 -53.609  1.00  0.00     0.068 A 
HETATM   23  C   UNL     1     -43.396  54.286 -52.338  1.00  0.00     0.037 A 
HETATM   24  C   UNL     1     -42.460  53.687 -51.481  1.00  0.00     0.011 A 
HETATM   25  C   UNL     1     -41.126  53.486 -51.874  1.00  0.00    -0.050 A 
HETATM   26  C   UNL     1     -40.767  53.912 -53.165  1.00  0.00     0.011 A 
HETATM   27  C   UNL     1     -41.701  54.505 -54.018  1.00  0.00     0.037 A 
BRANCH  25  28
HETATM   28  C   UNL     1     -40.075  52.833 -50.960  1.00  0.00    -0.024 C 
HETATM   29  C   UNL     1     -40.679  51.929 -49.862  1.00  0.00     0.019 C 
HETATM   30  C   UNL     1     -39.128  51.954 -51.806  1.00  0.00     0.019 C 
HETATM   31  C   UNL     1     -39.251  53.929 -50.250  1.00  0.00     0.019 C 
ENDBRANCH  25  28
ENDBRANCH  21  22
ENDBRANCH  20  21
ENDBRANCH  19  20
ENDBRANCH  18  19
ENDBRANCH   6  18
BRANCH   1  32
HETATM   32  N   UNL     1     -45.924  63.446 -49.727  1.00  0.00    -0.305 N 
HETATM   33  C   UNL     1     -45.784  64.313 -48.670  1.00  0.00     0.219 C 
HETATM   34  C   UNL     1     -44.399  64.694 -48.226  1.00  0.00     0.117 C 
HETATM   35  O   UNL     1     -46.789  64.765 -48.121  1.00  0.00    -0.274 OA
HETATM   36  H   UNL     1     -46.879  63.344 -50.042  1.00  0.00     0.171 HD
ENDBRANCH   1  32
TORSDOF 7
ENDMDL
MODEL 9
REMARK VINA RESULT:      -7.4      3.830      6.558
REMARK  7 active torsions:
REMARK  status: ('A' for Active; 'I' for Inactive)
REMARK       I    between atoms: C_2  and  N_3 
REMARK    1  A    between atoms: N_3  and  C_4 
REMARK    2  A    between atoms: N_9  and  C_10 
REMARK    3  A    between atoms: C_10  and  C_11 
REMARK    4  A    between atoms: C_11  and  C_12 
REMARK    5  A    between atoms: C_12  and  O_13 
REMARK    6  A    between atoms: O_13  and  C_14 
REMARK    7  A    between atoms: C_17  and  C_18 
REMARK       I    between atoms: N_30  and  C_31 
ROOT
HETATM    1  C   UNL     1     -42.601  55.963 -57.072  1.00  0.00     0.191 C 
HETATM    2  S   UNL     1     -42.906  57.649 -56.793  1.00  0.00    -0.042 SA
HETATM    3  C   UNL     1     -43.818  57.665 -58.388  1.00  0.00     0.224 A 
HETATM    4  C   UNL     1     -42.850  58.216 -59.473  1.00  0.00     0.271 A 
HETATM    5  O   UNL     1     -41.812  57.676 -59.837  1.00  0.00    -0.269 OA
HETATM    6  N   UNL     1     -43.382  59.441 -59.915  1.00  0.00    -0.314 N 
HETATM    7  C   UNL     1     -44.631  59.680 -59.304  1.00  0.00     0.047 A 
HETATM    8  C   UNL     1     -44.939  58.655 -58.399  1.00  0.00     0.019 A 
HETATM    9  C   UNL     1     -45.501  60.734 -59.518  1.00  0.00     0.030 A 
HETATM   10  C   UNL     1     -46.702  60.751 -58.801  1.00  0.00     0.002 A 
HETATM   11  C   UNL     1     -47.013  59.725 -57.894  1.00  0.00     0.001 A 
HETATM   12  C   UNL     1     -46.129  58.665 -57.685  1.00  0.00     0.013 A 
HETATM   13  N   UNL     1     -44.102  56.256 -58.647  1.00  0.00    -0.201 N 
HETATM   14  C   UNL     1     -44.844  55.846 -59.743  1.00  0.00     0.238 C 
HETATM   15  C   UNL     1     -44.935  54.354 -59.945  1.00  0.00     0.119 C 
HETATM   16  O   UNL     1     -45.393  56.625 -60.521  1.00  0.00    -0.272 OA
HETATM   17  N   UNL     1     -43.291  55.350 -57.973  1.00  0.00    -0.141 NA
ENDROOT
BRANCH   6  18
HETATM   18  C   UNL     1     -42.856  60.283 -60.983  1.00  0.00     0.134 C 
BRANCH  18  19
HETATM   19  C   UNL     1     -41.640  61.126 -60.611  1.00  0.00     0.047 C 
BRANCH  19  20
HETATM   20  C   UNL     1     -41.993  62.574 -60.298  1.00  0.00     0.177 C 
BRANCH  20  21
HETATM   21  O   UNL     1     -41.617  62.794 -58.938  1.00  0.00    -0.351 OA
BRANCH  21  22
HETATM   22  C   UNL     1     -42.572  62.633 -57.979  1.00  0.00     0.068 A 
HETATM   23  C   UNL     1     -43.709  63.413 -57.814  1.00  0.00     0.037 A 
HETATM   24  C   UNL     1     -44.617  63.129 -56.782  1.00  0.00     0.011 A 
HETATM   25  C   UNL     1     -44.412  62.059 -55.895  1.00  0.00    -0.050 A 
HETATM   26  C   UNL     1     -43.254  61.282 -56.085  1.00  0.00     0.011 A 
HETATM   27  C   UNL     1     -42.353  61.565 -57.114  1.00  0.00     0.037 A 
BRANCH  25  28
HETATM   28  C   UNL     1     -45.386  61.718 -54.755  1.00  0.00    -0.024 C 
HETATM   29  C   UNL     1     -45.060  62.430 -53.423  1.00  0.00     0.019 C 
HETATM   30  C   UNL     1     -46.818  62.132 -55.157  1.00  0.00     0.019 C 
HETATM   31  C   UNL     1     -45.355  60.199 -54.482  1.00  0.00     0.019 C 
ENDBRANCH  25  28
ENDBRANCH  21  22
ENDBRANCH  20  21
ENDBRANCH  19  20
ENDBRANCH  18  19
ENDBRANCH   6  18
BRANCH   1  32
HETATM   32  N   UNL     1     -41.627  55.433 -56.277  1.00  0.00    -0.305 N 
HETATM   33  C   UNL     1     -41.722  54.806 -55.058  1.00  0.00     0.219 C 
HETATM   34  C   UNL     1     -43.087  54.490 -54.511  1.00  0.00     0.117 C 
HETATM   35  O   UNL     1     -40.694  54.509 -54.449  1.00  0.00    -0.274 OA
HETATM   36  H   UNL     1     -40.682  55.492 -56.629  1.00  0.00     0.171 HD
ENDBRANCH   1  32
TORSDOF 7
ENDMDL
MODEL 10
REMARK VINA RESULT:      -7.3      4.743      7.951
REMARK  7 active torsions:
REMARK  status: ('A' for Active; 'I' for Inactive)
REMARK       I    between atoms: C_2  and  N_3 
REMARK    1  A    between atoms: N_3  and  C_4 
REMARK    2  A    between atoms: N_9  and  C_10 
REMARK    3  A    between atoms: C_10  and  C_11 
REMARK    4  A    between atoms: C_11  and  C_12 
REMARK    5  A    between atoms: C_12  and  O_13 
REMARK    6  A    between atoms: O_13  and  C_14 
REMARK    7  A    between atoms: C_17  and  C_18 
REMARK       I    between atoms: N_30  and  C_31 
ROOT
HETATM    1  C   UNL     1     -41.517  56.547 -50.536  1.00  0.00     0.191 C 
HETATM    2  S   UNL     1     -43.124  56.439 -51.184  1.00  0.00    -0.042 SA
HETATM    3  C   UNL     1     -42.719  57.906 -52.215  1.00  0.00     0.224 A 
HETATM    4  C   UNL     1     -43.299  59.155 -51.495  1.00  0.00     0.271 A 
HETATM    5  O   UNL     1     -42.942  59.572 -50.399  1.00  0.00    -0.269 OA
HETATM    6  N   UNL     1     -44.309  59.677 -52.325  1.00  0.00    -0.314 N 
HETATM    7  C   UNL     1     -44.366  58.955 -53.536  1.00  0.00     0.047 A 
HETATM    8  C   UNL     1     -43.441  57.903 -53.525  1.00  0.00     0.019 A 
HETATM    9  C   UNL     1     -45.172  59.190 -54.636  1.00  0.00     0.030 A 
HETATM   10  C   UNL     1     -45.039  58.344 -55.741  1.00  0.00     0.002 A 
HETATM   11  C   UNL     1     -44.113  57.289 -55.732  1.00  0.00     0.001 A 
HETATM   12  C   UNL     1     -43.303  57.060 -54.619  1.00  0.00     0.013 A 
HETATM   13  N   UNL     1     -41.260  57.957 -52.198  1.00  0.00    -0.201 N 
HETATM   14  C   UNL     1     -40.551  58.900 -52.924  1.00  0.00     0.238 C 
HETATM   15  C   UNL     1     -39.059  58.908 -52.698  1.00  0.00     0.119 C 
HETATM   16  O   UNL     1     -41.077  59.695 -53.701  1.00  0.00    -0.272 OA
HETATM   17  N   UNL     1     -40.650  57.279 -51.148  1.00  0.00    -0.141 NA
ENDROOT
BRANCH   6  18
HETATM   18  C   UNL     1     -45.081  60.893 -52.098  1.00  0.00     0.134 C 
BRANCH  18  19
HETATM   19  C   UNL     1     -45.901  60.915 -50.812  1.00  0.00     0.047 C 
BRANCH  19  20
HETATM   20  C   UNL     1     -46.082  62.318 -50.246  1.00  0.00     0.177 C 
BRANCH  20  21
HETATM   21  O   UNL     1     -46.917  62.183 -49.096  1.00  0.00    -0.351 OA
BRANCH  21  22
HETATM   22  C   UNL     1     -46.446  62.655 -47.908  1.00  0.00     0.068 A 
HETATM   23  C   UNL     1     -46.634  63.935 -47.400  1.00  0.00     0.037 A 
HETATM   24  C   UNL     1     -46.096  64.286 -46.153  1.00  0.00     0.011 A 
HETATM   25  C   UNL     1     -45.362  63.368 -45.383  1.00  0.00    -0.050 A 
HETATM   26  C   UNL     1     -45.188  62.079 -45.917  1.00  0.00     0.011 A 
HETATM   27  C   UNL     1     -45.725  61.730 -47.158  1.00  0.00     0.037 A 
BRANCH  25  28
HETATM   28  C   UNL     1     -44.760  63.719 -44.012  1.00  0.00    -0.024 C 
HETATM   29  C   UNL     1     -44.124  62.514 -43.283  1.00  0.00     0.019 C 
HETATM   30  C   UNL     1     -43.655  64.782 -44.188  1.00  0.00     0.019 C 
HETATM   31  C   UNL     1     -45.863  64.281 -43.089  1.00  0.00     0.019 C 
ENDBRANCH  25  28
ENDBRANCH  21  22
ENDBRANCH  20  21
ENDBRANCH  19  20
ENDBRANCH  18  19
ENDBRANCH   6  18
BRANCH   1  32
HETATM   32  N   UNL     1     -41.323  55.814 -49.401  1.00  0.00    -0.305 N 
HETATM   33  C   UNL     1     -41.049  54.477 -49.246  1.00  0.00     0.219 C 
HETATM   34  C   UNL     1     -40.763  53.650 -50.469  1.00  0.00     0.117 C 
HETATM   35  O   UNL     1     -41.031  53.991 -48.114  1.00  0.00    -0.274 OA
HETATM   36  H   UNL     1     -41.375  56.320 -48.529  1.00  0.00     0.171 HD
ENDBRANCH   1  32
TORSDOF 7
ENDMDL
