MODEL 1
REMARK VINA RESULT:      -7.9      0.000      0.000
REMARK  8 active torsions:
REMARK  status: ('A' for Active; 'I' for Inactive)
REMARK    1  A    between atoms: C_5  and  C_6 
REMARK       I    between atoms: C_6  and  N_7 
REMARK    2  A    between atoms: N_7  and  C_8 
REMARK    3  A    between atoms: C_8  and  N_9 
REMARK    4  A    between atoms: C_8  and  C_25 
REMARK    5  A    between atoms: C_8  and  C_29 
REMARK    6  A    between atoms: N_9  and  C_10 
REMARK    7  A    between atoms: C_20  and  C_21 
REMARK    8  A    between atoms: C_21  and  O_22 
ROOT
HETATM    1  C   UNL     1     -42.032  57.061 -52.589  1.00  0.00     0.307 C 
ENDROOT
BRANCH   1   2
HETATM    2  N   UNL     1     -41.418  55.759 -52.916  1.00  0.00    -0.315 N 
HETATM    3  C   UNL     1     -42.039  54.569 -52.642  1.00  0.00     0.254 C 
HETATM    4  O   UNL     1     -43.164  54.503 -52.175  1.00  0.00    -0.268 OA
HETATM    5  H   UNL     1     -40.419  55.759 -53.054  1.00  0.00     0.165 HD
BRANCH   3   6
HETATM    6  C   UNL     1     -41.245  53.350 -52.924  1.00  0.00     0.032 A 
HETATM    7  C   UNL     1     -40.371  52.822 -51.965  1.00  0.00     0.017 A 
HETATM    8  C   UNL     1     -39.629  51.676 -52.257  1.00  0.00     0.007 A 
HETATM    9  C   UNL     1     -39.744  51.057 -53.508  1.00  0.00    -0.062 A 
HETATM   10  C   UNL     1     -38.967  49.810 -53.816  1.00  0.00     0.048 C 
HETATM   11  C   UNL     1     -40.627  51.589 -54.458  1.00  0.00     0.007 A 
HETATM   12  C   UNL     1     -41.365  52.739 -54.174  1.00  0.00     0.017 A 
ENDBRANCH   3   6
ENDBRANCH   1   2
BRANCH   1  13
HETATM   13  N   UNL     1     -43.290  57.001 -53.452  1.00  0.00    -0.342 N 
HETATM   14  H   UNL     1     -44.042  57.490 -52.950  1.00  0.00     0.163 HD
BRANCH  13  15
HETATM   15  C   UNL     1     -43.318  57.130 -54.813  1.00  0.00     0.089 A 
HETATM   16  S   UNL     1     -42.776  55.887 -55.866  1.00  0.00    -0.074 SA
HETATM   17  C   UNL     1     -43.243  56.723 -57.254  1.00  0.00     0.018 A 
HETATM   18  C   UNL     1     -43.825  57.938 -56.965  1.00  0.00    -0.023 A 
HETATM   19  C   UNL     1     -43.064  56.145 -58.617  1.00  0.00     0.281 C 
HETATM   20  C   UNL     1     -44.320  58.838 -58.068  1.00  0.00     0.068 C 
HETATM   21  C   UNL     1     -43.853  58.202 -55.535  1.00  0.00     0.080 A 
HETATM   22  C   UNL     1     -44.434  58.100 -59.415  1.00  0.00     0.239 C 
HETATM   23  N   UNL     1     -43.228  57.210 -59.694  1.00  0.00    -0.070 N 
HETATM   24  H   UNL     1     -43.434  56.700 -60.561  1.00  0.00     0.279 HD
HETATM   25  C   UNL     1     -41.963  57.976 -59.951  1.00  0.00     0.270 C 
BRANCH  21  26
HETATM   26  C   UNL     1     -44.368  59.450 -54.944  1.00  0.00     0.296 C 
HETATM   27  O   UNL     1     -43.875  60.544 -55.189  1.00  0.00    -0.259 OA
BRANCH  26  28
HETATM   28  O   UNL     1     -45.400  59.255 -54.071  1.00  0.00    -0.322 OA
HETATM   29  C   UNL     1     -45.247  59.924 -52.815  1.00  0.00     0.213 C 
ENDBRANCH  26  28
ENDBRANCH  21  26
ENDBRANCH  13  15
ENDBRANCH   1  13
BRANCH   1  30
HETATM   30  C   UNL     1     -42.262  57.378 -51.078  1.00  0.00     0.441 C 
HETATM   31  F   UNL     1     -41.333  56.776 -50.290  1.00  0.00    -0.166 F 
HETATM   32  F   UNL     1     -42.239  58.690 -50.771  1.00  0.00    -0.166 F 
HETATM   33  F   UNL     1     -43.472  56.914 -50.663  1.00  0.00    -0.166 F 
ENDBRANCH   1  30
BRANCH   1  34
HETATM   34  C   UNL     1     -41.185  58.289 -53.062  1.00  0.00     0.441 C 
HETATM   35  F   UNL     1     -41.827  59.469 -53.055  1.00  0.00    -0.166 F 
HETATM   36  F   UNL     1     -40.116  58.426 -52.218  1.00  0.00    -0.166 F 
HETATM   37  F   UNL     1     -40.662  58.102 -54.296  1.00  0.00    -0.166 F 
ENDBRANCH   1  34
TORSDOF 8
ENDMDL
MODEL 2
REMARK VINA RESULT:      -7.5      2.870      5.054
REMARK  8 active torsions:
REMARK  status: ('A' for Active; 'I' for Inactive)
REMARK    1  A    between atoms: C_5  and  C_6 
REMARK       I    between atoms: C_6  and  N_7 
REMARK    2  A    between atoms: N_7  and  C_8 
REMARK    3  A    between atoms: C_8  and  N_9 
REMARK    4  A    between atoms: C_8  and  C_25 
REMARK    5  A    between atoms: C_8  and  C_29 
REMARK    6  A    between atoms: N_9  and  C_10 
REMARK    7  A    between atoms: C_20  and  C_21 
REMARK    8  A    between atoms: C_21  and  O_22 
ROOT
HETATM    1  C   UNL     1     -42.830  56.603 -54.460  1.00  0.00     0.307 C 
ENDROOT
BRANCH   1   2
HETATM    2  N   UNL     1     -42.235  55.446 -53.762  1.00  0.00    -0.315 N 
HETATM    3  C   UNL     1     -40.956  55.024 -54.006  1.00  0.00     0.254 C 
HETATM    4  O   UNL     1     -40.200  55.610 -54.763  1.00  0.00    -0.268 OA
HETATM    5  H   UNL     1     -42.884  54.798 -53.342  1.00  0.00     0.165 HD
BRANCH   3   6
HETATM    6  C   UNL     1     -40.546  53.780 -53.312  1.00  0.00     0.032 A 
HETATM    7  C   UNL     1     -40.478  53.724 -51.914  1.00  0.00     0.017 A 
HETATM    8  C   UNL     1     -40.083  52.543 -51.284  1.00  0.00     0.007 A 
HETATM    9  C   UNL     1     -39.744  51.415 -52.042  1.00  0.00    -0.062 A 
HETATM   10  C   UNL     1     -39.343  50.135 -51.367  1.00  0.00     0.048 C 
HETATM   11  C   UNL     1     -39.822  51.478 -53.440  1.00  0.00     0.007 A 
HETATM   12  C   UNL     1     -40.208  52.661 -54.075  1.00  0.00     0.017 A 
ENDBRANCH   3   6
ENDBRANCH   1   2
BRANCH   1  13
HETATM   13  N   UNL     1     -41.887  57.716 -54.010  1.00  0.00    -0.342 N 
HETATM   14  H   UNL     1     -41.126  57.782 -54.697  1.00  0.00     0.163 HD
BRANCH  13  15
HETATM   15  C   UNL     1     -42.280  58.904 -53.457  1.00  0.00     0.089 A 
HETATM   16  S   UNL     1     -42.312  59.163 -51.761  1.00  0.00    -0.074 SA
HETATM   17  C   UNL     1     -42.739  60.787 -51.917  1.00  0.00     0.018 A 
HETATM   18  C   UNL     1     -42.853  61.176 -53.234  1.00  0.00    -0.023 A 
HETATM   19  C   UNL     1     -42.917  61.670 -50.729  1.00  0.00     0.281 C 
HETATM   20  C   UNL     1     -43.220  62.594 -53.590  1.00  0.00     0.068 C 
HETATM   21  C   UNL     1     -42.610  60.073 -54.150  1.00  0.00     0.080 A 
HETATM   22  C   UNL     1     -43.072  63.552 -52.392  1.00  0.00     0.239 C 
HETATM   23  N   UNL     1     -43.632  62.962 -51.104  1.00  0.00    -0.070 N 
HETATM   24  H   UNL     1     -43.412  63.630 -50.355  1.00  0.00     0.279 HD
HETATM   25  C   UNL     1     -45.126  62.819 -51.108  1.00  0.00     0.270 C 
BRANCH  21  26
HETATM   26  C   UNL     1     -42.719  60.189 -55.615  1.00  0.00     0.296 C 
HETATM   27  O   UNL     1     -43.787  60.395 -56.180  1.00  0.00    -0.259 OA
BRANCH  26  28
HETATM   28  O   UNL     1     -41.535  59.995 -56.268  1.00  0.00    -0.322 OA
HETATM   29  C   UNL     1     -41.624  60.083 -57.693  1.00  0.00     0.213 C 
ENDBRANCH  26  28
ENDBRANCH  21  26
ENDBRANCH  13  15
ENDBRANCH   1  13
BRANCH   1  30
HETATM   30  C   UNL     1     -43.035  56.472 -56.002  1.00  0.00     0.441 C 
HETATM   31  F   UNL     1     -43.219  55.178 -56.378  1.00  0.00    -0.166 F 
HETATM   32  F   UNL     1     -44.080  57.170 -56.491  1.00  0.00    -0.166 F 
HETATM   33  F   UNL     1     -41.938  56.912 -56.677  1.00  0.00    -0.166 F 
ENDBRANCH   1  30
BRANCH   1  34
HETATM   34  C   UNL     1     -44.269  56.963 -53.963  1.00  0.00     0.441 C 
HETATM   35  F   UNL     1     -44.756  58.134 -54.406  1.00  0.00    -0.166 F 
HETATM   36  F   UNL     1     -45.132  55.996 -54.401  1.00  0.00    -0.166 F 
HETATM   37  F   UNL     1     -44.358  56.955 -52.613  1.00  0.00    -0.166 F 
ENDBRANCH   1  34
TORSDOF 8
ENDMDL
MODEL 3
REMARK VINA RESULT:      -7.4      2.419      3.380
REMARK  8 active torsions:
REMARK  status: ('A' for Active; 'I' for Inactive)
REMARK    1  A    between atoms: C_5  and  C_6 
REMARK       I    between atoms: C_6  and  N_7 
REMARK    2  A    between atoms: N_7  and  C_8 
REMARK    3  A    between atoms: C_8  and  N_9 
REMARK    4  A    between atoms: C_8  and  C_25 
REMARK    5  A    between atoms: C_8  and  C_29 
REMARK    6  A    between atoms: N_9  and  C_10 
REMARK    7  A    between atoms: C_20  and  C_21 
REMARK    8  A    between atoms: C_21  and  O_22 
ROOT
HETATM    1  C   UNL     1     -42.862  58.283 -52.446  1.00  0.00     0.307 C 
ENDROOT
BRANCH   1   2
HETATM    2  N   UNL     1     -42.368  56.906 -52.645  1.00  0.00    -0.315 N 
HETATM    3  C   UNL     1     -41.151  56.642 -53.216  1.00  0.00     0.254 C 
HETATM    4  O   UNL     1     -40.367  57.519 -53.535  1.00  0.00    -0.268 OA
HETATM    5  H   UNL     1     -43.066  56.178 -52.641  1.00  0.00     0.165 HD
BRANCH   3   6
HETATM    6  C   UNL     1     -40.851  55.210 -53.453  1.00  0.00     0.032 A 
HETATM    7  C   UNL     1     -40.870  54.285 -52.402  1.00  0.00     0.017 A 
HETATM    8  C   UNL     1     -40.576  52.943 -52.650  1.00  0.00     0.007 A 
HETATM    9  C   UNL     1     -40.252  52.517 -53.945  1.00  0.00    -0.062 A 
HETATM   10  C   UNL     1     -39.961  51.070 -54.220  1.00  0.00     0.048 C 
HETATM   11  C   UNL     1     -40.242  53.449 -54.992  1.00  0.00     0.007 A 
HETATM   12  C   UNL     1     -40.526  54.794 -54.746  1.00  0.00     0.017 A 
ENDBRANCH   3   6
ENDBRANCH   1   2
BRANCH   1  13
HETATM   13  N   UNL     1     -42.418  58.932 -53.754  1.00  0.00    -0.342 N 
HETATM   14  H   UNL     1     -41.557  58.463 -54.063  1.00  0.00     0.163 HD
BRANCH  13  15
HETATM   15  C   UNL     1     -43.256  59.334 -54.757  1.00  0.00     0.089 A 
HETATM   16  S   UNL     1     -43.811  60.952 -54.899  1.00  0.00    -0.074 SA
HETATM   17  C   UNL     1     -44.612  60.656 -56.352  1.00  0.00     0.018 A 
HETATM   18  C   UNL     1     -44.472  59.351 -56.772  1.00  0.00    -0.023 A 
HETATM   19  C   UNL     1     -45.337  61.733 -57.083  1.00  0.00     0.281 C 
HETATM   20  C   UNL     1     -45.108  58.882 -58.056  1.00  0.00     0.068 C 
HETATM   21  C   UNL     1     -43.699  58.556 -55.832  1.00  0.00     0.080 A 
HETATM   22  C   UNL     1     -45.556  60.056 -58.947  1.00  0.00     0.239 C 
HETATM   23  N   UNL     1     -46.255  61.154 -58.153  1.00  0.00    -0.070 N 
HETATM   24  H   UNL     1     -46.436  61.921 -58.811  1.00  0.00     0.279 HD
HETATM   25  C   UNL     1     -47.593  60.744 -57.612  1.00  0.00     0.270 C 
BRANCH  21  26
HETATM   26  C   UNL     1     -43.439  57.115 -55.999  1.00  0.00     0.296 C 
HETATM   27  O   UNL     1     -43.910  56.272 -55.246  1.00  0.00    -0.259 OA
BRANCH  26  28
HETATM   28  O   UNL     1     -42.593  56.829 -57.032  1.00  0.00    -0.322 OA
HETATM   29  C   UNL     1     -43.048  55.785 -57.899  1.00  0.00     0.213 C 
ENDBRANCH  26  28
ENDBRANCH  21  26
ENDBRANCH  13  15
ENDBRANCH   1  13
BRANCH   1  30
HETATM   30  C   UNL     1     -44.372  58.449 -52.087  1.00  0.00     0.441 C 
HETATM   31  F   UNL     1     -44.657  57.943 -50.857  1.00  0.00    -0.166 F 
HETATM   32  F   UNL     1     -44.813  59.724 -52.093  1.00  0.00    -0.166 F 
HETATM   33  F   UNL     1     -45.159  57.774 -52.968  1.00  0.00    -0.166 F 
ENDBRANCH   1  30
BRANCH   1  34
HETATM   34  C   UNL     1     -42.156  59.038 -51.272  1.00  0.00     0.441 C 
HETATM   35  F   UNL     1     -42.946  59.850 -50.549  1.00  0.00    -0.166 F 
HETATM   36  F   UNL     1     -41.657  58.109 -50.400  1.00  0.00    -0.166 F 
HETATM   37  F   UNL     1     -41.091  59.757 -51.696  1.00  0.00    -0.166 F 
ENDBRANCH   1  34
TORSDOF 8
ENDMDL
MODEL 4
REMARK VINA RESULT:      -7.4      2.954      5.394
REMARK  8 active torsions:
REMARK  status: ('A' for Active; 'I' for Inactive)
REMARK    1  A    between atoms: C_5  and  C_6 
REMARK       I    between atoms: C_6  and  N_7 
REMARK    2  A    between atoms: N_7  and  C_8 
REMARK    3  A    between atoms: C_8  and  N_9 
REMARK    4  A    between atoms: C_8  and  C_25 
REMARK    5  A    between atoms: C_8  and  C_29 
REMARK    6  A    between atoms: N_9  and  C_10 
REMARK    7  A    between atoms: C_20  and  C_21 
REMARK    8  A    between atoms: C_21  and  O_22 
ROOT
HETATM    1  C   UNL     1     -42.921  56.609 -54.542  1.00  0.00     0.307 C 
ENDROOT
BRANCH   1   2
HETATM    2  N   UNL     1     -42.329  55.479 -53.798  1.00  0.00    -0.315 N 
HETATM    3  C   UNL     1     -41.023  55.102 -53.959  1.00  0.00     0.254 C 
HETATM    4  O   UNL     1     -40.243  55.710 -54.673  1.00  0.00    -0.268 OA
HETATM    5  H   UNL     1     -42.979  54.811 -53.412  1.00  0.00     0.165 HD
BRANCH   3   6
HETATM    6  C   UNL     1     -40.613  53.879 -53.229  1.00  0.00     0.032 A 
HETATM    7  C   UNL     1     -40.567  53.856 -51.829  1.00  0.00     0.017 A 
HETATM    8  C   UNL     1     -40.171  52.694 -51.166  1.00  0.00     0.007 A 
HETATM    9  C   UNL     1     -39.808  51.552 -51.892  1.00  0.00    -0.062 A 
HETATM   10  C   UNL     1     -39.407  50.292 -51.181  1.00  0.00     0.048 C 
HETATM   11  C   UNL     1     -39.865  51.582 -53.292  1.00  0.00     0.007 A 
HETATM   12  C   UNL     1     -40.252  52.745 -53.960  1.00  0.00     0.017 A 
ENDBRANCH   3   6
ENDBRANCH   1   2
BRANCH   1  13
HETATM   13  N   UNL     1     -42.047  57.758 -54.046  1.00  0.00    -0.342 N 
HETATM   14  H   UNL     1     -41.358  57.971 -54.779  1.00  0.00     0.163 HD
BRANCH  13  15
HETATM   15  C   UNL     1     -42.496  58.838 -53.336  1.00  0.00     0.089 A 
HETATM   16  S   UNL     1     -43.290  60.164 -54.081  1.00  0.00    -0.074 SA
HETATM   17  C   UNL     1     -43.612  60.926 -52.612  1.00  0.00     0.018 A 
HETATM   18  C   UNL     1     -43.149  60.203 -51.534  1.00  0.00    -0.023 A 
HETATM   19  C   UNL     1     -44.358  62.214 -52.542  1.00  0.00     0.281 C 
HETATM   20  C   UNL     1     -43.343  60.709 -50.127  1.00  0.00     0.068 C 
HETATM   21  C   UNL     1     -42.469  58.986 -51.946  1.00  0.00     0.080 A 
HETATM   22  C   UNL     1     -44.385  61.841 -50.053  1.00  0.00     0.239 C 
HETATM   23  N   UNL     1     -44.213  62.863 -51.171  1.00  0.00    -0.070 N 
HETATM   24  H   UNL     1     -44.996  63.522 -51.089  1.00  0.00     0.279 HD
HETATM   25  C   UNL     1     -42.963  63.684 -51.046  1.00  0.00     0.270 C 
BRANCH  21  26
HETATM   26  C   UNL     1     -41.827  58.050 -51.005  1.00  0.00     0.296 C 
HETATM   27  O   UNL     1     -42.196  56.889 -50.881  1.00  0.00    -0.259 OA
BRANCH  26  28
HETATM   28  O   UNL     1     -40.831  58.619 -50.262  1.00  0.00    -0.322 OA
HETATM   29  C   UNL     1     -39.726  59.105 -51.030  1.00  0.00     0.213 C 
ENDBRANCH  26  28
ENDBRANCH  21  26
ENDBRANCH  13  15
ENDBRANCH   1  13
BRANCH   1  30
HETATM   30  C   UNL     1     -43.026  56.459 -56.092  1.00  0.00     0.441 C 
HETATM   31  F   UNL     1     -43.050  55.154 -56.472  1.00  0.00    -0.166 F 
HETATM   32  F   UNL     1     -44.112  57.042 -56.640  1.00  0.00    -0.166 F 
HETATM   33  F   UNL     1     -41.948  57.015 -56.709  1.00  0.00    -0.166 F 
ENDBRANCH   1  30
BRANCH   1  34
HETATM   34  C   UNL     1     -44.399  56.921 -54.136  1.00  0.00     0.441 C 
HETATM   35  F   UNL     1     -44.940  58.006 -54.715  1.00  0.00    -0.166 F 
HETATM   36  F   UNL     1     -45.180  55.859 -54.503  1.00  0.00    -0.166 F 
HETATM   37  F   UNL     1     -44.545  57.043 -52.797  1.00  0.00    -0.166 F 
ENDBRANCH   1  34
TORSDOF 8
ENDMDL
MODEL 5
REMARK VINA RESULT:      -7.3      3.219      6.771
REMARK  8 active torsions:
REMARK  status: ('A' for Active; 'I' for Inactive)
REMARK    1  A    between atoms: C_5  and  C_6 
REMARK       I    between atoms: C_6  and  N_7 
REMARK    2  A    between atoms: N_7  and  C_8 
REMARK    3  A    between atoms: C_8  and  N_9 
REMARK    4  A    between atoms: C_8  and  C_25 
REMARK    5  A    between atoms: C_8  and  C_29 
REMARK    6  A    between atoms: N_9  and  C_10 
REMARK    7  A    between atoms: C_20  and  C_21 
REMARK    8  A    between atoms: C_21  and  O_22 
ROOT
HETATM    1  C   UNL     1     -41.993  55.683 -53.998  1.00  0.00     0.307 C 
ENDROOT
BRANCH   1   2
HETATM    2  N   UNL     1     -42.066  56.871 -54.872  1.00  0.00    -0.315 N 
HETATM    3  C   UNL     1     -42.296  56.774 -56.219  1.00  0.00     0.254 C 
HETATM    4  O   UNL     1     -42.522  55.713 -56.776  1.00  0.00    -0.268 OA
HETATM    5  H   UNL     1     -41.640  57.712 -54.516  1.00  0.00     0.165 HD
BRANCH   3   6
HETATM    6  C   UNL     1     -42.224  58.046 -56.976  1.00  0.00     0.032 A 
HETATM    7  C   UNL     1     -42.200  59.279 -56.313  1.00  0.00     0.017 A 
HETATM    8  C   UNL     1     -42.140  60.464 -57.049  1.00  0.00     0.007 A 
HETATM    9  C   UNL     1     -42.112  60.427 -58.449  1.00  0.00    -0.062 A 
HETATM   10  C   UNL     1     -42.021  61.698 -59.243  1.00  0.00     0.048 C 
HETATM   11  C   UNL     1     -42.129  59.187 -59.104  1.00  0.00     0.007 A 
HETATM   12  C   UNL     1     -42.199  58.001 -58.371  1.00  0.00     0.017 A 
ENDBRANCH   3   6
ENDBRANCH   1   2
BRANCH   1  13
HETATM   13  N   UNL     1     -41.809  56.350 -52.637  1.00  0.00    -0.342 N 
HETATM   14  H   UNL     1     -40.801  56.433 -52.459  1.00  0.00     0.163 HD
BRANCH  13  15
HETATM   15  C   UNL     1     -42.574  57.376 -52.153  1.00  0.00     0.089 A 
HETATM   16  S   UNL     1     -44.205  57.156 -51.665  1.00  0.00    -0.074 SA
HETATM   17  C   UNL     1     -44.358  58.742 -51.114  1.00  0.00     0.018 A 
HETATM   18  C   UNL     1     -43.195  59.466 -51.268  1.00  0.00    -0.023 A 
HETATM   19  C   UNL     1     -45.619  59.242 -50.496  1.00  0.00     0.281 C 
HETATM   20  C   UNL     1     -43.120  60.906 -50.830  1.00  0.00     0.068 C 
HETATM   21  C   UNL     1     -42.146  58.683 -51.900  1.00  0.00     0.080 A 
HETATM   22  C   UNL     1     -44.291  61.297 -49.909  1.00  0.00     0.239 C 
HETATM   23  N   UNL     1     -45.628  60.763 -50.410  1.00  0.00    -0.070 N 
HETATM   24  H   UNL     1     -46.325  60.998 -49.694  1.00  0.00     0.279 HD
HETATM   25  C   UNL     1     -46.097  61.414 -51.678  1.00  0.00     0.270 C 
BRANCH  21  26
HETATM   26  C   UNL     1     -40.815  59.220 -52.237  1.00  0.00     0.296 C 
HETATM   27  O   UNL     1     -40.343  59.142 -53.365  1.00  0.00    -0.259 OA
BRANCH  26  28
HETATM   28  O   UNL     1     -40.156  59.755 -51.168  1.00  0.00    -0.322 OA
HETATM   29  C   UNL     1     -38.830  59.250 -50.977  1.00  0.00     0.213 C 
ENDBRANCH  26  28
ENDBRANCH  21  26
ENDBRANCH  13  15
ENDBRANCH   1  13
BRANCH   1  30
HETATM   30  C   UNL     1     -43.166  54.657 -54.096  1.00  0.00     0.441 C 
HETATM   31  F   UNL     1     -44.350  55.269 -54.365  1.00  0.00    -0.166 F 
HETATM   32  F   UNL     1     -43.000  53.704 -55.035  1.00  0.00    -0.166 F 
HETATM   33  F   UNL     1     -43.336  54.000 -52.917  1.00  0.00    -0.166 F 
ENDBRANCH   1  30
BRANCH   1  34
HETATM   34  C   UNL     1     -40.741  54.785 -54.265  1.00  0.00     0.441 C 
HETATM   35  F   UNL     1     -40.903  53.832 -55.198  1.00  0.00    -0.166 F 
HETATM   36  F   UNL     1     -39.721  55.585 -54.703  1.00  0.00    -0.166 F 
HETATM   37  F   UNL     1     -40.288  54.193 -53.135  1.00  0.00    -0.166 F 
ENDBRANCH   1  34
TORSDOF 8
ENDMDL
MODEL 6
REMARK VINA RESULT:      -7.3      1.684      2.052
REMARK  8 active torsions:
REMARK  status: ('A' for Active; 'I' for Inactive)
REMARK    1  A    between atoms: C_5  and  C_6 
REMARK       I    between atoms: C_6  and  N_7 
REMARK    2  A    between atoms: N_7  and  C_8 
REMARK    3  A    between atoms: C_8  and  N_9 
REMARK    4  A    between atoms: C_8  and  C_25 
REMARK    5  A    between atoms: C_8  and  C_29 
REMARK    6  A    between atoms: N_9  and  C_10 
REMARK    7  A    between atoms: C_20  and  C_21 
REMARK    8  A    between atoms: C_21  and  O_22 
ROOT
HETATM    1  C   UNL     1     -42.911  57.508 -52.847  1.00  0.00     0.307 C 
ENDROOT
BRANCH   1   2
HETATM    2  N   UNL     1     -42.374  56.135 -52.923  1.00  0.00    -0.315 N 
HETATM    3  C   UNL     1     -41.092  55.873 -53.327  1.00  0.00     0.254 C 
HETATM    4  O   UNL     1     -40.288  56.753 -53.587  1.00  0.00    -0.268 OA
HETATM    5  H   UNL     1     -43.055  55.393 -52.971  1.00  0.00     0.165 HD
BRANCH   3   6
HETATM    6  C   UNL     1     -40.741  54.440 -53.461  1.00  0.00     0.032 A 
HETATM    7  C   UNL     1     -40.572  53.630 -52.331  1.00  0.00     0.017 A 
HETATM    8  C   UNL     1     -40.234  52.284 -52.484  1.00  0.00     0.007 A 
HETATM    9  C   UNL     1     -40.055  51.740 -53.762  1.00  0.00    -0.062 A 
HETATM   10  C   UNL     1     -39.718  50.286 -53.931  1.00  0.00     0.048 C 
HETATM   11  C   UNL     1     -40.234  52.556 -54.888  1.00  0.00     0.007 A 
HETATM   12  C   UNL     1     -40.563  53.905 -54.739  1.00  0.00     0.017 A 
ENDBRANCH   3   6
ENDBRANCH   1   2
BRANCH   1  13
HETATM   13  N   UNL     1     -42.308  58.114 -54.112  1.00  0.00    -0.342 N 
HETATM   14  H   UNL     1     -41.308  57.879 -54.130  1.00  0.00     0.163 HD
BRANCH  13  15
HETATM   15  C   UNL     1     -42.920  58.154 -55.335  1.00  0.00     0.089 A 
HETATM   16  S   UNL     1     -42.895  56.824 -56.420  1.00  0.00    -0.074 SA
HETATM   17  C   UNL     1     -43.911  57.583 -57.531  1.00  0.00     0.018 A 
HETATM   18  C   UNL     1     -44.303  58.836 -57.113  1.00  0.00    -0.023 A 
HETATM   19  C   UNL     1     -44.341  56.910 -58.789  1.00  0.00     0.281 C 
HETATM   20  C   UNL     1     -45.221  59.679 -57.961  1.00  0.00     0.068 C 
HETATM   21  C   UNL     1     -43.709  59.195 -55.836  1.00  0.00     0.080 A 
HETATM   22  C   UNL     1     -45.910  58.858 -59.067  1.00  0.00     0.239 C 
HETATM   23  N   UNL     1     -44.948  57.907 -59.769  1.00  0.00    -0.070 N 
HETATM   24  H   UNL     1     -45.512  57.348 -60.421  1.00  0.00     0.279 HD
HETATM   25  C   UNL     1     -43.915  58.605 -60.603  1.00  0.00     0.270 C 
BRANCH  21  26
HETATM   26  C   UNL     1     -43.911  60.498 -55.177  1.00  0.00     0.296 C 
HETATM   27  O   UNL     1     -45.011  61.032 -55.104  1.00  0.00    -0.259 OA
BRANCH  26  28
HETATM   28  O   UNL     1     -42.756  61.060 -54.712  1.00  0.00    -0.322 OA
HETATM   29  C   UNL     1     -42.860  61.627 -53.403  1.00  0.00     0.213 C 
ENDBRANCH  26  28
ENDBRANCH  21  26
ENDBRANCH  13  15
ENDBRANCH   1  13
BRANCH   1  30
HETATM   30  C   UNL     1     -44.458  57.658 -52.697  1.00  0.00     0.441 C 
HETATM   31  F   UNL     1     -44.903  57.132 -51.525  1.00  0.00    -0.166 F 
HETATM   32  F   UNL     1     -44.906  58.929 -52.746  1.00  0.00    -0.166 F 
HETATM   33  F   UNL     1     -45.109  56.989 -53.686  1.00  0.00    -0.166 F 
ENDBRANCH   1  30
BRANCH   1  34
HETATM   34  C   UNL     1     -42.377  58.324 -51.623  1.00  0.00     0.441 C 
HETATM   35  F   UNL     1     -43.251  59.188 -51.080  1.00  0.00    -0.166 F 
HETATM   36  F   UNL     1     -42.038  57.442 -50.633  1.00  0.00    -0.166 F 
HETATM   37  F   UNL     1     -41.244  59.002 -51.919  1.00  0.00    -0.166 F 
ENDBRANCH   1  34
TORSDOF 8
ENDMDL
MODEL 7
REMARK VINA RESULT:      -7.1      2.120      3.520
REMARK  8 active torsions:
REMARK  status: ('A' for Active; 'I' for Inactive)
REMARK    1  A    between atoms: C_5  and  C_6 
REMARK       I    between atoms: C_6  and  N_7 
REMARK    2  A    between atoms: N_7  and  C_8 
REMARK    3  A    between atoms: C_8  and  N_9 
REMARK    4  A    between atoms: C_8  and  C_25 
REMARK    5  A    between atoms: C_8  and  C_29 
REMARK    6  A    between atoms: N_9  and  C_10 
REMARK    7  A    between atoms: C_20  and  C_21 
REMARK    8  A    between atoms: C_21  and  O_22 
ROOT
HETATM    1  C   UNL     1     -42.087  57.099 -52.013  1.00  0.00     0.307 C 
ENDROOT
BRANCH   1   2
HETATM    2  N   UNL     1     -41.440  55.796 -52.262  1.00  0.00    -0.315 N 
HETATM    3  C   UNL     1     -41.927  54.901 -53.177  1.00  0.00     0.254 C 
HETATM    4  O   UNL     1     -42.883  55.145 -53.895  1.00  0.00    -0.268 OA
HETATM    5  H   UNL     1     -40.830  55.456 -51.535  1.00  0.00     0.165 HD
BRANCH   3   6
HETATM    6  C   UNL     1     -41.235  53.592 -53.227  1.00  0.00     0.032 A 
HETATM    7  C   UNL     1     -40.428  53.162 -52.166  1.00  0.00     0.017 A 
HETATM    8  C   UNL     1     -39.781  51.927 -52.240  1.00  0.00     0.007 A 
HETATM    9  C   UNL     1     -39.926  51.119 -53.375  1.00  0.00    -0.062 A 
HETATM   10  C   UNL     1     -39.253  49.779 -53.447  1.00  0.00     0.048 C 
HETATM   11  C   UNL     1     -40.742  51.554 -54.429  1.00  0.00     0.007 A 
HETATM   12  C   UNL     1     -41.383  52.792 -54.362  1.00  0.00     0.017 A 
ENDBRANCH   3   6
ENDBRANCH   1   2
BRANCH   1  13
HETATM   13  N   UNL     1     -41.954  57.744 -53.390  1.00  0.00    -0.342 N 
HETATM   14  H   UNL     1     -41.872  56.992 -54.085  1.00  0.00     0.163 HD
BRANCH  13  15
HETATM   15  C   UNL     1     -42.637  58.854 -53.808  1.00  0.00     0.089 A 
HETATM   16  S   UNL     1     -42.230  60.436 -53.283  1.00  0.00    -0.074 SA
HETATM   17  C   UNL     1     -43.367  61.170 -54.289  1.00  0.00     0.018 A 
HETATM   18  C   UNL     1     -44.064  60.255 -55.048  1.00  0.00    -0.023 A 
HETATM   19  C   UNL     1     -43.528  62.651 -54.344  1.00  0.00     0.281 C 
HETATM   20  C   UNL     1     -45.124  60.709 -56.019  1.00  0.00     0.068 C 
HETATM   21  C   UNL     1     -43.663  58.889 -54.758  1.00  0.00     0.080 A 
HETATM   22  C   UNL     1     -45.044  62.220 -56.306  1.00  0.00     0.239 C 
HETATM   23  N   UNL     1     -44.826  63.040 -55.040  1.00  0.00    -0.070 N 
HETATM   24  H   UNL     1     -44.701  64.015 -55.339  1.00  0.00     0.279 HD
HETATM   25  C   UNL     1     -46.006  63.038 -54.112  1.00  0.00     0.270 C 
BRANCH  21  26
HETATM   26  C   UNL     1     -44.281  57.705 -55.383  1.00  0.00     0.296 C 
HETATM   27  O   UNL     1     -45.400  57.311 -55.077  1.00  0.00    -0.259 OA
BRANCH  26  28
HETATM   28  O   UNL     1     -43.469  57.077 -56.284  1.00  0.00    -0.322 OA
HETATM   29  C   UNL     1     -43.784  57.347 -57.653  1.00  0.00     0.213 C 
ENDBRANCH  26  28
ENDBRANCH  21  26
ENDBRANCH  13  15
ENDBRANCH   1  13
BRANCH   1  30
HETATM   30  C   UNL     1     -43.528  57.073 -51.414  1.00  0.00     0.441 C 
HETATM   31  F   UNL     1     -43.634  56.182 -50.393  1.00  0.00    -0.166 F 
HETATM   32  F   UNL     1     -43.960  58.259 -50.939  1.00  0.00    -0.166 F 
HETATM   33  F   UNL     1     -44.437  56.689 -52.351  1.00  0.00    -0.166 F 
ENDBRANCH   1  30
BRANCH   1  34
HETATM   34  C   UNL     1     -41.317  57.996 -50.988  1.00  0.00     0.441 C 
HETATM   35  F   UNL     1     -40.958  57.387 -49.845  1.00  0.00    -0.166 F 
HETATM   36  F   UNL     1     -40.158  58.425 -51.576  1.00  0.00    -0.166 F 
HETATM   37  F   UNL     1     -42.008  59.115 -50.669  1.00  0.00    -0.166 F 
ENDBRANCH   1  34
TORSDOF 8
ENDMDL
MODEL 8
REMARK VINA RESULT:      -7.1      2.528      4.073
REMARK  8 active torsions:
REMARK  status: ('A' for Active; 'I' for Inactive)
REMARK    1  A    between atoms: C_5  and  C_6 
REMARK       I    between atoms: C_6  and  N_7 
REMARK    2  A    between atoms: N_7  and  C_8 
REMARK    3  A    between atoms: C_8  and  N_9 
REMARK    4  A    between atoms: C_8  and  C_25 
REMARK    5  A    between atoms: C_8  and  C_29 
REMARK    6  A    between atoms: N_9  and  C_10 
REMARK    7  A    between atoms: C_20  and  C_21 
REMARK    8  A    between atoms: C_21  and  O_22 
ROOT
HETATM    1  C   UNL     1     -43.099  58.489 -54.178  1.00  0.00     0.307 C 
ENDROOT
BRANCH   1   2
HETATM    2  N   UNL     1     -42.491  57.677 -53.105  1.00  0.00    -0.315 N 
HETATM    3  C   UNL     1     -42.888  56.392 -52.847  1.00  0.00     0.254 C 
HETATM    4  O   UNL     1     -43.719  55.808 -53.523  1.00  0.00    -0.268 OA
HETATM    5  H   UNL     1     -42.008  58.187 -52.381  1.00  0.00     0.165 HD
BRANCH   3   6
HETATM    6  C   UNL     1     -42.263  55.753 -51.665  1.00  0.00     0.032 A 
HETATM    7  C   UNL     1     -41.792  56.522 -50.593  1.00  0.00     0.017 A 
HETATM    8  C   UNL     1     -41.201  55.896 -49.495  1.00  0.00     0.007 A 
HETATM    9  C   UNL     1     -41.068  54.502 -49.461  1.00  0.00    -0.062 A 
HETATM   10  C   UNL     1     -40.457  53.823 -48.269  1.00  0.00     0.048 C 
HETATM   11  C   UNL     1     -41.549  53.740 -50.534  1.00  0.00     0.007 A 
HETATM   12  C   UNL     1     -42.133  54.363 -51.639  1.00  0.00     0.017 A 
ENDBRANCH   3   6
ENDBRANCH   1   2
BRANCH   1  13
HETATM   13  N   UNL     1     -42.407  57.896 -55.403  1.00  0.00    -0.342 N 
HETATM   14  H   UNL     1     -41.677  57.252 -55.074  1.00  0.00     0.163 HD
BRANCH  13  15
HETATM   15  C   UNL     1     -43.036  57.523 -56.559  1.00  0.00     0.089 A 
HETATM   16  S   UNL     1     -43.720  58.664 -57.643  1.00  0.00    -0.074 SA
HETATM   17  C   UNL     1     -44.134  57.488 -58.778  1.00  0.00     0.018 A 
HETATM   18  C   UNL     1     -43.760  56.222 -58.382  1.00  0.00    -0.023 A 
HETATM   19  C   UNL     1     -44.791  57.838 -60.069  1.00  0.00     0.281 C 
HETATM   20  C   UNL     1     -44.033  55.027 -59.259  1.00  0.00     0.068 C 
HETATM   21  C   UNL     1     -43.136  56.225 -57.068  1.00  0.00     0.080 A 
HETATM   22  C   UNL     1     -44.395  55.434 -60.700  1.00  0.00     0.239 C 
HETATM   23  N   UNL     1     -45.372  56.603 -60.746  1.00  0.00    -0.070 N 
HETATM   24  H   UNL     1     -45.484  56.853 -61.736  1.00  0.00     0.279 HD
HETATM   25  C   UNL     1     -46.745  56.258 -60.246  1.00  0.00     0.270 C 
BRANCH  21  26
HETATM   26  C   UNL     1     -42.687  55.004 -56.374  1.00  0.00     0.296 C 
HETATM   27  O   UNL     1     -43.418  54.034 -56.215  1.00  0.00    -0.259 OA
BRANCH  26  28
HETATM   28  O   UNL     1     -41.413  55.088 -55.890  1.00  0.00    -0.322 OA
HETATM   29  C   UNL     1     -41.021  53.988 -55.063  1.00  0.00     0.213 C 
ENDBRANCH  26  28
ENDBRANCH  21  26
ENDBRANCH  13  15
ENDBRANCH   1  13
BRANCH   1  30
HETATM   30  C   UNL     1     -44.659  58.532 -54.238  1.00  0.00     0.441 C 
HETATM   31  F   UNL     1     -45.210  58.570 -52.995  1.00  0.00    -0.166 F 
HETATM   32  F   UNL     1     -45.165  59.580 -54.918  1.00  0.00    -0.166 F 
HETATM   33  F   UNL     1     -45.153  57.417 -54.839  1.00  0.00    -0.166 F 
ENDBRANCH   1  30
BRANCH   1  34
HETATM   34  C   UNL     1     -42.727  60.006 -54.104  1.00  0.00     0.441 C 
HETATM   35  F   UNL     1     -43.527  60.760 -53.331  1.00  0.00    -0.166 F 
HETATM   36  F   UNL     1     -41.468  60.116 -53.578  1.00  0.00    -0.166 F 
HETATM   37  F   UNL     1     -42.667  60.577 -55.330  1.00  0.00    -0.166 F 
ENDBRANCH   1  34
TORSDOF 8
ENDMDL
MODEL 9
REMARK VINA RESULT:      -7.0      1.794      6.742
REMARK  8 active torsions:
REMARK  status: ('A' for Active; 'I' for Inactive)
REMARK    1  A    between atoms: C_5  and  C_6 
REMARK       I    between atoms: C_6  and  N_7 
REMARK    2  A    between atoms: N_7  and  C_8 
REMARK    3  A    between atoms: C_8  and  N_9 
REMARK    4  A    between atoms: C_8  and  C_25 
REMARK    5  A    between atoms: C_8  and  C_29 
REMARK    6  A    between atoms: N_9  and  C_10 
REMARK    7  A    between atoms: C_20  and  C_21 
REMARK    8  A    between atoms: C_21  and  O_22 
ROOT
HETATM    1  C   UNL     1     -42.544  57.795 -52.840  1.00  0.00     0.307 C 
ENDROOT
BRANCH   1   2
HETATM    2  N   UNL     1     -42.989  57.981 -54.235  1.00  0.00    -0.315 N 
HETATM    3  C   UNL     1     -44.250  57.645 -54.651  1.00  0.00     0.254 C 
HETATM    4  O   UNL     1     -45.109  57.234 -53.889  1.00  0.00    -0.268 OA
HETATM    5  H   UNL     1     -42.261  58.064 -54.928  1.00  0.00     0.165 HD
BRANCH   3   6
HETATM    6  C   UNL     1     -44.505  57.782 -56.104  1.00  0.00     0.032 A 
HETATM    7  C   UNL     1     -45.665  58.410 -56.576  1.00  0.00     0.017 A 
HETATM    8  C   UNL     1     -45.886  58.520 -57.950  1.00  0.00     0.007 A 
HETATM    9  C   UNL     1     -44.958  57.999 -58.861  1.00  0.00    -0.062 A 
HETATM   10  C   UNL     1     -45.179  58.139 -60.339  1.00  0.00     0.048 C 
HETATM   11  C   UNL     1     -43.796  57.379 -58.379  1.00  0.00     0.007 A 
HETATM   12  C   UNL     1     -43.576  57.258 -57.006  1.00  0.00     0.017 A 
ENDBRANCH   3   6
ENDBRANCH   1   2
BRANCH   1  13
HETATM   13  N   UNL     1     -43.017  56.366 -52.584  1.00  0.00    -0.342 N 
HETATM   14  H   UNL     1     -43.979  56.284 -52.933  1.00  0.00     0.163 HD
BRANCH  13  15
HETATM   15  C   UNL     1     -42.246  55.245 -52.727  1.00  0.00     0.089 A 
HETATM   16  S   UNL     1     -41.649  54.727 -54.250  1.00  0.00    -0.074 SA
HETATM   17  C   UNL     1     -40.756  53.463 -53.583  1.00  0.00     0.018 A 
HETATM   18  C   UNL     1     -40.871  53.406 -52.210  1.00  0.00    -0.023 A 
HETATM   19  C   UNL     1     -39.918  52.563 -54.424  1.00  0.00     0.281 C 
HETATM   20  C   UNL     1     -40.144  52.349 -51.419  1.00  0.00     0.068 C 
HETATM   21  C   UNL     1     -41.764  54.432 -51.696  1.00  0.00     0.080 A 
HETATM   22  C   UNL     1     -39.043  51.658 -52.245  1.00  0.00     0.239 C 
HETATM   23  N   UNL     1     -39.505  51.313 -53.656  1.00  0.00    -0.070 N 
HETATM   24  H   UNL     1     -38.686  50.939 -54.150  1.00  0.00     0.279 HD
HETATM   25  C   UNL     1     -40.547  50.233 -53.700  1.00  0.00     0.270 C 
BRANCH  21  26
HETATM   26  C   UNL     1     -42.114  54.571 -50.271  1.00  0.00     0.296 C 
HETATM   27  O   UNL     1     -43.223  54.284 -49.837  1.00  0.00    -0.259 OA
BRANCH  26  28
HETATM   28  O   UNL     1     -41.108  55.094 -49.510  1.00  0.00    -0.322 OA
HETATM   29  C   UNL     1     -40.629  54.221 -48.482  1.00  0.00     0.213 C 
ENDBRANCH  26  28
ENDBRANCH  21  26
ENDBRANCH  13  15
ENDBRANCH   1  13
BRANCH   1  30
HETATM   30  C   UNL     1     -41.039  58.075 -52.533  1.00  0.00     0.441 C 
HETATM   31  F   UNL     1     -40.776  59.407 -52.474  1.00  0.00    -0.166 F 
HETATM   32  F   UNL     1     -40.593  57.540 -51.378  1.00  0.00    -0.166 F 
HETATM   33  F   UNL     1     -40.241  57.573 -53.514  1.00  0.00    -0.166 F 
ENDBRANCH   1  30
BRANCH   1  34
HETATM   34  C   UNL     1     -43.272  58.732 -51.820  1.00  0.00     0.441 C 
HETATM   35  F   UNL     1     -43.817  59.842 -52.344  1.00  0.00    -0.166 F 
HETATM   36  F   UNL     1     -44.298  58.030 -51.248  1.00  0.00    -0.166 F 
HETATM   37  F   UNL     1     -42.462  59.101 -50.801  1.00  0.00    -0.166 F 
ENDBRANCH   1  34
TORSDOF 8
ENDMDL
MODEL 10
REMARK VINA RESULT:      -7.0      3.330      5.471
REMARK  8 active torsions:
REMARK  status: ('A' for Active; 'I' for Inactive)
REMARK    1  A    between atoms: C_5  and  C_6 
REMARK       I    between atoms: C_6  and  N_7 
REMARK    2  A    between atoms: N_7  and  C_8 
REMARK    3  A    between atoms: C_8  and  N_9 
REMARK    4  A    between atoms: C_8  and  C_25 
REMARK    5  A    between atoms: C_8  and  C_29 
REMARK    6  A    between atoms: N_9  and  C_10 
REMARK    7  A    between atoms: C_20  and  C_21 
REMARK    8  A    between atoms: C_21  and  O_22 
ROOT
HETATM    1  C   UNL     1     -42.969  56.921 -57.635  1.00  0.00     0.307 C 
ENDROOT
BRANCH   1   2
HETATM    2  N   UNL     1     -42.243  56.134 -56.619  1.00  0.00    -0.315 N 
HETATM    3  C   UNL     1     -42.695  54.920 -56.175  1.00  0.00     0.254 C 
HETATM    4  O   UNL     1     -43.687  54.376 -56.632  1.00  0.00    -0.268 OA
HETATM    5  H   UNL     1     -41.589  56.644 -56.045  1.00  0.00     0.165 HD
BRANCH   3   6
HETATM    6  C   UNL     1     -41.917  54.310 -55.070  1.00  0.00     0.032 A 
HETATM    7  C   UNL     1     -40.634  53.793 -55.292  1.00  0.00     0.017 A 
HETATM    8  C   UNL     1     -39.926  53.218 -54.236  1.00  0.00     0.007 A 
HETATM    9  C   UNL     1     -40.493  53.144 -52.957  1.00  0.00    -0.062 A 
HETATM   10  C   UNL     1     -39.723  52.549 -51.814  1.00  0.00     0.048 C 
HETATM   11  C   UNL     1     -41.775  53.671 -52.744  1.00  0.00     0.007 A 
HETATM   12  C   UNL     1     -42.491  54.239 -53.799  1.00  0.00     0.017 A 
ENDBRANCH   3   6
ENDBRANCH   1   2
BRANCH   1  13
HETATM   13  N   UNL     1     -44.322  57.084 -56.948  1.00  0.00    -0.342 N 
HETATM   14  H   UNL     1     -44.658  56.149 -56.684  1.00  0.00     0.163 HD
BRANCH  13  15
HETATM   15  C   UNL     1     -44.646  58.088 -56.077  1.00  0.00     0.089 A 
HETATM   16  S   UNL     1     -44.035  58.149 -54.475  1.00  0.00    -0.074 SA
HETATM   17  C   UNL     1     -44.746  59.643 -54.154  1.00  0.00     0.018 A 
HETATM   18  C   UNL     1     -45.442  60.137 -55.236  1.00  0.00    -0.023 A 
HETATM   19  C   UNL     1     -44.571  60.331 -52.843  1.00  0.00     0.281 C 
HETATM   20  C   UNL     1     -46.147  61.467 -55.157  1.00  0.00     0.068 C 
HETATM   21  C   UNL     1     -45.413  59.222 -56.365  1.00  0.00     0.080 A 
HETATM   22  C   UNL     1     -45.687  62.299 -53.945  1.00  0.00     0.239 C 
HETATM   23  N   UNL     1     -45.577  61.464 -52.675  1.00  0.00    -0.070 N 
HETATM   24  H   UNL     1     -45.186  62.080 -51.952  1.00  0.00     0.279 HD
HETATM   25  C   UNL     1     -46.901  60.993 -52.149  1.00  0.00     0.270 C 
BRANCH  21  26
HETATM   26  C   UNL     1     -46.120  59.468 -57.635  1.00  0.00     0.296 C 
HETATM   27  O   UNL     1     -45.930  60.475 -58.306  1.00  0.00    -0.259 OA
BRANCH  26  28
HETATM   28  O   UNL     1     -47.028  58.499 -57.952  1.00  0.00    -0.322 OA
HETATM   29  C   UNL     1     -46.847  57.919 -59.247  1.00  0.00     0.213 C 
ENDBRANCH  26  28
ENDBRANCH  21  26
ENDBRANCH  13  15
ENDBRANCH   1  13
BRANCH   1  30
HETATM   30  C   UNL     1     -42.295  58.242 -58.124  1.00  0.00     0.441 C 
HETATM   31  F   UNL     1     -41.252  57.996 -58.960  1.00  0.00    -0.166 F 
HETATM   32  F   UNL     1     -43.122  59.086 -58.774  1.00  0.00    -0.166 F 
HETATM   33  F   UNL     1     -41.786  58.944 -57.076  1.00  0.00    -0.166 F 
ENDBRANCH   1  30
BRANCH   1  34
HETATM   34  C   UNL     1     -43.202  56.150 -58.977  1.00  0.00     0.441 C 
HETATM   35  F   UNL     1     -44.230  55.285 -58.973  1.00  0.00    -0.166 F 
HETATM   36  F   UNL     1     -43.470  57.064 -59.959  1.00  0.00    -0.166 F 
HETATM   37  F   UNL     1     -42.095  55.486 -59.381  1.00  0.00    -0.166 F 
ENDBRANCH   1  34
TORSDOF 8
ENDMDL
