MODEL 1
REMARK VINA RESULT:      -8.3      0.000      0.000
REMARK  3 active torsions:
REMARK  status: ('A' for Active; 'I' for Inactive)
REMARK    1  A    between atoms: C_8  and  C_9 
REMARK    2  A    between atoms: C_16  and  O_17 
REMARK    3  A    between atoms: C_24  and  N_25 
ROOT
HETATM    1  C   UNL     1     -39.433  58.478 -52.595  1.00  0.00     0.073 C 
HETATM    2  C   UNL     1     -40.858  58.789 -52.864  1.00  0.00     0.062 A 
HETATM    3  N   UNL     1     -41.345  60.016 -52.611  1.00  0.00    -0.177 NA
HETATM    4  N   UNL     1     -42.641  59.944 -52.977  1.00  0.00    -0.256 N 
HETATM    5  H   UNL     1     -43.223  60.769 -52.887  1.00  0.00     0.191 HD
HETATM    6  C   UNL     1     -42.984  58.718 -53.449  1.00  0.00     0.175 A 
HETATM    7  C   UNL     1     -41.863  57.935 -53.379  1.00  0.00     0.034 A 
HETATM    8  C   UNL     1     -41.909  56.521 -53.849  1.00  0.00     0.106 A 
HETATM    9  C   UNL     1     -43.294  56.195 -54.421  1.00  0.00     0.081 A 
HETATM   10  C   UNL     1     -43.453  54.904 -55.003  1.00  0.00     0.100 C 
HETATM   11  N   UNL     1     -43.595  53.855 -55.479  1.00  0.00    -0.191 NA
HETATM   12  C   UNL     1     -44.323  57.087 -54.424  1.00  0.00     0.140 A 
HETATM   13  O   UNL     1     -44.188  58.385 -53.896  1.00  0.00    -0.279 OA
ENDROOT
BRANCH   8  14
HETATM   14  C   UNL     1     -41.537  55.656 -52.639  1.00  0.00    -0.033 A 
HETATM   15  C   UNL     1     -40.888  54.388 -52.767  1.00  0.00    -0.016 A 
HETATM   16  C   UNL     1     -40.593  53.642 -51.587  1.00  0.00     0.008 A 
HETATM   17  C   UNL     1     -40.513  53.811 -54.009  1.00  0.00     0.013 A 
HETATM   18  C   UNL     1     -39.951  52.390 -51.711  1.00  0.00     0.015 A 
HETATM   19  C   UNL     1     -40.948  54.152 -50.313  1.00  0.00     0.079 A 
HETATM   20  C   UNL     1     -39.596  51.857 -52.947  1.00  0.00     0.001 A 
HETATM   21  C   UNL     1     -39.879  52.569 -54.098  1.00  0.00     0.001 A 
HETATM   22  C   UNL     1     -41.582  55.386 -50.207  1.00  0.00     0.038 A 
HETATM   23  C   UNL     1     -41.875  56.122 -51.350  1.00  0.00     0.012 A 
BRANCH  19  24
HETATM   24  O   UNL     1     -40.627  53.368 -49.229  1.00  0.00    -0.355 OA
HETATM   25  C   UNL     1     -40.274  54.019 -48.016  1.00  0.00     0.210 C 
ENDBRANCH  19  24
ENDBRANCH   8  14
BRANCH  12  26
HETATM   26  N   UNL     1     -45.582  56.849 -54.928  1.00  0.00    -0.282 NA
HETATM   27  H   UNL     1     -45.640  56.141 -55.655  1.00  0.00     0.126 HD
HETATM   28  H   UNL     1     -46.274  56.726 -54.193  1.00  0.00     0.126 HD
ENDBRANCH  12  26
TORSDOF 3
ENDMDL
MODEL 2
REMARK VINA RESULT:      -7.7      1.594      2.015
REMARK  3 active torsions:
REMARK  status: ('A' for Active; 'I' for Inactive)
REMARK    1  A    between atoms: C_8  and  C_9 
REMARK    2  A    between atoms: C_16  and  O_17 
REMARK    3  A    between atoms: C_24  and  N_25 
ROOT
HETATM    1  C   UNL     1     -39.291  58.792 -51.088  1.00  0.00     0.073 C 
HETATM    2  C   UNL     1     -40.646  59.394 -51.100  1.00  0.00     0.062 A 
HETATM    3  N   UNL     1     -40.953  60.393 -50.255  1.00  0.00    -0.177 NA
HETATM    4  N   UNL     1     -42.235  60.695 -50.545  1.00  0.00    -0.256 N 
HETATM    5  H   UNL     1     -42.691  61.442 -50.034  1.00  0.00     0.191 HD
HETATM    6  C   UNL     1     -42.743  59.922 -51.538  1.00  0.00     0.175 A 
HETATM    7  C   UNL     1     -41.752  59.055 -51.916  1.00  0.00     0.034 A 
HETATM    8  C   UNL     1     -41.994  58.077 -53.014  1.00  0.00     0.106 A 
HETATM    9  C   UNL     1     -43.396  58.274 -53.603  1.00  0.00     0.081 A 
HETATM   10  C   UNL     1     -43.729  57.472 -54.734  1.00  0.00     0.100 C 
HETATM   11  N   UNL     1     -44.012  56.824 -55.654  1.00  0.00    -0.191 NA
HETATM   12  C   UNL     1     -44.281  59.188 -53.119  1.00  0.00     0.140 A 
HETATM   13  O   UNL     1     -43.971  60.026 -52.031  1.00  0.00    -0.279 OA
ENDROOT
BRANCH   8  14
HETATM   14  C   UNL     1     -41.786  56.687 -52.403  1.00  0.00    -0.033 A 
HETATM   15  C   UNL     1     -41.231  55.594 -53.139  1.00  0.00    -0.016 A 
HETATM   16  C   UNL     1     -41.088  54.329 -52.495  1.00  0.00     0.008 A 
HETATM   17  C   UNL     1     -40.807  55.684 -54.491  1.00  0.00     0.013 A 
HETATM   18  C   UNL     1     -40.538  53.249 -53.220  1.00  0.00     0.015 A 
HETATM   19  C   UNL     1     -41.500  54.164 -51.148  1.00  0.00     0.079 A 
HETATM   20  C   UNL     1     -40.131  53.375 -54.545  1.00  0.00     0.001 A 
HETATM   21  C   UNL     1     -40.266  54.595 -55.181  1.00  0.00     0.001 A 
HETATM   22  C   UNL     1     -42.043  55.237 -50.447  1.00  0.00     0.038 A 
HETATM   23  C   UNL     1     -42.186  56.474 -51.065  1.00  0.00     0.012 A 
BRANCH  19  24
HETATM   24  O   UNL     1     -41.327  52.911 -50.605  1.00  0.00    -0.355 OA
HETATM   25  C   UNL     1     -40.514  52.795 -49.446  1.00  0.00     0.210 C 
ENDBRANCH  19  24
ENDBRANCH   8  14
BRANCH  12  26
HETATM   26  N   UNL     1     -45.548  59.410 -53.611  1.00  0.00    -0.282 NA
HETATM   27  H   UNL     1     -45.595  59.816 -54.542  1.00  0.00     0.126 HD
HETATM   28  H   UNL     1     -46.153  58.600 -53.497  1.00  0.00     0.126 HD
ENDBRANCH  12  26
TORSDOF 3
ENDMDL
MODEL 3
REMARK VINA RESULT:      -7.7      1.964      4.053
REMARK  3 active torsions:
REMARK  status: ('A' for Active; 'I' for Inactive)
REMARK    1  A    between atoms: C_8  and  C_9 
REMARK    2  A    between atoms: C_16  and  O_17 
REMARK    3  A    between atoms: C_24  and  N_25 
ROOT
HETATM    1  C   UNL     1     -44.264  56.052 -50.227  1.00  0.00     0.073 C 
HETATM    2  C   UNL     1     -44.325  57.027 -51.343  1.00  0.00     0.062 A 
HETATM    3  N   UNL     1     -45.512  57.427 -51.831  1.00  0.00    -0.177 NA
HETATM    4  N   UNL     1     -45.194  58.303 -52.807  1.00  0.00    -0.256 N 
HETATM    5  H   UNL     1     -45.940  58.755 -53.322  1.00  0.00     0.191 HD
HETATM    6  C   UNL     1     -43.854  58.465 -52.948  1.00  0.00     0.175 A 
HETATM    7  C   UNL     1     -43.253  57.646 -52.029  1.00  0.00     0.034 A 
HETATM    8  C   UNL     1     -41.767  57.611 -51.918  1.00  0.00     0.106 A 
HETATM    9  C   UNL     1     -41.138  58.619 -52.888  1.00  0.00     0.081 A 
HETATM   10  C   UNL     1     -39.722  58.769 -52.819  1.00  0.00     0.100 C 
HETATM   11  N   UNL     1     -38.569  58.898 -52.772  1.00  0.00    -0.191 NA
HETATM   12  C   UNL     1     -41.871  59.375 -53.751  1.00  0.00     0.140 A 
HETATM   13  O   UNL     1     -43.274  59.284 -53.816  1.00  0.00    -0.279 OA
ENDROOT
BRANCH   8  14
HETATM   14  C   UNL     1     -41.351  56.163 -52.199  1.00  0.00    -0.033 A 
HETATM   15  C   UNL     1     -40.984  55.251 -51.161  1.00  0.00    -0.016 A 
HETATM   16  C   UNL     1     -40.595  53.925 -51.514  1.00  0.00     0.008 A 
HETATM   17  C   UNL     1     -40.981  55.580 -49.780  1.00  0.00     0.013 A 
HETATM   18  C   UNL     1     -40.234  53.020 -50.490  1.00  0.00     0.015 A 
HETATM   19  C   UNL     1     -40.565  53.528 -52.874  1.00  0.00     0.079 A 
HETATM   20  C   UNL     1     -40.245  53.380 -49.145  1.00  0.00     0.001 A 
HETATM   21  C   UNL     1     -40.619  54.663 -48.790  1.00  0.00     0.001 A 
HETATM   22  C   UNL     1     -40.920  54.430 -53.873  1.00  0.00     0.038 A 
HETATM   23  C   UNL     1     -41.302  55.725 -53.540  1.00  0.00     0.012 A 
BRANCH  19  24
HETATM   24  O   UNL     1     -40.176  52.232 -53.125  1.00  0.00    -0.355 OA
HETATM   25  C   UNL     1     -40.610  51.630 -54.337  1.00  0.00     0.210 C 
ENDBRANCH  19  24
ENDBRANCH   8  14
BRANCH  12  26
HETATM   26  N   UNL     1     -41.359  60.296 -54.637  1.00  0.00    -0.282 NA
HETATM   27  H   UNL     1     -40.391  60.153 -54.912  1.00  0.00     0.126 HD
HETATM   28  H   UNL     1     -41.980  60.457 -55.427  1.00  0.00     0.126 HD
ENDBRANCH  12  26
TORSDOF 3
ENDMDL
MODEL 4
REMARK VINA RESULT:      -7.6      2.165      2.500
REMARK  3 active torsions:
REMARK  status: ('A' for Active; 'I' for Inactive)
REMARK    1  A    between atoms: C_8  and  C_9 
REMARK    2  A    between atoms: C_16  and  O_17 
REMARK    3  A    between atoms: C_24  and  N_25 
ROOT
HETATM    1  C   UNL     1     -40.243  58.783 -52.948  1.00  0.00     0.073 C 
HETATM    2  C   UNL     1     -41.347  59.393 -53.729  1.00  0.00     0.062 A 
HETATM    3  N   UNL     1     -41.734  60.657 -53.482  1.00  0.00    -0.177 NA
HETATM    4  N   UNL     1     -42.729  60.880 -54.366  1.00  0.00    -0.256 N 
HETATM    5  H   UNL     1     -43.180  61.788 -54.378  1.00  0.00     0.191 HD
HETATM    6  C   UNL     1     -42.979  59.805 -55.155  1.00  0.00     0.175 A 
HETATM    7  C   UNL     1     -42.116  58.814 -54.766  1.00  0.00     0.034 A 
HETATM    8  C   UNL     1     -42.127  57.497 -55.464  1.00  0.00     0.106 A 
HETATM    9  C   UNL     1     -43.141  57.513 -56.614  1.00  0.00     0.081 A 
HETATM   10  C   UNL     1     -43.187  56.350 -57.437  1.00  0.00     0.100 C 
HETATM   11  N   UNL     1     -43.234  55.408 -58.113  1.00  0.00    -0.191 NA
HETATM   12  C   UNL     1     -43.937  58.584 -56.886  1.00  0.00     0.140 A 
HETATM   13  O   UNL     1     -43.888  59.764 -56.121  1.00  0.00    -0.279 OA
ENDROOT
BRANCH   8  14
HETATM   14  C   UNL     1     -42.447  56.449 -54.393  1.00  0.00    -0.033 A 
HETATM   15  C   UNL     1     -41.710  55.230 -54.261  1.00  0.00    -0.016 A 
HETATM   16  C   UNL     1     -42.087  54.303 -53.244  1.00  0.00     0.008 A 
HETATM   17  C   UNL     1     -40.612  54.875 -55.087  1.00  0.00     0.013 A 
HETATM   18  C   UNL     1     -41.359  53.099 -53.111  1.00  0.00     0.015 A 
HETATM   19  C   UNL     1     -43.181  54.587 -52.389  1.00  0.00     0.079 A 
HETATM   20  C   UNL     1     -40.286  52.785 -53.939  1.00  0.00     0.001 A 
HETATM   21  C   UNL     1     -39.912  53.675 -54.929  1.00  0.00     0.001 A 
HETATM   22  C   UNL     1     -43.890  55.776 -52.534  1.00  0.00     0.038 A 
HETATM   23  C   UNL     1     -43.532  56.687 -53.521  1.00  0.00     0.012 A 
BRANCH  19  24
HETATM   24  O   UNL     1     -43.476  53.638 -51.437  1.00  0.00    -0.355 OA
HETATM   25  C   UNL     1     -44.289  54.027 -50.338  1.00  0.00     0.210 C 
ENDBRANCH  19  24
ENDBRANCH   8  14
BRANCH  12  26
HETATM   26  N   UNL     1     -44.859  58.654 -57.907  1.00  0.00    -0.282 NA
HETATM   27  H   UNL     1     -44.677  58.055 -58.707  1.00  0.00     0.126 HD
HETATM   28  H   UNL     1     -45.815  58.588 -57.567  1.00  0.00     0.126 HD
ENDBRANCH  12  26
TORSDOF 3
ENDMDL
MODEL 5
REMARK VINA RESULT:      -7.6      3.099      6.145
REMARK  3 active torsions:
REMARK  status: ('A' for Active; 'I' for Inactive)
REMARK    1  A    between atoms: C_8  and  C_9 
REMARK    2  A    between atoms: C_16  and  O_17 
REMARK    3  A    between atoms: C_24  and  N_25 
ROOT
HETATM    1  C   UNL     1     -40.364  55.703 -54.490  1.00  0.00     0.073 C 
HETATM    2  C   UNL     1     -40.405  54.286 -54.055  1.00  0.00     0.062 A 
HETATM    3  N   UNL     1     -40.431  53.296 -54.965  1.00  0.00    -0.177 NA
HETATM    4  N   UNL     1     -40.454  52.166 -54.229  1.00  0.00    -0.256 N 
HETATM    5  H   UNL     1     -40.463  51.271 -54.705  1.00  0.00     0.191 HD
HETATM    6  C   UNL     1     -40.444  52.410 -52.894  1.00  0.00     0.175 A 
HETATM    7  C   UNL     1     -40.428  53.771 -52.737  1.00  0.00     0.034 A 
HETATM    8  C   UNL     1     -40.393  54.364 -51.369  1.00  0.00     0.106 A 
HETATM    9  C   UNL     1     -40.319  53.257 -50.311  1.00  0.00     0.081 A 
HETATM   10  C   UNL     1     -40.176  53.680 -48.957  1.00  0.00     0.100 C 
HETATM   11  N   UNL     1     -40.062  54.014 -47.851  1.00  0.00    -0.191 NA
HETATM   12  C   UNL     1     -40.341  51.931 -50.622  1.00  0.00     0.140 A 
HETATM   13  O   UNL     1     -40.438  51.477 -51.951  1.00  0.00    -0.279 OA
ENDROOT
BRANCH   8  14
HETATM   14  C   UNL     1     -41.651  55.231 -51.248  1.00  0.00    -0.033 A 
HETATM   15  C   UNL     1     -41.599  56.655 -51.131  1.00  0.00    -0.016 A 
HETATM   16  C   UNL     1     -42.819  57.383 -51.006  1.00  0.00     0.008 A 
HETATM   17  C   UNL     1     -40.394  57.406 -51.130  1.00  0.00     0.013 A 
HETATM   18  C   UNL     1     -42.770  58.790 -50.893  1.00  0.00     0.015 A 
HETATM   19  C   UNL     1     -44.060  56.697 -50.990  1.00  0.00     0.079 A 
HETATM   20  C   UNL     1     -41.569  59.493 -50.897  1.00  0.00     0.001 A 
HETATM   21  C   UNL     1     -40.378  58.799 -51.015  1.00  0.00     0.001 A 
HETATM   22  C   UNL     1     -44.093  55.311 -51.100  1.00  0.00     0.038 A 
HETATM   23  C   UNL     1     -42.910  54.591 -51.223  1.00  0.00     0.012 A 
BRANCH  19  24
HETATM   24  O   UNL     1     -45.188  57.476 -50.866  1.00  0.00    -0.355 OA
HETATM   25  C   UNL     1     -45.588  58.253 -51.987  1.00  0.00     0.210 C 
ENDBRANCH  19  24
ENDBRANCH   8  14
BRANCH  12  26
HETATM   26  N   UNL     1     -40.272  50.898 -49.714  1.00  0.00    -0.282 NA
HETATM   27  H   UNL     1     -40.845  50.085 -49.926  1.00  0.00     0.126 HD
HETATM   28  H   UNL     1     -39.313  50.660 -49.473  1.00  0.00     0.126 HD
ENDBRANCH  12  26
TORSDOF 3
ENDMDL
MODEL 6
REMARK VINA RESULT:      -7.4     15.350     17.573
REMARK  3 active torsions:
REMARK  status: ('A' for Active; 'I' for Inactive)
REMARK    1  A    between atoms: C_8  and  C_9 
REMARK    2  A    between atoms: C_16  and  O_17 
REMARK    3  A    between atoms: C_24  and  N_25 
ROOT
HETATM    1  C   UNL     1     -33.501  41.159 -56.374  1.00  0.00     0.073 C 
HETATM    2  C   UNL     1     -33.985  40.766 -55.027  1.00  0.00     0.062 A 
HETATM    3  N   UNL     1     -33.112  40.401 -54.072  1.00  0.00    -0.177 NA
HETATM    4  N   UNL     1     -33.884  40.128 -53.000  1.00  0.00    -0.256 N 
HETATM    5  H   UNL     1     -33.440  39.838 -52.137  1.00  0.00     0.191 HD
HETATM    6  C   UNL     1     -35.206  40.308 -53.248  1.00  0.00     0.175 A 
HETATM    7  C   UNL     1     -35.317  40.707 -54.554  1.00  0.00     0.034 A 
HETATM    8  C   UNL     1     -36.658  41.008 -55.132  1.00  0.00     0.106 A 
HETATM    9  C   UNL     1     -37.744  40.860 -54.059  1.00  0.00     0.081 A 
HETATM   10  C   UNL     1     -39.070  41.218 -54.444  1.00  0.00     0.100 C 
HETATM   11  N   UNL     1     -40.153  41.504 -54.746  1.00  0.00    -0.191 NA
HETATM   12  C   UNL     1     -37.480  40.453 -52.787  1.00  0.00     0.140 A 
HETATM   13  O   UNL     1     -36.177  40.133 -52.361  1.00  0.00    -0.279 OA
ENDROOT
BRANCH   8  14
HETATM   14  C   UNL     1     -36.841  40.048 -56.312  1.00  0.00    -0.033 A 
HETATM   15  C   UNL     1     -37.024  40.502 -57.656  1.00  0.00    -0.016 A 
HETATM   16  C   UNL     1     -37.203  39.538 -58.691  1.00  0.00     0.008 A 
HETATM   17  C   UNL     1     -37.041  41.870 -58.034  1.00  0.00     0.013 A 
HETATM   18  C   UNL     1     -37.381  39.984 -60.020  1.00  0.00     0.015 A 
HETATM   19  C   UNL     1     -37.206  38.154 -58.385  1.00  0.00     0.079 A 
HETATM   20  C   UNL     1     -37.391  41.335 -60.354  1.00  0.00     0.001 A 
HETATM   21  C   UNL     1     -37.221  42.280 -59.358  1.00  0.00     0.001 A 
HETATM   22  C   UNL     1     -37.032  37.729 -57.072  1.00  0.00     0.038 A 
HETATM   23  C   UNL     1     -36.856  38.659 -56.054  1.00  0.00     0.012 A 
BRANCH  19  24
HETATM   24  O   UNL     1     -37.386  37.293 -59.444  1.00  0.00    -0.355 OA
HETATM   25  C   UNL     1     -38.650  36.658 -59.579  1.00  0.00     0.210 C 
ENDBRANCH  19  24
ENDBRANCH   8  14
BRANCH  12  26
HETATM   26  N   UNL     1     -38.414  40.308 -51.786  1.00  0.00    -0.282 NA
HETATM   27  H   UNL     1     -38.067  40.427 -50.838  1.00  0.00     0.126 HD
HETATM   28  H   UNL     1     -39.263  40.837 -51.971  1.00  0.00     0.126 HD
ENDBRANCH  12  26
TORSDOF 3
ENDMDL
MODEL 7
REMARK VINA RESULT:      -7.4      2.831      5.483
REMARK  3 active torsions:
REMARK  status: ('A' for Active; 'I' for Inactive)
REMARK    1  A    between atoms: C_8  and  C_9 
REMARK    2  A    between atoms: C_16  and  O_17 
REMARK    3  A    between atoms: C_24  and  N_25 
ROOT
HETATM    1  C   UNL     1     -42.606  54.276 -51.028  1.00  0.00     0.073 C 
HETATM    2  C   UNL     1     -42.201  54.035 -52.435  1.00  0.00     0.062 A 
HETATM    3  N   UNL     1     -41.457  52.961 -52.753  1.00  0.00    -0.177 NA
HETATM    4  N   UNL     1     -41.291  53.053 -54.088  1.00  0.00    -0.256 N 
HETATM    5  H   UNL     1     -40.762  52.334 -54.568  1.00  0.00     0.191 HD
HETATM    6  C   UNL     1     -41.902  54.144 -54.618  1.00  0.00     0.175 A 
HETATM    7  C   UNL     1     -42.490  54.816 -53.579  1.00  0.00     0.034 A 
HETATM    8  C   UNL     1     -43.266  56.062 -53.840  1.00  0.00     0.106 A 
HETATM    9  C   UNL     1     -43.314  56.353 -55.345  1.00  0.00     0.081 A 
HETATM   10  C   UNL     1     -44.111  57.463 -55.752  1.00  0.00     0.100 C 
HETATM   11  N   UNL     1     -44.756  58.365 -56.095  1.00  0.00    -0.191 NA
HETATM   12  C   UNL     1     -42.675  55.585 -56.270  1.00  0.00     0.140 A 
HETATM   13  O   UNL     1     -41.914  54.458 -55.907  1.00  0.00    -0.279 OA
ENDROOT
BRANCH   8  14
HETATM   14  C   UNL     1     -42.580  57.169 -53.033  1.00  0.00    -0.033 A 
HETATM   15  C   UNL     1     -43.304  58.085 -52.207  1.00  0.00    -0.016 A 
HETATM   16  C   UNL     1     -42.586  59.096 -51.502  1.00  0.00     0.008 A 
HETATM   17  C   UNL     1     -44.714  58.056 -52.040  1.00  0.00     0.013 A 
HETATM   18  C   UNL     1     -43.299  60.000 -50.685  1.00  0.00     0.015 A 
HETATM   19  C   UNL     1     -41.177  59.190 -51.630  1.00  0.00     0.079 A 
HETATM   20  C   UNL     1     -44.683  59.940 -50.544  1.00  0.00     0.001 A 
HETATM   21  C   UNL     1     -45.391  58.966 -51.223  1.00  0.00     0.001 A 
HETATM   22  C   UNL     1     -40.488  58.294 -52.441  1.00  0.00     0.038 A 
HETATM   23  C   UNL     1     -41.178  57.305 -53.133  1.00  0.00     0.012 A 
BRANCH  19  24
HETATM   24  O   UNL     1     -40.564  60.195 -50.916  1.00  0.00    -0.355 OA
HETATM   25  C   UNL     1     -39.318  59.907 -50.296  1.00  0.00     0.210 C 
ENDBRANCH  19  24
ENDBRANCH   8  14
BRANCH  12  26
HETATM   26  N   UNL     1     -42.688  55.798 -57.630  1.00  0.00    -0.282 NA
HETATM   27  H   UNL     1     -43.425  56.409 -57.974  1.00  0.00     0.126 HD
HETATM   28  H   UNL     1     -41.768  56.038 -57.992  1.00  0.00     0.126 HD
ENDBRANCH  12  26
TORSDOF 3
ENDMDL
MODEL 8
REMARK VINA RESULT:      -7.2      2.977      5.333
REMARK  3 active torsions:
REMARK  status: ('A' for Active; 'I' for Inactive)
REMARK    1  A    between atoms: C_8  and  C_9 
REMARK    2  A    between atoms: C_16  and  O_17 
REMARK    3  A    between atoms: C_24  and  N_25 
ROOT
HETATM    1  C   UNL     1     -42.103  59.132 -56.126  1.00  0.00     0.073 C 
HETATM    2  C   UNL     1     -42.385  57.698 -56.379  1.00  0.00     0.062 A 
HETATM    3  N   UNL     1     -42.926  57.309 -57.547  1.00  0.00    -0.177 NA
HETATM    4  N   UNL     1     -43.030  55.968 -57.436  1.00  0.00    -0.256 N 
HETATM    5  H   UNL     1     -43.408  55.440 -58.214  1.00  0.00     0.191 HD
HETATM    6  C   UNL     1     -42.575  55.505 -56.244  1.00  0.00     0.175 A 
HETATM    7  C   UNL     1     -42.163  56.594 -55.523  1.00  0.00     0.034 A 
HETATM    8  C   UNL     1     -41.585  56.412 -54.161  1.00  0.00     0.106 A 
HETATM    9  C   UNL     1     -41.501  54.921 -53.813  1.00  0.00     0.081 A 
HETATM   10  C   UNL     1     -40.872  54.591 -52.577  1.00  0.00     0.100 C 
HETATM   11  N   UNL     1     -40.363  54.311 -51.572  1.00  0.00    -0.191 NA
HETATM   12  C   UNL     1     -41.955  53.940 -54.641  1.00  0.00     0.140 A 
HETATM   13  O   UNL     1     -42.542  54.227 -55.888  1.00  0.00    -0.279 OA
ENDROOT
BRANCH   8  14
HETATM   14  C   UNL     1     -42.485  57.204 -53.206  1.00  0.00    -0.033 A 
HETATM   15  C   UNL     1     -41.969  58.138 -52.254  1.00  0.00    -0.016 A 
HETATM   16  C   UNL     1     -42.879  58.820 -51.393  1.00  0.00     0.008 A 
HETATM   17  C   UNL     1     -40.589  58.436 -52.105  1.00  0.00     0.013 A 
HETATM   18  C   UNL     1     -42.371  59.744 -50.453  1.00  0.00     0.015 A 
HETATM   19  C   UNL     1     -44.270  58.564 -51.480  1.00  0.00     0.079 A 
HETATM   20  C   UNL     1     -41.010  60.012 -50.337  1.00  0.00     0.001 A 
HETATM   21  C   UNL     1     -40.117  59.356 -51.165  1.00  0.00     0.001 A 
HETATM   22  C   UNL     1     -44.756  57.649 -52.408  1.00  0.00     0.038 A 
HETATM   23  C   UNL     1     -43.879  56.978 -53.253  1.00  0.00     0.012 A 
BRANCH  19  24
HETATM   24  O   UNL     1     -45.076  59.265 -50.611  1.00  0.00    -0.355 OA
HETATM   25  C   UNL     1     -46.162  60.001 -51.157  1.00  0.00     0.210 C 
ENDBRANCH  19  24
ENDBRANCH   8  14
BRANCH  12  26
HETATM   26  N   UNL     1     -41.900  52.588 -54.382  1.00  0.00    -0.282 NA
HETATM   27  H   UNL     1     -42.151  51.980 -55.156  1.00  0.00     0.126 HD
HETATM   28  H   UNL     1     -41.031  52.319 -53.927  1.00  0.00     0.126 HD
ENDBRANCH  12  26
TORSDOF 3
ENDMDL
MODEL 9
REMARK VINA RESULT:      -7.2      2.933      4.606
REMARK  3 active torsions:
REMARK  status: ('A' for Active; 'I' for Inactive)
REMARK    1  A    between atoms: C_8  and  C_9 
REMARK    2  A    between atoms: C_16  and  O_17 
REMARK    3  A    between atoms: C_24  and  N_25 
ROOT
HETATM    1  C   UNL     1     -43.140  55.733 -54.925  1.00  0.00     0.073 C 
HETATM    2  C   UNL     1     -43.780  57.013 -55.314  1.00  0.00     0.062 A 
HETATM    3  N   UNL     1     -43.843  57.376 -56.608  1.00  0.00    -0.177 NA
HETATM    4  N   UNL     1     -44.486  58.561 -56.592  1.00  0.00    -0.256 N 
HETATM    5  H   UNL     1     -44.664  59.034 -57.470  1.00  0.00     0.191 HD
HETATM    6  C   UNL     1     -44.827  58.955 -55.339  1.00  0.00     0.175 A 
HETATM    7  C   UNL     1     -44.375  57.988 -54.479  1.00  0.00     0.034 A 
HETATM    8  C   UNL     1     -44.616  58.120 -53.014  1.00  0.00     0.106 A 
HETATM    9  C   UNL     1     -45.438  59.381 -52.721  1.00  0.00     0.081 A 
HETATM   10  C   UNL     1     -45.833  59.582 -51.367  1.00  0.00     0.100 C 
HETATM   11  N   UNL     1     -46.158  59.757 -50.266  1.00  0.00    -0.191 NA
HETATM   12  C   UNL     1     -45.822  60.258 -53.690  1.00  0.00     0.140 A 
HETATM   13  O   UNL     1     -45.486  60.068 -55.044  1.00  0.00    -0.279 OA
ENDROOT
BRANCH   8  14
HETATM   14  C   UNL     1     -43.234  58.134 -52.353  1.00  0.00    -0.033 A 
HETATM   15  C   UNL     1     -42.769  57.074 -51.513  1.00  0.00    -0.016 A 
HETATM   16  C   UNL     1     -41.473  57.177 -50.925  1.00  0.00     0.008 A 
HETATM   17  C   UNL     1     -43.523  55.908 -51.218  1.00  0.00     0.013 A 
HETATM   18  C   UNL     1     -41.011  56.130 -50.097  1.00  0.00     0.015 A 
HETATM   19  C   UNL     1     -40.669  58.318 -51.168  1.00  0.00     0.079 A 
HETATM   20  C   UNL     1     -41.779  55.000 -49.831  1.00  0.00     0.001 A 
HETATM   21  C   UNL     1     -43.038  54.889 -50.393  1.00  0.00     0.001 A 
HETATM   22  C   UNL     1     -41.138  59.343 -51.984  1.00  0.00     0.038 A 
HETATM   23  C   UNL     1     -42.399  59.253 -52.563  1.00  0.00     0.012 A 
BRANCH  19  24
HETATM   24  O   UNL     1     -39.433  58.336 -50.561  1.00  0.00    -0.355 OA
HETATM   25  C   UNL     1     -38.687  59.545 -50.605  1.00  0.00     0.210 C 
ENDBRANCH  19  24
ENDBRANCH   8  14
BRANCH  12  26
HETATM   26  N   UNL     1     -46.562  61.400 -53.484  1.00  0.00    -0.282 NA
HETATM   27  H   UNL     1     -47.192  61.660 -54.239  1.00  0.00     0.126 HD
HETATM   28  H   UNL     1     -47.007  61.411 -52.570  1.00  0.00     0.126 HD
ENDBRANCH  12  26
TORSDOF 3
ENDMDL
MODEL 10
REMARK VINA RESULT:      -7.1     15.711     18.109
REMARK  3 active torsions:
REMARK  status: ('A' for Active; 'I' for Inactive)
REMARK    1  A    between atoms: C_8  and  C_9 
REMARK    2  A    between atoms: C_16  and  O_17 
REMARK    3  A    between atoms: C_24  and  N_25 
ROOT
HETATM    1  C   UNL     1     -31.925  40.822 -52.043  1.00  0.00     0.073 C 
HETATM    2  C   UNL     1     -32.793  40.188 -51.021  1.00  0.00     0.062 A 
HETATM    3  N   UNL     1     -32.252  39.628 -49.925  1.00  0.00    -0.177 NA
HETATM    4  N   UNL     1     -33.312  39.169 -49.227  1.00  0.00    -0.256 N 
HETATM    5  H   UNL     1     -33.152  38.708 -48.339  1.00  0.00     0.191 HD
HETATM    6  C   UNL     1     -34.494  39.419 -49.845  1.00  0.00     0.175 A 
HETATM    7  C   UNL     1     -34.202  40.064 -51.018  1.00  0.00     0.034 A 
HETATM    8  C   UNL     1     -35.303  40.498 -51.925  1.00  0.00     0.106 A 
HETATM    9  C   UNL     1     -36.666  40.168 -51.304  1.00  0.00     0.081 A 
HETATM   10  C   UNL     1     -37.815  40.619 -52.016  1.00  0.00     0.100 C 
HETATM   11  N   UNL     1     -38.758  40.981 -52.589  1.00  0.00    -0.191 NA
HETATM   12  C   UNL     1     -36.800  39.518 -50.115  1.00  0.00     0.140 A 
HETATM   13  O   UNL     1     -35.687  39.095 -49.365  1.00  0.00    -0.279 OA
ENDROOT
BRANCH   8  14
HETATM   14  C   UNL     1     -35.061  39.788 -53.261  1.00  0.00    -0.033 A 
HETATM   15  C   UNL     1     -35.012  40.485 -54.509  1.00  0.00    -0.016 A 
HETATM   16  C   UNL     1     -34.798  39.741 -55.707  1.00  0.00     0.008 A 
HETATM   17  C   UNL     1     -35.167  41.890 -54.638  1.00  0.00     0.013 A 
HETATM   18  C   UNL     1     -34.747  40.428 -56.941  1.00  0.00     0.015 A 
HETATM   19  C   UNL     1     -34.645  38.333 -55.655  1.00  0.00     0.079 A 
HETATM   20  C   UNL     1     -34.902  41.808 -57.028  1.00  0.00     0.001 A 
HETATM   21  C   UNL     1     -35.112  42.540 -55.874  1.00  0.00     0.001 A 
HETATM   22  C   UNL     1     -34.700  37.669 -54.433  1.00  0.00     0.038 A 
HETATM   23  C   UNL     1     -34.908  38.384 -53.259  1.00  0.00     0.012 A 
BRANCH  19  24
HETATM   24  O   UNL     1     -34.443  37.694 -56.857  1.00  0.00    -0.355 OA
HETATM   25  C   UNL     1     -33.241  36.954 -57.025  1.00  0.00     0.210 C 
ENDBRANCH  19  24
ENDBRANCH   8  14
BRANCH  12  26
HETATM   26  N   UNL     1     -37.997  39.201 -49.511  1.00  0.00    -0.282 NA
HETATM   27  H   UNL     1     -38.600  39.988 -49.287  1.00  0.00     0.126 HD
HETATM   28  H   UNL     1     -38.483  38.448 -49.991  1.00  0.00     0.126 HD
ENDBRANCH  12  26
TORSDOF 3
ENDMDL
