MODEL 1
REMARK VINA RESULT:      -9.9      0.000      0.000
REMARK  8 active torsions:
REMARK  status: ('A' for Active; 'I' for Inactive)
REMARK    1  A    between atoms: C_4  and  C_5 
REMARK    2  A    between atoms: C_5  and  N_6 
REMARK    3  A    between atoms: C_5  and  C_31 
REMARK       I    between atoms: N_6  and  C_7 
REMARK    4  A    between atoms: N_6  and  C_21 
REMARK    5  A    between atoms: C_7  and  C_8 
REMARK    6  A    between atoms: C_11  and  C_12 
REMARK    7  A    between atoms: C_21  and  C_22 
REMARK       I    between atoms: C_31  and  N_32 
REMARK    8  A    between atoms: N_32  and  C_33 
ROOT
HETATM    1  N   UNL     1     -43.270  56.612 -54.331  1.00  0.00    -0.323 N 
HETATM    2  C   UNL     1     -43.275  55.288 -54.773  1.00  0.00     0.271 C 
HETATM    3  O   UNL     1     -44.331  54.714 -55.043  1.00  0.00    -0.266 OA
ENDROOT
BRANCH   1   4
HETATM    4  C   UNL     1     -44.515  57.418 -54.408  1.00  0.00     0.237 C 
BRANCH   4   5
HETATM    5  C   UNL     1     -44.494  58.595 -53.480  1.00  0.00     0.085 A 
HETATM    6  O   UNL     1     -45.125  58.426 -52.278  1.00  0.00    -0.317 OA
HETATM    7  C   UNL     1     -45.020  59.600 -51.596  1.00  0.00     0.049 A 
HETATM    8  C   UNL     1     -45.645  59.647 -50.259  1.00  0.00     0.076 C 
HETATM    9  C   UNL     1     -44.328  60.524 -52.345  1.00  0.00     0.035 A 
HETATM   10  C   UNL     1     -43.988  59.880 -53.558  1.00  0.00     0.038 A 
ENDBRANCH   4   5
BRANCH   4  11
HETATM   11  C   UNL     1     -44.960  57.845 -55.836  1.00  0.00     0.247 C 
HETATM   12  N   UNL     1     -44.234  57.306 -56.882  1.00  0.00    -0.354 N 
HETATM   13  H   UNL     1     -43.292  57.011 -56.633  1.00  0.00     0.162 HD
HETATM   14  O   UNL     1     -45.856  58.669 -56.022  1.00  0.00    -0.271 OA
BRANCH  12  15
HETATM   15  C   UNL     1     -44.444  57.696 -58.269  1.00  0.00     0.084 C 
HETATM   16  C   UNL     1     -43.395  58.721 -58.722  1.00  0.00     0.025 C 
HETATM   17  C   UNL     1     -42.005  58.105 -58.888  1.00  0.00     0.002 C 
HETATM   18  C   UNL     1     -42.032  56.887 -59.807  1.00  0.00     0.000 C 
HETATM   19  C   UNL     1     -43.047  55.849 -59.343  1.00  0.00     0.002 C 
HETATM   20  C   UNL     1     -44.439  56.458 -59.174  1.00  0.00     0.025 C 
ENDBRANCH  12  15
ENDBRANCH   4  11
ENDBRANCH   1   4
BRANCH   1  21
HETATM   21  C   UNL     1     -42.305  57.062 -53.325  1.00  0.00     0.166 C 
BRANCH  21  22
HETATM   22  C   UNL     1     -42.200  56.211 -52.077  1.00  0.00    -0.037 A 
HETATM   23  C   UNL     1     -40.913  55.943 -51.572  1.00  0.00     0.048 A 
HETATM   24  C   UNL     1     -40.798  55.183 -50.427  1.00  0.00     0.105 A 
HETATM   25  C   UNL     1     -41.899  54.689 -49.773  1.00  0.00     0.105 A 
HETATM   26  O   UNL     1     -39.632  54.838 -49.819  1.00  0.00    -0.323 OA
HETATM   27  O   UNL     1     -41.567  53.966 -48.671  1.00  0.00    -0.323 OA
HETATM   28  C   UNL     1     -43.176  54.935 -50.225  1.00  0.00     0.040 A 
HETATM   29  C   UNL     1     -40.128  54.062 -48.708  1.00  0.00     0.352 A 
HETATM   30  C   UNL     1     -43.324  55.710 -51.381  1.00  0.00     0.012 A 
ENDBRANCH  21  22
ENDBRANCH   1  21
BRANCH   2  31
HETATM   31  C   UNL     1     -42.034  54.543 -54.784  1.00  0.00     0.101 C 
HETATM   32  N   UNL     1     -41.908  53.367 -54.078  1.00  0.00    -0.351 N 
HETATM   33  H   UNL     1     -42.656  52.965 -53.528  1.00  0.00     0.166 HD
HETATM   34  C   UNL     1     -40.614  52.903 -54.111  1.00  0.00     0.043 C 
HETATM   35  C   UNL     1     -39.936  53.728 -54.993  1.00  0.00     0.033 C 
HETATM   36  C   UNL     1     -40.828  54.739 -55.429  1.00  0.00     0.037 C 
BRANCH  34  37
HETATM   37  C   UNL     1     -40.155  51.774 -53.298  1.00  0.00    -0.009 A 
HETATM   38  C   UNL     1     -39.952  50.505 -53.860  1.00  0.00     0.013 A 
HETATM   39  C   UNL     1     -39.567  49.425 -53.062  1.00  0.00     0.001 A 
HETATM   40  C   UNL     1     -39.377  49.599 -51.693  1.00  0.00     0.000 A 
HETATM   41  C   UNL     1     -39.564  50.856 -51.123  1.00  0.00     0.001 A 
HETATM   42  C   UNL     1     -39.948  51.937 -51.922  1.00  0.00     0.013 A 
ENDBRANCH  34  37
ENDBRANCH   2  31
TORSDOF 8
ENDMDL
MODEL 2
REMARK VINA RESULT:      -9.2      0.999      1.645
REMARK  8 active torsions:
REMARK  status: ('A' for Active; 'I' for Inactive)
REMARK    1  A    between atoms: C_4  and  C_5 
REMARK    2  A    between atoms: C_5  and  N_6 
REMARK    3  A    between atoms: C_5  and  C_31 
REMARK       I    between atoms: N_6  and  C_7 
REMARK    4  A    between atoms: N_6  and  C_21 
REMARK    5  A    between atoms: C_7  and  C_8 
REMARK    6  A    between atoms: C_11  and  C_12 
REMARK    7  A    between atoms: C_21  and  C_22 
REMARK       I    between atoms: C_31  and  N_32 
REMARK    8  A    between atoms: N_32  and  C_33 
ROOT
HETATM    1  N   UNL     1     -43.239  56.806 -54.198  1.00  0.00    -0.323 N 
HETATM    2  C   UNL     1     -43.265  55.500 -54.687  1.00  0.00     0.271 C 
HETATM    3  O   UNL     1     -44.330  54.959 -54.992  1.00  0.00    -0.266 OA
ENDROOT
BRANCH   1   4
HETATM    4  C   UNL     1     -44.463  57.643 -54.265  1.00  0.00     0.237 C 
BRANCH   4   5
HETATM    5  C   UNL     1     -44.463  58.744 -53.248  1.00  0.00     0.085 A 
HETATM    6  O   UNL     1     -45.124  58.485 -52.079  1.00  0.00    -0.317 OA
HETATM    7  C   UNL     1     -45.034  59.601 -51.305  1.00  0.00     0.049 A 
HETATM    8  C   UNL     1     -45.691  59.547 -49.985  1.00  0.00     0.076 C 
HETATM    9  C   UNL     1     -44.320  60.577 -51.962  1.00  0.00     0.035 A 
HETATM   10  C   UNL     1     -43.951  60.028 -53.212  1.00  0.00     0.038 A 
ENDBRANCH   4   5
BRANCH   4  11
HETATM   11  C   UNL     1     -44.836  58.189 -55.673  1.00  0.00     0.247 C 
HETATM   12  N   UNL     1     -43.817  58.810 -56.371  1.00  0.00    -0.354 N 
HETATM   13  H   UNL     1     -43.070  59.180 -55.785  1.00  0.00     0.162 HD
HETATM   14  O   UNL     1     -45.986  58.137 -56.111  1.00  0.00    -0.271 OA
BRANCH  12  15
HETATM   15  C   UNL     1     -44.030  59.479 -57.647  1.00  0.00     0.084 C 
HETATM   16  C   UNL     1     -44.193  60.994 -57.458  1.00  0.00     0.025 C 
HETATM   17  C   UNL     1     -42.883  61.684 -57.078  1.00  0.00     0.002 C 
HETATM   18  C   UNL     1     -41.765  61.360 -58.064  1.00  0.00     0.000 C 
HETATM   19  C   UNL     1     -41.573  59.857 -58.230  1.00  0.00     0.002 C 
HETATM   20  C   UNL     1     -42.879  59.160 -58.610  1.00  0.00     0.025 C 
ENDBRANCH  12  15
ENDBRANCH   4  11
ENDBRANCH   1   4
BRANCH   1  21
HETATM   21  C   UNL     1     -42.279  57.199 -53.163  1.00  0.00     0.166 C 
BRANCH  21  22
HETATM   22  C   UNL     1     -42.178  56.278 -51.965  1.00  0.00    -0.037 A 
HETATM   23  C   UNL     1     -40.897  56.017 -51.444  1.00  0.00     0.048 A 
HETATM   24  C   UNL     1     -40.786  55.192 -50.344  1.00  0.00     0.105 A 
HETATM   25  C   UNL     1     -41.887  54.627 -49.751  1.00  0.00     0.105 A 
HETATM   26  O   UNL     1     -39.625  54.846 -49.727  1.00  0.00    -0.323 OA
HETATM   27  O   UNL     1     -41.560  53.848 -48.686  1.00  0.00    -0.323 OA
HETATM   28  C   UNL     1     -43.159  54.862 -50.220  1.00  0.00     0.040 A 
HETATM   29  C   UNL     1     -40.124  53.989 -48.679  1.00  0.00     0.352 A 
HETATM   30  C   UNL     1     -43.303  55.702 -51.331  1.00  0.00     0.012 A 
ENDBRANCH  21  22
ENDBRANCH   1  21
BRANCH   2  31
HETATM   31  C   UNL     1     -42.042  54.727 -54.705  1.00  0.00     0.101 C 
HETATM   32  N   UNL     1     -41.955  53.522 -54.044  1.00  0.00    -0.351 N 
HETATM   33  H   UNL     1     -42.721  53.116 -53.523  1.00  0.00     0.166 HD
HETATM   34  C   UNL     1     -40.670  53.030 -54.073  1.00  0.00     0.043 C 
HETATM   35  C   UNL     1     -39.958  53.873 -54.908  1.00  0.00     0.033 C 
HETATM   36  C   UNL     1     -40.819  54.921 -55.320  1.00  0.00     0.037 C 
BRANCH  34  37
HETATM   37  C   UNL     1     -40.252  51.860 -53.297  1.00  0.00    -0.009 A 
HETATM   38  C   UNL     1     -40.023  51.944 -51.916  1.00  0.00     0.013 A 
HETATM   39  C   UNL     1     -39.571  50.833 -51.199  1.00  0.00     0.001 A 
HETATM   40  C   UNL     1     -39.345  49.623 -51.853  1.00  0.00     0.000 A 
HETATM   41  C   UNL     1     -39.580  49.522 -53.222  1.00  0.00     0.001 A 
HETATM   42  C   UNL     1     -40.032  50.633 -53.938  1.00  0.00     0.013 A 
ENDBRANCH  34  37
ENDBRANCH   2  31
TORSDOF 8
ENDMDL
MODEL 3
REMARK VINA RESULT:      -8.9      1.798      2.494
REMARK  8 active torsions:
REMARK  status: ('A' for Active; 'I' for Inactive)
REMARK    1  A    between atoms: C_4  and  C_5 
REMARK    2  A    between atoms: C_5  and  N_6 
REMARK    3  A    between atoms: C_5  and  C_31 
REMARK       I    between atoms: N_6  and  C_7 
REMARK    4  A    between atoms: N_6  and  C_21 
REMARK    5  A    between atoms: C_7  and  C_8 
REMARK    6  A    between atoms: C_11  and  C_12 
REMARK    7  A    between atoms: C_21  and  C_22 
REMARK       I    between atoms: C_31  and  N_32 
REMARK    8  A    between atoms: N_32  and  C_33 
ROOT
HETATM    1  N   UNL     1     -42.966  56.498 -55.379  1.00  0.00    -0.323 N 
HETATM    2  C   UNL     1     -43.100  55.159 -55.010  1.00  0.00     0.271 C 
HETATM    3  O   UNL     1     -44.192  54.702 -54.668  1.00  0.00    -0.266 OA
ENDROOT
BRANCH   1   4
HETATM    4  C   UNL     1     -44.179  57.327 -55.594  1.00  0.00     0.237 C 
BRANCH   4   5
HETATM    5  C   UNL     1     -44.423  58.290 -54.471  1.00  0.00     0.085 A 
HETATM    6  O   UNL     1     -44.746  57.736 -53.262  1.00  0.00    -0.317 OA
HETATM    7  C   UNL     1     -44.952  58.759 -52.388  1.00  0.00     0.049 A 
HETATM    8  C   UNL     1     -45.322  58.388 -51.009  1.00  0.00     0.076 C 
HETATM    9  C   UNL     1     -44.765  59.967 -53.020  1.00  0.00     0.035 A 
HETATM   10  C   UNL     1     -44.425  59.668 -54.360  1.00  0.00     0.038 A 
ENDBRANCH   4   5
BRANCH   4  11
HETATM   11  C   UNL     1     -44.276  58.045 -56.970  1.00  0.00     0.247 C 
HETATM   12  N   UNL     1     -45.150  57.486 -57.885  1.00  0.00    -0.354 N 
HETATM   13  H   UNL     1     -45.343  56.498 -57.731  1.00  0.00     0.162 HD
HETATM   14  O   UNL     1     -43.566  59.010 -57.256  1.00  0.00    -0.271 OA
BRANCH  12  15
HETATM   15  C   UNL     1     -45.268  57.963 -59.255  1.00  0.00     0.084 C 
HETATM   16  C   UNL     1     -44.182  57.352 -60.151  1.00  0.00     0.025 C 
HETATM   17  C   UNL     1     -44.415  55.866 -60.428  1.00  0.00     0.002 C 
HETATM   18  C   UNL     1     -45.812  55.607 -60.985  1.00  0.00     0.000 C 
HETATM   19  C   UNL     1     -46.899  56.181 -60.082  1.00  0.00     0.002 C 
HETATM   20  C   UNL     1     -46.671  57.666 -59.800  1.00  0.00     0.025 C 
ENDBRANCH  12  15
ENDBRANCH   4  11
ENDBRANCH   1   4
BRANCH   1  21
HETATM   21  C   UNL     1     -41.756  57.252 -55.040  1.00  0.00     0.166 C 
BRANCH  21  22
HETATM   22  C   UNL     1     -41.503  57.473 -53.564  1.00  0.00    -0.037 A 
HETATM   23  C   UNL     1     -40.988  58.721 -53.166  1.00  0.00     0.048 A 
HETATM   24  C   UNL     1     -40.764  58.947 -51.824  1.00  0.00     0.105 A 
HETATM   25  C   UNL     1     -41.032  57.991 -50.876  1.00  0.00     0.105 A 
HETATM   26  O   UNL     1     -40.273  60.094 -51.284  1.00  0.00    -0.323 OA
HETATM   27  O   UNL     1     -40.740  58.413 -49.617  1.00  0.00    -0.323 OA
HETATM   28  C   UNL     1     -41.546  56.761 -51.218  1.00  0.00     0.040 A 
HETATM   29  C   UNL     1     -40.256  59.746 -49.884  1.00  0.00     0.352 A 
HETATM   30  C   UNL     1     -41.790  56.506 -52.572  1.00  0.00     0.012 A 
ENDBRANCH  21  22
ENDBRANCH   1  21
BRANCH   2  31
HETATM   31  C   UNL     1     -41.915  54.337 -54.898  1.00  0.00     0.101 C 
HETATM   32  N   UNL     1     -41.877  53.261 -54.039  1.00  0.00    -0.351 N 
HETATM   33  H   UNL     1     -42.656  52.989 -53.453  1.00  0.00     0.166 HD
HETATM   34  C   UNL     1     -40.618  52.709 -53.987  1.00  0.00     0.043 C 
HETATM   35  C   UNL     1     -39.877  53.358 -54.959  1.00  0.00     0.033 C 
HETATM   36  C   UNL     1     -40.692  54.360 -55.543  1.00  0.00     0.037 C 
BRANCH  34  37
HETATM   37  C   UNL     1     -40.247  51.672 -53.021  1.00  0.00    -0.009 A 
HETATM   38  C   UNL     1     -40.166  51.948 -51.649  1.00  0.00     0.013 A 
HETATM   39  C   UNL     1     -39.757  50.963 -50.746  1.00  0.00     0.001 A 
HETATM   40  C   UNL     1     -39.426  49.688 -51.203  1.00  0.00     0.000 A 
HETATM   41  C   UNL     1     -39.513  49.397 -52.562  1.00  0.00     0.001 A 
HETATM   42  C   UNL     1     -39.923  50.382 -53.465  1.00  0.00     0.013 A 
ENDBRANCH  34  37
ENDBRANCH   2  31
TORSDOF 8
ENDMDL
MODEL 4
REMARK VINA RESULT:      -8.9      2.314      7.074
REMARK  8 active torsions:
REMARK  status: ('A' for Active; 'I' for Inactive)
REMARK    1  A    between atoms: C_4  and  C_5 
REMARK    2  A    between atoms: C_5  and  N_6 
REMARK    3  A    between atoms: C_5  and  C_31 
REMARK       I    between atoms: N_6  and  C_7 
REMARK    4  A    between atoms: N_6  and  C_21 
REMARK    5  A    between atoms: C_7  and  C_8 
REMARK    6  A    between atoms: C_11  and  C_12 
REMARK    7  A    between atoms: C_21  and  C_22 
REMARK       I    between atoms: C_31  and  N_32 
REMARK    8  A    between atoms: N_32  and  C_33 
ROOT
HETATM    1  N   UNL     1     -43.239  56.785 -54.167  1.00  0.00    -0.323 N 
HETATM    2  C   UNL     1     -43.641  57.669 -55.170  1.00  0.00     0.271 C 
HETATM    3  O   UNL     1     -44.014  58.811 -54.895  1.00  0.00    -0.266 OA
ENDROOT
BRANCH   1   4
HETATM    4  C   UNL     1     -43.029  57.285 -52.785  1.00  0.00     0.237 C 
BRANCH   4   5
HETATM    5  C   UNL     1     -41.698  57.952 -52.612  1.00  0.00     0.085 A 
HETATM    6  O   UNL     1     -41.456  58.504 -51.384  1.00  0.00    -0.317 OA
HETATM    7  C   UNL     1     -40.222  59.076 -51.432  1.00  0.00     0.049 A 
HETATM    8  C   UNL     1     -39.753  59.745 -50.203  1.00  0.00     0.076 C 
HETATM    9  C   UNL     1     -39.664  58.898 -52.677  1.00  0.00     0.035 A 
HETATM   10  C   UNL     1     -40.612  58.174 -53.438  1.00  0.00     0.038 A 
ENDBRANCH   4   5
BRANCH   4  11
HETATM   11  C   UNL     1     -44.171  58.167 -52.201  1.00  0.00     0.247 C 
HETATM   12  N   UNL     1     -43.936  59.529 -52.188  1.00  0.00    -0.354 N 
HETATM   13  H   UNL     1     -42.951  59.787 -52.196  1.00  0.00     0.162 HD
HETATM   14  O   UNL     1     -45.190  57.677 -51.713  1.00  0.00    -0.271 OA
BRANCH  12  15
HETATM   15  C   UNL     1     -44.849  60.479 -51.568  1.00  0.00     0.084 C 
HETATM   16  C   UNL     1     -44.501  60.697 -50.089  1.00  0.00     0.025 C 
HETATM   17  C   UNL     1     -43.210  61.495 -49.900  1.00  0.00     0.002 C 
HETATM   18  C   UNL     1     -43.241  62.813 -50.668  1.00  0.00     0.000 C 
HETATM   19  C   UNL     1     -43.552  62.602 -52.146  1.00  0.00     0.002 C 
HETATM   20  C   UNL     1     -44.841  61.804 -52.342  1.00  0.00     0.025 C 
ENDBRANCH  12  15
ENDBRANCH   4  11
ENDBRANCH   1   4
BRANCH   1  21
HETATM   21  C   UNL     1     -43.537  55.354 -54.267  1.00  0.00     0.166 C 
BRANCH  21  22
HETATM   22  C   UNL     1     -42.405  54.413 -53.913  1.00  0.00    -0.037 A 
HETATM   23  C   UNL     1     -42.241  54.063 -52.560  1.00  0.00     0.048 A 
HETATM   24  C   UNL     1     -41.225  53.196 -52.219  1.00  0.00     0.105 A 
HETATM   25  C   UNL     1     -40.379  52.668 -53.163  1.00  0.00     0.105 A 
HETATM   26  O   UNL     1     -40.939  52.764 -50.962  1.00  0.00    -0.323 OA
HETATM   27  O   UNL     1     -39.449  51.839 -52.619  1.00  0.00    -0.323 OA
HETATM   28  C   UNL     1     -40.508  52.973 -54.498  1.00  0.00     0.040 A 
HETATM   29  C   UNL     1     -39.808  51.907 -51.223  1.00  0.00     0.352 A 
HETATM   30  C   UNL     1     -41.536  53.846 -54.874  1.00  0.00     0.012 A 
ENDBRANCH  21  22
ENDBRANCH   1  21
BRANCH   2  31
HETATM   31  C   UNL     1     -43.747  57.191 -56.531  1.00  0.00     0.101 C 
HETATM   32  N   UNL     1     -44.710  57.686 -57.383  1.00  0.00    -0.351 N 
HETATM   33  H   UNL     1     -45.379  58.396 -57.114  1.00  0.00     0.166 HD
HETATM   34  C   UNL     1     -44.724  56.997 -58.574  1.00  0.00     0.043 C 
HETATM   35  C   UNL     1     -43.635  56.143 -58.532  1.00  0.00     0.033 C 
HETATM   36  C   UNL     1     -43.012  56.279 -57.265  1.00  0.00     0.037 C 
BRANCH  34  37
HETATM   37  C   UNL     1     -45.762  57.190 -59.589  1.00  0.00    -0.009 A 
HETATM   38  C   UNL     1     -46.272  58.464 -59.879  1.00  0.00     0.013 A 
HETATM   39  C   UNL     1     -47.300  58.625 -60.811  1.00  0.00     0.001 A 
HETATM   40  C   UNL     1     -47.830  57.516 -61.467  1.00  0.00     0.000 A 
HETATM   41  C   UNL     1     -47.325  56.246 -61.199  1.00  0.00     0.001 A 
HETATM   42  C   UNL     1     -46.296  56.085 -60.267  1.00  0.00     0.013 A 
ENDBRANCH  34  37
ENDBRANCH   2  31
TORSDOF 8
ENDMDL
MODEL 5
REMARK VINA RESULT:      -8.8      2.204      6.316
REMARK  8 active torsions:
REMARK  status: ('A' for Active; 'I' for Inactive)
REMARK    1  A    between atoms: C_4  and  C_5 
REMARK    2  A    between atoms: C_5  and  N_6 
REMARK    3  A    between atoms: C_5  and  C_31 
REMARK       I    between atoms: N_6  and  C_7 
REMARK    4  A    between atoms: N_6  and  C_21 
REMARK    5  A    between atoms: C_7  and  C_8 
REMARK    6  A    between atoms: C_11  and  C_12 
REMARK    7  A    between atoms: C_21  and  C_22 
REMARK       I    between atoms: C_31  and  N_32 
REMARK    8  A    between atoms: N_32  and  C_33 
ROOT
HETATM    1  N   UNL     1     -42.547  57.207 -51.064  1.00  0.00    -0.323 N 
HETATM    2  C   UNL     1     -41.260  56.833 -50.677  1.00  0.00     0.271 C 
HETATM    3  O   UNL     1     -40.351  57.663 -50.611  1.00  0.00    -0.266 OA
ENDROOT
BRANCH   1   4
HETATM    4  C   UNL     1     -42.894  58.647 -51.171  1.00  0.00     0.237 C 
BRANCH   4   5
HETATM    5  C   UNL     1     -42.565  59.219 -52.517  1.00  0.00     0.085 A 
HETATM    6  O   UNL     1     -43.587  59.854 -53.168  1.00  0.00    -0.317 OA
HETATM    7  C   UNL     1     -43.103  60.277 -54.368  1.00  0.00     0.049 A 
HETATM    8  C   UNL     1     -44.048  60.990 -55.249  1.00  0.00     0.076 C 
HETATM    9  C   UNL     1     -41.780  59.921 -54.498  1.00  0.00     0.035 A 
HETATM   10  C   UNL     1     -41.431  59.241 -53.308  1.00  0.00     0.038 A 
ENDBRANCH   4   5
BRANCH   4  11
HETATM   11  C   UNL     1     -44.340  59.030 -50.744  1.00  0.00     0.247 C 
HETATM   12  N   UNL     1     -44.494  60.287 -50.187  1.00  0.00    -0.354 N 
HETATM   13  H   UNL     1     -43.646  60.670 -49.773  1.00  0.00     0.162 HD
HETATM   14  O   UNL     1     -45.279  58.237 -50.828  1.00  0.00    -0.271 OA
BRANCH  12  15
HETATM   15  C   UNL     1     -45.755  60.751 -49.628  1.00  0.00     0.084 C 
HETATM   16  C   UNL     1     -45.605  61.107 -48.142  1.00  0.00     0.025 C 
HETATM   17  C   UNL     1     -44.796  62.387 -47.922  1.00  0.00     0.002 C 
HETATM   18  C   UNL     1     -45.359  63.556 -48.724  1.00  0.00     0.000 C 
HETATM   19  C   UNL     1     -45.478  63.223 -50.207  1.00  0.00     0.002 C 
HETATM   20  C   UNL     1     -46.284  61.944 -50.434  1.00  0.00     0.025 C 
ENDBRANCH  12  15
ENDBRANCH   4  11
ENDBRANCH   1   4
BRANCH   1  21
HETATM   21  C   UNL     1     -43.376  56.311 -51.874  1.00  0.00     0.166 C 
BRANCH  21  22
HETATM   22  C   UNL     1     -43.109  56.324 -53.365  1.00  0.00    -0.037 A 
HETATM   23  C   UNL     1     -44.092  56.883 -54.203  1.00  0.00     0.048 A 
HETATM   24  C   UNL     1     -43.861  56.918 -55.561  1.00  0.00     0.105 A 
HETATM   25  C   UNL     1     -42.702  56.427 -56.110  1.00  0.00     0.105 A 
HETATM   26  O   UNL     1     -44.709  57.421 -56.498  1.00  0.00    -0.323 OA
HETATM   27  O   UNL     1     -42.674  56.555 -57.463  1.00  0.00    -0.323 OA
HETATM   28  C   UNL     1     -41.709  55.882 -55.329  1.00  0.00     0.040 A 
HETATM   29  C   UNL     1     -43.951  57.184 -57.702  1.00  0.00     0.352 A 
HETATM   30  C   UNL     1     -41.913  55.840 -53.944  1.00  0.00     0.012 A 
ENDBRANCH  21  22
ENDBRANCH   1  21
BRANCH   2  31
HETATM   31  C   UNL     1     -40.961  55.430 -50.483  1.00  0.00     0.101 C 
HETATM   32  N   UNL     1     -40.514  54.650 -51.526  1.00  0.00    -0.351 N 
HETATM   33  H   UNL     1     -40.369  55.003 -52.463  1.00  0.00     0.166 HD
HETATM   34  C   UNL     1     -40.428  53.327 -51.158  1.00  0.00     0.043 C 
HETATM   35  C   UNL     1     -40.681  53.294 -49.797  1.00  0.00     0.033 C 
HETATM   36  C   UNL     1     -40.993  54.609 -49.371  1.00  0.00     0.037 C 
BRANCH  34  37
HETATM   37  C   UNL     1     -40.156  52.253 -52.116  1.00  0.00    -0.009 A 
HETATM   38  C   UNL     1     -40.379  52.427 -53.490  1.00  0.00     0.013 A 
HETATM   39  C   UNL     1     -40.167  51.376 -54.385  1.00  0.00     0.001 A 
HETATM   40  C   UNL     1     -39.727  50.138 -53.920  1.00  0.00     0.000 A 
HETATM   41  C   UNL     1     -39.489  49.955 -52.560  1.00  0.00     0.001 A 
HETATM   42  C   UNL     1     -39.701  51.007 -51.665  1.00  0.00     0.013 A 
ENDBRANCH  34  37
ENDBRANCH   2  31
TORSDOF 8
ENDMDL
MODEL 6
REMARK VINA RESULT:      -8.8      1.765      2.449
REMARK  8 active torsions:
REMARK  status: ('A' for Active; 'I' for Inactive)
REMARK    1  A    between atoms: C_4  and  C_5 
REMARK    2  A    between atoms: C_5  and  N_6 
REMARK    3  A    between atoms: C_5  and  C_31 
REMARK       I    between atoms: N_6  and  C_7 
REMARK    4  A    between atoms: N_6  and  C_21 
REMARK    5  A    between atoms: C_7  and  C_8 
REMARK    6  A    between atoms: C_11  and  C_12 
REMARK    7  A    between atoms: C_21  and  C_22 
REMARK       I    between atoms: C_31  and  N_32 
REMARK    8  A    between atoms: N_32  and  C_33 
ROOT
HETATM    1  N   UNL     1     -43.472  56.348 -53.917  1.00  0.00    -0.323 N 
HETATM    2  C   UNL     1     -43.248  55.350 -54.866  1.00  0.00     0.271 C 
HETATM    3  O   UNL     1     -44.136  55.011 -55.651  1.00  0.00    -0.266 OA
ENDROOT
BRANCH   1   4
HETATM    4  C   UNL     1     -44.700  57.178 -53.997  1.00  0.00     0.237 C 
BRANCH   4   5
HETATM    5  C   UNL     1     -44.710  58.287 -52.988  1.00  0.00     0.085 A 
HETATM    6  O   UNL     1     -44.040  59.427 -53.339  1.00  0.00    -0.317 OA
HETATM    7  C   UNL     1     -44.142  60.295 -52.296  1.00  0.00     0.049 A 
HETATM    8  C   UNL     1     -43.478  61.603 -52.455  1.00  0.00     0.076 C 
HETATM    9  C   UNL     1     -44.871  59.728 -51.276  1.00  0.00     0.035 A 
HETATM   10  C   UNL     1     -45.238  58.436 -51.719  1.00  0.00     0.038 A 
ENDBRANCH   4   5
BRANCH   4  11
HETATM   11  C   UNL     1     -45.069  57.711 -55.411  1.00  0.00     0.247 C 
HETATM   12  N   UNL     1     -44.010  58.139 -56.191  1.00  0.00    -0.354 N 
HETATM   13  H   UNL     1     -43.184  58.417 -55.664  1.00  0.00     0.162 HD
HETATM   14  O   UNL     1     -46.237  57.815 -55.787  1.00  0.00    -0.271 OA
BRANCH  12  15
HETATM   15  C   UNL     1     -44.194  58.776 -57.488  1.00  0.00     0.084 C 
HETATM   16  C   UNL     1     -43.114  59.836 -57.744  1.00  0.00     0.025 C 
HETATM   17  C   UNL     1     -41.738  59.222 -58.007  1.00  0.00     0.002 C 
HETATM   18  C   UNL     1     -41.785  58.188 -59.128  1.00  0.00     0.000 C 
HETATM   19  C   UNL     1     -42.832  57.111 -58.864  1.00  0.00     0.002 C 
HETATM   20  C   UNL     1     -44.209  57.718 -58.599  1.00  0.00     0.025 C 
ENDBRANCH  12  15
ENDBRANCH   4  11
ENDBRANCH   1   4
BRANCH   1  21
HETATM   21  C   UNL     1     -42.872  56.261 -52.583  1.00  0.00     0.166 C 
BRANCH  21  22
HETATM   22  C   UNL     1     -41.771  57.257 -52.283  1.00  0.00    -0.037 A 
HETATM   23  C   UNL     1     -41.636  57.705 -50.956  1.00  0.00     0.048 A 
HETATM   24  C   UNL     1     -40.630  58.601 -50.659  1.00  0.00     0.105 A 
HETATM   25  C   UNL     1     -39.764  59.059 -51.621  1.00  0.00     0.105 A 
HETATM   26  O   UNL     1     -40.371  59.125 -49.432  1.00  0.00    -0.323 OA
HETATM   27  O   UNL     1     -38.851  59.934 -51.122  1.00  0.00    -0.323 OA
HETATM   28  C   UNL     1     -39.853  58.641 -52.929  1.00  0.00     0.040 A 
HETATM   29  C   UNL     1     -39.244  59.973 -49.734  1.00  0.00     0.352 A 
HETATM   30  C   UNL     1     -40.860  57.725 -53.258  1.00  0.00     0.012 A 
ENDBRANCH  21  22
ENDBRANCH   1  21
BRANCH   2  31
HETATM   31  C   UNL     1     -42.003  54.613 -54.835  1.00  0.00     0.101 C 
HETATM   32  N   UNL     1     -41.898  53.427 -54.143  1.00  0.00    -0.351 N 
HETATM   33  H   UNL     1     -42.666  53.011 -53.632  1.00  0.00     0.166 HD
HETATM   34  C   UNL     1     -40.600  52.972 -54.129  1.00  0.00     0.043 C 
HETATM   35  C   UNL     1     -39.892  53.814 -54.968  1.00  0.00     0.033 C 
HETATM   36  C   UNL     1     -40.771  54.827 -55.426  1.00  0.00     0.037 C 
BRANCH  34  37
HETATM   37  C   UNL     1     -40.168  51.833 -53.315  1.00  0.00    -0.009 A 
HETATM   38  C   UNL     1     -39.991  50.560 -53.877  1.00  0.00     0.013 A 
HETATM   39  C   UNL     1     -39.631  49.472 -53.077  1.00  0.00     0.001 A 
HETATM   40  C   UNL     1     -39.443  49.642 -51.707  1.00  0.00     0.000 A 
HETATM   41  C   UNL     1     -39.604  50.902 -51.138  1.00  0.00     0.001 A 
HETATM   42  C   UNL     1     -39.963  51.991 -51.938  1.00  0.00     0.013 A 
ENDBRANCH  34  37
ENDBRANCH   2  31
TORSDOF 8
ENDMDL
MODEL 7
REMARK VINA RESULT:      -8.6      2.241      3.435
REMARK  8 active torsions:
REMARK  status: ('A' for Active; 'I' for Inactive)
REMARK    1  A    between atoms: C_4  and  C_5 
REMARK    2  A    between atoms: C_5  and  N_6 
REMARK    3  A    between atoms: C_5  and  C_31 
REMARK       I    between atoms: N_6  and  C_7 
REMARK    4  A    between atoms: N_6  and  C_21 
REMARK    5  A    between atoms: C_7  and  C_8 
REMARK    6  A    between atoms: C_11  and  C_12 
REMARK    7  A    between atoms: C_21  and  C_22 
REMARK       I    between atoms: C_31  and  N_32 
REMARK    8  A    between atoms: N_32  and  C_33 
ROOT
HETATM    1  N   UNL     1     -42.618  57.520 -54.735  1.00  0.00    -0.323 N 
HETATM    2  C   UNL     1     -42.710  56.128 -54.697  1.00  0.00     0.271 C 
HETATM    3  O   UNL     1     -43.588  55.534 -55.326  1.00  0.00    -0.266 OA
ENDROOT
BRANCH   1   4
HETATM    4  C   UNL     1     -43.422  58.284 -55.721  1.00  0.00     0.237 C 
BRANCH   4   5
HETATM    5  C   UNL     1     -43.623  59.713 -55.314  1.00  0.00     0.085 A 
HETATM    6  O   UNL     1     -44.870  60.040 -54.858  1.00  0.00    -0.317 OA
HETATM    7  C   UNL     1     -44.860  61.370 -54.566  1.00  0.00     0.049 A 
HETATM    8  C   UNL     1     -46.120  61.947 -54.059  1.00  0.00     0.076 C 
HETATM    9  C   UNL     1     -43.619  61.904 -54.828  1.00  0.00     0.035 A 
HETATM   10  C   UNL     1     -42.821  60.839 -55.309  1.00  0.00     0.038 A 
ENDBRANCH   4   5
BRANCH   4  11
HETATM   11  C   UNL     1     -42.952  58.190 -57.201  1.00  0.00     0.247 C 
HETATM   12  N   UNL     1     -43.730  57.407 -58.034  1.00  0.00    -0.354 N 
HETATM   13  H   UNL     1     -44.277  56.695 -57.553  1.00  0.00     0.162 HD
HETATM   14  O   UNL     1     -41.911  58.720 -57.592  1.00  0.00    -0.271 OA
BRANCH  12  15
HETATM   15  C   UNL     1     -43.363  57.119 -59.413  1.00  0.00     0.084 C 
HETATM   16  C   UNL     1     -43.026  55.633 -59.599  1.00  0.00     0.025 C 
HETATM   17  C   UNL     1     -44.262  54.736 -59.521  1.00  0.00     0.002 C 
HETATM   18  C   UNL     1     -45.351  55.188 -60.489  1.00  0.00     0.000 C 
HETATM   19  C   UNL     1     -45.716  56.655 -60.288  1.00  0.00     0.002 C 
HETATM   20  C   UNL     1     -44.485  57.558 -60.363  1.00  0.00     0.025 C 
ENDBRANCH  12  15
ENDBRANCH   4  11
ENDBRANCH   1   4
BRANCH   1  21
HETATM   21  C   UNL     1     -42.216  58.277 -53.547  1.00  0.00     0.166 C 
BRANCH  21  22
HETATM   22  C   UNL     1     -43.290  58.493 -52.502  1.00  0.00    -0.037 A 
HETATM   23  C   UNL     1     -43.221  59.664 -51.723  1.00  0.00     0.048 A 
HETATM   24  C   UNL     1     -44.198  59.886 -50.777  1.00  0.00     0.105 A 
HETATM   25  C   UNL     1     -45.229  59.001 -50.580  1.00  0.00     0.105 A 
HETATM   26  O   UNL     1     -44.271  60.964 -49.950  1.00  0.00    -0.323 OA
HETATM   27  O   UNL     1     -46.081  59.406 -49.601  1.00  0.00    -0.323 OA
HETATM   28  C   UNL     1     -45.342  57.849 -51.325  1.00  0.00     0.040 A 
HETATM   29  C   UNL     1     -45.465  60.649 -49.204  1.00  0.00     0.352 A 
HETATM   30  C   UNL     1     -44.368  57.601 -52.299  1.00  0.00     0.012 A 
ENDBRANCH  21  22
ENDBRANCH   1  21
BRANCH   2  31
HETATM   31  C   UNL     1     -41.850  55.388 -53.799  1.00  0.00     0.101 C 
HETATM   32  N   UNL     1     -41.380  54.138 -54.138  1.00  0.00    -0.351 N 
HETATM   33  H   UNL     1     -41.601  53.678 -55.012  1.00  0.00     0.166 HD
HETATM   34  C   UNL     1     -40.702  53.560 -53.090  1.00  0.00     0.043 C 
HETATM   35  C   UNL     1     -40.607  54.536 -52.113  1.00  0.00     0.033 C 
HETATM   36  C   UNL     1     -41.305  55.685 -52.564  1.00  0.00     0.037 C 
BRANCH  34  37
HETATM   37  C   UNL     1     -40.254  52.165 -53.108  1.00  0.00    -0.009 A 
HETATM   38  C   UNL     1     -40.301  51.399 -54.282  1.00  0.00     0.013 A 
HETATM   39  C   UNL     1     -39.922  50.054 -54.271  1.00  0.00     0.001 A 
HETATM   40  C   UNL     1     -39.489  49.459 -53.087  1.00  0.00     0.000 A 
HETATM   41  C   UNL     1     -39.426  50.211 -51.917  1.00  0.00     0.001 A 
HETATM   42  C   UNL     1     -39.805  51.556 -51.928  1.00  0.00     0.013 A 
ENDBRANCH  34  37
ENDBRANCH   2  31
TORSDOF 8
ENDMDL
MODEL 8
REMARK VINA RESULT:      -8.6      2.854      8.535
REMARK  8 active torsions:
REMARK  status: ('A' for Active; 'I' for Inactive)
REMARK    1  A    between atoms: C_4  and  C_5 
REMARK    2  A    between atoms: C_5  and  N_6 
REMARK    3  A    between atoms: C_5  and  C_31 
REMARK       I    between atoms: N_6  and  C_7 
REMARK    4  A    between atoms: N_6  and  C_21 
REMARK    5  A    between atoms: C_7  and  C_8 
REMARK    6  A    between atoms: C_11  and  C_12 
REMARK    7  A    between atoms: C_21  and  C_22 
REMARK       I    between atoms: C_31  and  N_32 
REMARK    8  A    between atoms: N_32  and  C_33 
ROOT
HETATM    1  N   UNL     1     -42.254  58.783 -51.332  1.00  0.00    -0.323 N 
HETATM    2  C   UNL     1     -41.849  59.810 -50.479  1.00  0.00     0.271 C 
HETATM    3  O   UNL     1     -40.800  59.725 -49.838  1.00  0.00    -0.266 OA
ENDROOT
BRANCH   1   4
HETATM    4  C   UNL     1     -41.311  57.683 -51.659  1.00  0.00     0.237 C 
BRANCH   4   5
HETATM    5  C   UNL     1     -41.593  56.434 -50.879  1.00  0.00     0.085 A 
HETATM    6  O   UNL     1     -42.727  55.751 -51.224  1.00  0.00    -0.317 OA
HETATM    7  C   UNL     1     -42.821  54.675 -50.395  1.00  0.00     0.049 A 
HETATM    8  C   UNL     1     -43.986  53.790 -50.588  1.00  0.00     0.076 C 
HETATM    9  C   UNL     1     -41.760  54.657 -49.519  1.00  0.00     0.035 A 
HETATM   10  C   UNL     1     -40.968  55.788 -49.828  1.00  0.00     0.038 A 
ENDBRANCH   4   5
BRANCH   4  11
HETATM   11  C   UNL     1     -41.138  57.364 -53.172  1.00  0.00     0.247 C 
HETATM   12  N   UNL     1     -41.131  56.023 -53.510  1.00  0.00    -0.354 N 
HETATM   13  H   UNL     1     -40.863  55.399 -52.752  1.00  0.00     0.162 HD
HETATM   14  O   UNL     1     -40.945  58.247 -54.008  1.00  0.00    -0.271 OA
BRANCH  12  15
HETATM   15  C   UNL     1     -40.859  55.554 -54.861  1.00  0.00     0.084 C 
HETATM   16  C   UNL     1     -39.929  54.332 -54.848  1.00  0.00     0.025 C 
HETATM   17  C   UNL     1     -40.620  53.073 -54.325  1.00  0.00     0.002 C 
HETATM   18  C   UNL     1     -41.914  52.783 -55.080  1.00  0.00     0.000 C 
HETATM   19  C   UNL     1     -42.859  53.980 -55.068  1.00  0.00     0.002 C 
HETATM   20  C   UNL     1     -42.174  55.243 -55.588  1.00  0.00     0.025 C 
ENDBRANCH  12  15
ENDBRANCH   4  11
ENDBRANCH   1   4
BRANCH   1  21
HETATM   21  C   UNL     1     -43.672  58.444 -51.476  1.00  0.00     0.166 C 
BRANCH  21  22
HETATM   22  C   UNL     1     -44.225  58.482 -52.884  1.00  0.00    -0.037 A 
HETATM   23  C   UNL     1     -44.311  59.734 -53.522  1.00  0.00     0.048 A 
HETATM   24  C   UNL     1     -44.798  59.789 -54.810  1.00  0.00     0.105 A 
HETATM   25  C   UNL     1     -45.196  58.658 -55.481  1.00  0.00     0.105 A 
HETATM   26  O   UNL     1     -44.942  60.916 -55.557  1.00  0.00    -0.323 OA
HETATM   27  O   UNL     1     -45.645  58.930 -56.734  1.00  0.00    -0.323 OA
HETATM   28  C   UNL     1     -45.121  57.413 -54.901  1.00  0.00     0.040 A 
HETATM   29  C   UNL     1     -45.484  60.364 -56.775  1.00  0.00     0.352 A 
HETATM   30  C   UNL     1     -44.622  57.326 -53.595  1.00  0.00     0.012 A 
ENDBRANCH  21  22
ENDBRANCH   1  21
BRANCH   2  31
HETATM   31  C   UNL     1     -42.740  60.926 -50.245  1.00  0.00     0.101 C 
HETATM   32  N   UNL     1     -43.482  61.010 -49.087  1.00  0.00    -0.351 N 
HETATM   33  H   UNL     1     -43.445  60.316 -48.352  1.00  0.00     0.166 HD
HETATM   34  C   UNL     1     -44.360  62.067 -49.134  1.00  0.00     0.043 C 
HETATM   35  C   UNL     1     -44.055  62.764 -50.291  1.00  0.00     0.033 C 
HETATM   36  C   UNL     1     -43.030  62.064 -50.974  1.00  0.00     0.037 C 
BRANCH  34  37
HETATM   37  C   UNL     1     -45.394  62.284 -48.120  1.00  0.00    -0.009 A 
HETATM   38  C   UNL     1     -45.925  63.560 -47.880  1.00  0.00     0.013 A 
HETATM   39  C   UNL     1     -46.871  63.761 -46.872  1.00  0.00     0.001 A 
HETATM   40  C   UNL     1     -47.302  62.689 -46.093  1.00  0.00     0.000 A 
HETATM   41  C   UNL     1     -46.793  61.414 -46.328  1.00  0.00     0.001 A 
HETATM   42  C   UNL     1     -45.846  61.214 -47.336  1.00  0.00     0.013 A 
ENDBRANCH  34  37
ENDBRANCH   2  31
TORSDOF 8
ENDMDL
MODEL 9
REMARK VINA RESULT:      -8.6      2.516      4.863
REMARK  8 active torsions:
REMARK  status: ('A' for Active; 'I' for Inactive)
REMARK    1  A    between atoms: C_4  and  C_5 
REMARK    2  A    between atoms: C_5  and  N_6 
REMARK    3  A    between atoms: C_5  and  C_31 
REMARK       I    between atoms: N_6  and  C_7 
REMARK    4  A    between atoms: N_6  and  C_21 
REMARK    5  A    between atoms: C_7  and  C_8 
REMARK    6  A    between atoms: C_11  and  C_12 
REMARK    7  A    between atoms: C_21  and  C_22 
REMARK       I    between atoms: C_31  and  N_32 
REMARK    8  A    between atoms: N_32  and  C_33 
ROOT
HETATM    1  N   UNL     1     -42.639  57.225 -56.242  1.00  0.00    -0.323 N 
HETATM    2  C   UNL     1     -42.652  55.854 -55.985  1.00  0.00     0.271 C 
HETATM    3  O   UNL     1     -42.551  55.036 -56.903  1.00  0.00    -0.266 OA
ENDROOT
BRANCH   1   4
HETATM    4  C   UNL     1     -42.265  57.718 -57.591  1.00  0.00     0.237 C 
BRANCH   4   5
HETATM    5  C   UNL     1     -43.142  57.158 -58.671  1.00  0.00     0.085 A 
HETATM    6  O   UNL     1     -44.487  57.351 -58.514  1.00  0.00    -0.317 OA
HETATM    7  C   UNL     1     -45.108  56.755 -59.570  1.00  0.00     0.049 A 
HETATM    8  C   UNL     1     -46.581  56.834 -59.602  1.00  0.00     0.076 C 
HETATM    9  C   UNL     1     -44.177  56.182 -60.405  1.00  0.00     0.035 A 
HETATM   10  C   UNL     1     -42.911  56.440 -59.829  1.00  0.00     0.038 A 
ENDBRANCH   4   5
BRANCH   4  11
HETATM   11  C   UNL     1     -42.124  59.261 -57.736  1.00  0.00     0.247 C 
HETATM   12  N   UNL     1     -42.862  59.843 -58.750  1.00  0.00    -0.354 N 
HETATM   13  H   UNL     1     -43.109  59.210 -59.508  1.00  0.00     0.162 HD
HETATM   14  O   UNL     1     -41.348  59.915 -57.039  1.00  0.00    -0.271 OA
BRANCH  12  15
HETATM   15  C   UNL     1     -42.751  61.254 -59.095  1.00  0.00     0.084 C 
HETATM   16  C   UNL     1     -41.550  61.506 -60.017  1.00  0.00     0.025 C 
HETATM   17  C   UNL     1     -41.769  60.964 -61.429  1.00  0.00     0.002 C 
HETATM   18  C   UNL     1     -43.065  61.486 -62.042  1.00  0.00     0.000 C 
HETATM   19  C   UNL     1     -44.268  61.208 -61.148  1.00  0.00     0.002 C 
HETATM   20  C   UNL     1     -44.056  61.747 -59.733  1.00  0.00     0.025 C 
ENDBRANCH  12  15
ENDBRANCH   4  11
ENDBRANCH   1   4
BRANCH   1  21
HETATM   21  C   UNL     1     -43.472  58.141 -55.459  1.00  0.00     0.166 C 
BRANCH  21  22
HETATM   22  C   UNL     1     -42.997  58.434 -54.051  1.00  0.00    -0.037 A 
HETATM   23  C   UNL     1     -41.637  58.746 -53.870  1.00  0.00     0.048 A 
HETATM   24  C   UNL     1     -41.188  59.030 -52.597  1.00  0.00     0.105 A 
HETATM   25  C   UNL     1     -42.031  59.018 -51.514  1.00  0.00     0.105 A 
HETATM   26  O   UNL     1     -39.909  59.348 -52.260  1.00  0.00    -0.323 OA
HETATM   27  O   UNL     1     -41.390  59.324 -50.355  1.00  0.00    -0.323 OA
HETATM   28  C   UNL     1     -43.370  58.729 -51.646  1.00  0.00     0.040 A 
HETATM   29  C   UNL     1     -40.045  59.528 -50.835  1.00  0.00     0.352 A 
HETATM   30  C   UNL     1     -43.856  58.444 -52.928  1.00  0.00     0.012 A 
ENDBRANCH  21  22
ENDBRANCH   1  21
BRANCH   2  31
HETATM   31  C   UNL     1     -42.923  55.389 -54.642  1.00  0.00     0.101 C 
HETATM   32  N   UNL     1     -41.963  55.468 -53.658  1.00  0.00    -0.351 N 
HETATM   33  H   UNL     1     -41.037  55.847 -53.812  1.00  0.00     0.166 HD
HETATM   34  C   UNL     1     -42.380  54.846 -52.504  1.00  0.00     0.043 C 
HETATM   35  C   UNL     1     -43.704  54.499 -52.716  1.00  0.00     0.033 C 
HETATM   36  C   UNL     1     -44.050  54.857 -54.043  1.00  0.00     0.037 C 
BRANCH  34  37
HETATM   37  C   UNL     1     -41.494  54.619 -51.360  1.00  0.00    -0.009 A 
HETATM   38  C   UNL     1     -40.380  53.772 -51.457  1.00  0.00     0.013 A 
HETATM   39  C   UNL     1     -39.574  53.522 -50.343  1.00  0.00     0.001 A 
HETATM   40  C   UNL     1     -39.871  54.117 -49.118  1.00  0.00     0.000 A 
HETATM   41  C   UNL     1     -40.967  54.969 -49.010  1.00  0.00     0.001 A 
HETATM   42  C   UNL     1     -41.772  55.219 -50.125  1.00  0.00     0.013 A 
ENDBRANCH  34  37
ENDBRANCH   2  31
TORSDOF 8
ENDMDL
MODEL 10
REMARK VINA RESULT:      -8.5      2.706      6.965
REMARK  8 active torsions:
REMARK  status: ('A' for Active; 'I' for Inactive)
REMARK    1  A    between atoms: C_4  and  C_5 
REMARK    2  A    between atoms: C_5  and  N_6 
REMARK    3  A    between atoms: C_5  and  C_31 
REMARK       I    between atoms: N_6  and  C_7 
REMARK    4  A    between atoms: N_6  and  C_21 
REMARK    5  A    between atoms: C_7  and  C_8 
REMARK    6  A    between atoms: C_11  and  C_12 
REMARK    7  A    between atoms: C_21  and  C_22 
REMARK       I    between atoms: C_31  and  N_32 
REMARK    8  A    between atoms: N_32  and  C_33 
ROOT
HETATM    1  N   UNL     1     -42.828  58.890 -55.251  1.00  0.00    -0.323 N 
HETATM    2  C   UNL     1     -42.831  58.187 -54.046  1.00  0.00     0.271 C 
HETATM    3  O   UNL     1     -42.609  58.759 -52.977  1.00  0.00    -0.266 OA
ENDROOT
BRANCH   1   4
HETATM    4  C   UNL     1     -42.794  60.374 -55.237  1.00  0.00     0.237 C 
BRANCH   4   5
HETATM    5  C   UNL     1     -42.645  60.958 -56.610  1.00  0.00     0.085 A 
HETATM    6  O   UNL     1     -41.364  61.190 -57.030  1.00  0.00    -0.317 OA
HETATM    7  C   UNL     1     -41.437  61.738 -58.274  1.00  0.00     0.049 A 
HETATM    8  C   UNL     1     -40.157  62.080 -58.924  1.00  0.00     0.076 C 
HETATM    9  C   UNL     1     -42.752  61.861 -58.661  1.00  0.00     0.035 A 
HETATM   10  C   UNL     1     -43.531  61.360 -57.592  1.00  0.00     0.038 A 
ENDBRANCH   4   5
BRANCH   4  11
HETATM   11  C   UNL     1     -43.946  61.073 -54.459  1.00  0.00     0.247 C 
HETATM   12  N   UNL     1     -43.563  61.866 -53.393  1.00  0.00    -0.354 N 
HETATM   13  H   UNL     1     -42.656  61.627 -52.995  1.00  0.00     0.162 HD
HETATM   14  O   UNL     1     -45.131  60.875 -54.729  1.00  0.00    -0.271 OA
BRANCH  12  15
HETATM   15  C   UNL     1     -44.520  62.492 -52.492  1.00  0.00     0.084 C 
HETATM   16  C   UNL     1     -44.409  61.912 -51.075  1.00  0.00     0.025 C 
HETATM   17  C   UNL     1     -43.132  62.353 -50.359  1.00  0.00     0.002 C 
HETATM   18  C   UNL     1     -42.978  63.870 -50.357  1.00  0.00     0.000 C 
HETATM   19  C   UNL     1     -43.053  64.450 -51.765  1.00  0.00     0.002 C 
HETATM   20  C   UNL     1     -44.327  64.013 -52.488  1.00  0.00     0.025 C 
ENDBRANCH  12  15
ENDBRANCH   4  11
ENDBRANCH   1   4
BRANCH   1  21
HETATM   21  C   UNL     1     -42.317  58.273 -56.477  1.00  0.00     0.166 C 
BRANCH  21  22
HETATM   22  C   UNL     1     -43.360  57.766 -57.451  1.00  0.00    -0.037 A 
HETATM   23  C   UNL     1     -42.939  56.883 -58.463  1.00  0.00     0.048 A 
HETATM   24  C   UNL     1     -43.876  56.399 -59.350  1.00  0.00     0.105 A 
HETATM   25  C   UNL     1     -45.200  56.754 -59.268  1.00  0.00     0.105 A 
HETATM   26  O   UNL     1     -43.628  55.543 -60.377  1.00  0.00    -0.323 OA
HETATM   27  O   UNL     1     -45.954  56.169 -60.236  1.00  0.00    -0.323 OA
HETATM   28  C   UNL     1     -45.658  57.606 -58.290  1.00  0.00     0.040 A 
HETATM   29  C   UNL     1     -44.951  55.405 -60.937  1.00  0.00     0.352 A 
HETATM   30  C   UNL     1     -44.730  58.107 -57.370  1.00  0.00     0.012 A 
ENDBRANCH  21  22
ENDBRANCH   1  21
BRANCH   2  31
HETATM   31  C   UNL     1     -42.963  56.746 -54.070  1.00  0.00     0.101 C 
HETATM   32  N   UNL     1     -41.999  55.937 -53.510  1.00  0.00    -0.351 N 
HETATM   33  H   UNL     1     -41.166  56.293 -53.060  1.00  0.00     0.166 HD
HETATM   34  C   UNL     1     -42.251  54.610 -53.768  1.00  0.00     0.043 C 
HETATM   35  C   UNL     1     -43.494  54.570 -54.376  1.00  0.00     0.033 C 
HETATM   36  C   UNL     1     -43.949  55.902 -54.545  1.00  0.00     0.037 C 
BRANCH  34  37
HETATM   37  C   UNL     1     -41.297  53.545 -53.451  1.00  0.00    -0.009 A 
HETATM   38  C   UNL     1     -40.955  52.566 -54.395  1.00  0.00     0.013 A 
HETATM   39  C   UNL     1     -40.086  51.524 -54.061  1.00  0.00     0.001 A 
HETATM   40  C   UNL     1     -39.545  51.449 -52.779  1.00  0.00     0.000 A 
HETATM   41  C   UNL     1     -39.866  52.421 -51.834  1.00  0.00     0.001 A 
HETATM   42  C   UNL     1     -40.735  53.463 -52.170  1.00  0.00     0.013 A 
ENDBRANCH  34  37
ENDBRANCH   2  31
TORSDOF 8
ENDMDL
