MODEL 1
REMARK VINA RESULT:      -8.3      0.000      0.000
REMARK  2 active torsions:
REMARK  status: ('A' for Active; 'I' for Inactive)
REMARK    1  A    between atoms: C_5  and  O_6 
REMARK    2  A    between atoms: C_5  and  C_7 
ROOT
HETATM    1  C   UNL     1     -39.708  51.904 -51.780  1.00  0.00     0.050 C 
HETATM    2  C   UNL     1     -40.324  52.774 -52.831  1.00  0.00    -0.034 A 
HETATM    3  C   UNL     1     -41.440  53.562 -52.587  1.00  0.00     0.052 A 
HETATM    4  C   UNL     1     -42.011  54.404 -53.553  1.00  0.00     0.039 A 
HETATM    5  C   UNL     1     -43.222  55.084 -52.971  1.00  0.00     0.200 A 
HETATM    6  C   UNL     1     -43.244  54.502 -51.513  1.00  0.00     0.266 A 
HETATM    7  O   UNL     1     -44.051  54.714 -50.618  1.00  0.00    -0.269 OA
HETATM    8  N   UNL     1     -42.156  53.640 -51.400  1.00  0.00    -0.323 N 
HETATM    9  C   UNL     1     -41.467  54.450 -54.826  1.00  0.00     0.046 A 
HETATM   10 CL   UNL     1     -42.146  55.418 -56.076  1.00  0.00    -0.084 Cl
HETATM   11  C   UNL     1     -40.329  53.685 -55.099  1.00  0.00     0.025 A 
HETATM   12  C   UNL     1     -39.759  52.862 -54.110  1.00  0.00     0.011 A 
HETATM   13  H   UNL     1     -41.969  53.125 -50.553  1.00  0.00     0.169 HD
ENDROOT
BRANCH   5  14
HETATM   14  O   UNL     1     -44.348  54.660 -53.735  1.00  0.00    -0.371 OA
HETATM   15  H   UNL     1     -44.045  53.883 -54.235  1.00  0.00     0.212 HD
ENDBRANCH   5  14
BRANCH   5  16
HETATM   16  C   UNL     1     -43.051  56.594 -52.927  1.00  0.00     0.025 A 
HETATM   17  C   UNL     1     -42.177  57.410 -52.103  1.00  0.00     0.003 A 
HETATM   18  C   UNL     1     -42.402  58.745 -52.445  1.00  0.00     0.043 A 
HETATM   19  C   UNL     1     -41.216  57.158 -51.096  1.00  0.00     0.014 A 
HETATM   20  C   UNL     1     -41.713  59.818 -51.863  1.00  0.00     0.030 A 
HETATM   21  N   UNL     1     -43.389  58.763 -53.394  1.00  0.00    -0.359 N 
HETATM   22  C   UNL     1     -40.758  59.529 -50.888  1.00  0.00     0.002 A 
HETATM   23  C   UNL     1     -40.514  58.217 -50.504  1.00  0.00     0.001 A 
HETATM   24  H   UNL     1     -43.772  59.607 -53.796  1.00  0.00     0.166 HD
HETATM   25  C   UNL     1     -43.822  57.494 -53.668  1.00  0.00     0.016 A 
HETATM   26  C   UNL     1     -44.965  57.273 -54.598  1.00  0.00     0.069 C 
ENDBRANCH   5  16
TORSDOF 2
ENDMDL
MODEL 2
REMARK VINA RESULT:      -8.0      2.254      6.143
REMARK  2 active torsions:
REMARK  status: ('A' for Active; 'I' for Inactive)
REMARK    1  A    between atoms: C_5  and  O_6 
REMARK    2  A    between atoms: C_5  and  C_7 
ROOT
HETATM    1  C   UNL     1     -41.633  59.353 -52.434  1.00  0.00     0.050 C 
HETATM    2  C   UNL     1     -42.220  57.994 -52.212  1.00  0.00    -0.034 A 
HETATM    3  C   UNL     1     -41.749  56.862 -52.863  1.00  0.00     0.052 A 
HETATM    4  C   UNL     1     -42.270  55.578 -52.642  1.00  0.00     0.039 A 
HETATM    5  C   UNL     1     -41.560  54.591 -53.530  1.00  0.00     0.200 A 
HETATM    6  C   UNL     1     -40.541  55.517 -54.284  1.00  0.00     0.266 A 
HETATM    7  O   UNL     1     -39.730  55.216 -55.150  1.00  0.00    -0.269 OA
HETATM    8  N   UNL     1     -40.733  56.811 -53.807  1.00  0.00    -0.323 N 
HETATM    9  C   UNL     1     -43.322  55.410 -51.756  1.00  0.00     0.046 A 
HETATM   10 CL   UNL     1     -44.046  53.875 -51.477  1.00  0.00    -0.084 Cl
HETATM   11  C   UNL     1     -43.806  56.527 -51.068  1.00  0.00     0.025 A 
HETATM   12  C   UNL     1     -43.256  57.803 -51.288  1.00  0.00     0.011 A 
HETATM   13  H   UNL     1     -40.204  57.594 -54.159  1.00  0.00     0.169 HD
ENDROOT
BRANCH   5  14
HETATM   14  O   UNL     1     -42.536  54.039 -54.409  1.00  0.00    -0.371 OA
HETATM   15  H   UNL     1     -42.104  53.991 -55.279  1.00  0.00     0.212 HD
ENDBRANCH   5  14
BRANCH   5  16
HETATM   16  C   UNL     1     -40.811  53.545 -52.719  1.00  0.00     0.025 A 
HETATM   17  C   UNL     1     -40.476  52.172 -53.051  1.00  0.00     0.003 A 
HETATM   18  C   UNL     1     -39.783  51.634 -51.965  1.00  0.00     0.043 A 
HETATM   19  C   UNL     1     -40.691  51.321 -54.161  1.00  0.00     0.014 A 
HETATM   20  C   UNL     1     -39.281  50.325 -51.940  1.00  0.00     0.030 A 
HETATM   21  N   UNL     1     -39.727  52.600 -50.996  1.00  0.00    -0.359 N 
HETATM   22  C   UNL     1     -39.495  49.523 -53.061  1.00  0.00     0.002 A 
HETATM   23  C   UNL     1     -40.195  50.011 -54.157  1.00  0.00     0.001 A 
HETATM   24  H   UNL     1     -39.308  52.467 -50.087  1.00  0.00     0.166 HD
HETATM   25  C   UNL     1     -40.371  53.736 -51.407  1.00  0.00     0.016 A 
HETATM   26  C   UNL     1     -40.528  54.890 -50.477  1.00  0.00     0.069 C 
ENDBRANCH   5  16
TORSDOF 2
ENDMDL
MODEL 3
REMARK VINA RESULT:      -8.0      1.989      5.419
REMARK  2 active torsions:
REMARK  status: ('A' for Active; 'I' for Inactive)
REMARK    1  A    between atoms: C_5  and  O_6 
REMARK    2  A    between atoms: C_5  and  C_7 
ROOT
HETATM    1  C   UNL     1     -45.467  58.738 -55.115  1.00  0.00     0.050 C 
HETATM    2  C   UNL     1     -44.083  58.672 -54.550  1.00  0.00    -0.034 A 
HETATM    3  C   UNL     1     -43.784  57.976 -53.387  1.00  0.00     0.052 A 
HETATM    4  C   UNL     1     -42.486  57.882 -52.862  1.00  0.00     0.039 A 
HETATM    5  C   UNL     1     -42.520  57.089 -51.582  1.00  0.00     0.200 A 
HETATM    6  C   UNL     1     -44.046  56.736 -51.467  1.00  0.00     0.266 A 
HETATM    7  O   UNL     1     -44.623  56.116 -50.584  1.00  0.00    -0.269 OA
HETATM    8  N   UNL     1     -44.679  57.292 -52.576  1.00  0.00    -0.323 N 
HETATM    9  C   UNL     1     -41.441  58.526 -53.503  1.00  0.00     0.046 A 
HETATM   10 CL   UNL     1     -39.835  58.499 -52.888  1.00  0.00    -0.084 Cl
HETATM   11  C   UNL     1     -41.704  59.219 -54.689  1.00  0.00     0.025 A 
HETATM   12  C   UNL     1     -43.009  59.284 -55.210  1.00  0.00     0.011 A 
HETATM   13  H   UNL     1     -45.675  57.216 -52.716  1.00  0.00     0.169 HD
ENDROOT
BRANCH   5  14
HETATM   14  O   UNL     1     -42.091  57.958 -50.538  1.00  0.00    -0.371 OA
HETATM   15  H   UNL     1     -42.025  58.839 -50.945  1.00  0.00     0.212 HD
ENDBRANCH   5  14
BRANCH   5  16
HETATM   16  C   UNL     1     -41.698  55.814 -51.689  1.00  0.00     0.025 A 
HETATM   17  C   UNL     1     -41.371  55.010 -52.852  1.00  0.00     0.003 A 
HETATM   18  C   UNL     1     -40.590  53.938 -52.417  1.00  0.00     0.043 A 
HETATM   19  C   UNL     1     -41.657  55.075 -54.236  1.00  0.00     0.014 A 
HETATM   20  C   UNL     1     -40.070  52.961 -53.276  1.00  0.00     0.030 A 
HETATM   21  N   UNL     1     -40.475  54.043 -51.056  1.00  0.00    -0.359 N 
HETATM   22  C   UNL     1     -40.357  53.070 -54.637  1.00  0.00     0.002 A 
HETATM   23  C   UNL     1     -41.144  54.110 -55.113  1.00  0.00     0.001 A 
HETATM   24  H   UNL     1     -39.986  53.375 -50.476  1.00  0.00     0.166 HD
HETATM   25  C   UNL     1     -41.163  55.131 -50.593  1.00  0.00     0.016 A 
HETATM   26  C   UNL     1     -41.265  55.391 -49.129  1.00  0.00     0.069 C 
ENDBRANCH   5  16
TORSDOF 2
ENDMDL
MODEL 4
REMARK VINA RESULT:      -7.8      1.515      2.462
REMARK  2 active torsions:
REMARK  status: ('A' for Active; 'I' for Inactive)
REMARK    1  A    between atoms: C_5  and  O_6 
REMARK    2  A    between atoms: C_5  and  C_7 
ROOT
HETATM    1  C   UNL     1     -40.333  51.785 -53.161  1.00  0.00     0.050 C 
HETATM    2  C   UNL     1     -40.731  53.160 -53.598  1.00  0.00    -0.034 A 
HETATM    3  C   UNL     1     -41.644  53.932 -52.892  1.00  0.00     0.052 A 
HETATM    4  C   UNL     1     -42.004  55.233 -53.274  1.00  0.00     0.039 A 
HETATM    5  C   UNL     1     -43.036  55.768 -52.315  1.00  0.00     0.200 A 
HETATM    6  C   UNL     1     -43.196  54.566 -51.318  1.00  0.00     0.266 A 
HETATM    7  O   UNL     1     -43.940  54.469 -50.351  1.00  0.00    -0.269 OA
HETATM    8  N   UNL     1     -42.330  53.562 -51.744  1.00  0.00    -0.323 N 
HETATM    9  C   UNL     1     -41.457  55.786 -54.420  1.00  0.00     0.046 A 
HETATM   10 CL   UNL     1     -41.894  57.353 -54.978  1.00  0.00    -0.084 Cl
HETATM   11  C   UNL     1     -40.518  55.042 -55.143  1.00  0.00     0.025 A 
HETATM   12  C   UNL     1     -40.154  53.747 -54.732  1.00  0.00     0.011 A 
HETATM   13  H   UNL     1     -42.268  52.673 -51.270  1.00  0.00     0.169 HD
ENDROOT
BRANCH   5  14
HETATM   14  O   UNL     1     -44.224  56.004 -53.066  1.00  0.00    -0.371 OA
HETATM   15  H   UNL     1     -44.754  56.615 -52.526  1.00  0.00     0.212 HD
ENDBRANCH   5  14
BRANCH   5  16
HETATM   16  C   UNL     1     -42.530  56.995 -51.574  1.00  0.00     0.025 A 
HETATM   17  C   UNL     1     -42.899  58.391 -51.721  1.00  0.00     0.003 A 
HETATM   18  C   UNL     1     -42.142  59.126 -50.806  1.00  0.00     0.043 A 
HETATM   19  C   UNL     1     -43.797  59.117 -52.540  1.00  0.00     0.014 A 
HETATM   20  C   UNL     1     -42.251  60.514 -50.651  1.00  0.00     0.030 A 
HETATM   21  N   UNL     1     -41.318  58.244 -50.158  1.00  0.00    -0.359 N 
HETATM   22  C   UNL     1     -43.162  61.192 -51.461  1.00  0.00     0.002 A 
HETATM   23  C   UNL     1     -43.923  60.505 -52.398  1.00  0.00     0.001 A 
HETATM   24  H   UNL     1     -40.636  58.514 -49.462  1.00  0.00     0.166 HD
HETATM   25  C   UNL     1     -41.501  56.973 -50.629  1.00  0.00     0.016 A 
HETATM   26  C   UNL     1     -40.639  55.859 -50.142  1.00  0.00     0.069 C 
ENDBRANCH   5  16
TORSDOF 2
ENDMDL
MODEL 5
REMARK VINA RESULT:      -7.7      2.021      5.353
REMARK  2 active torsions:
REMARK  status: ('A' for Active; 'I' for Inactive)
REMARK    1  A    between atoms: C_5  and  O_6 
REMARK    2  A    between atoms: C_5  and  C_7 
ROOT
HETATM    1  C   UNL     1     -46.012  59.329 -51.336  1.00  0.00     0.050 C 
HETATM    2  C   UNL     1     -44.635  58.936 -51.771  1.00  0.00    -0.034 A 
HETATM    3  C   UNL     1     -44.096  57.686 -51.501  1.00  0.00     0.052 A 
HETATM    4  C   UNL     1     -42.818  57.293 -51.928  1.00  0.00     0.039 A 
HETATM    5  C   UNL     1     -42.535  55.897 -51.439  1.00  0.00     0.200 A 
HETATM    6  C   UNL     1     -43.863  55.551 -50.675  1.00  0.00     0.266 A 
HETATM    7  O   UNL     1     -44.149  54.532 -50.062  1.00  0.00    -0.269 OA
HETATM    8  N   UNL     1     -44.700  56.658 -50.789  1.00  0.00    -0.323 N 
HETATM    9  C   UNL     1     -42.028  58.187 -52.631  1.00  0.00     0.046 A 
HETATM   10 CL   UNL     1     -40.432  57.794 -53.138  1.00  0.00    -0.084 Cl
HETATM   11  C   UNL     1     -42.549  59.448 -52.937  1.00  0.00     0.025 A 
HETATM   12  C   UNL     1     -43.841  59.816 -52.518  1.00  0.00     0.011 A 
HETATM   13  H   UNL     1     -45.612  56.685 -50.358  1.00  0.00     0.169 HD
ENDROOT
BRANCH   5  14
HETATM   14  O   UNL     1     -41.416  55.978 -50.561  1.00  0.00    -0.371 OA
HETATM   15  H   UNL     1     -41.533  56.809 -50.068  1.00  0.00     0.212 HD
ENDBRANCH   5  14
BRANCH   5  16
HETATM   16  C   UNL     1     -42.332  54.929 -52.594  1.00  0.00     0.025 A 
HETATM   17  C   UNL     1     -41.400  53.825 -52.733  1.00  0.00     0.003 A 
HETATM   18  C   UNL     1     -41.613  53.249 -53.987  1.00  0.00     0.043 A 
HETATM   19  C   UNL     1     -40.389  53.251 -51.927  1.00  0.00     0.014 A 
HETATM   20  C   UNL     1     -40.902  52.137 -54.458  1.00  0.00     0.030 A 
HETATM   21  N   UNL     1     -42.591  53.978 -54.611  1.00  0.00    -0.359 N 
HETATM   22  C   UNL     1     -39.927  51.586 -53.626  1.00  0.00     0.002 A 
HETATM   23  C   UNL     1     -39.669  52.137 -52.378  1.00  0.00     0.001 A 
HETATM   24  H   UNL     1     -42.919  53.798 -55.549  1.00  0.00     0.166 HD
HETATM   25  C   UNL     1     -43.006  55.012 -53.816  1.00  0.00     0.016 A 
HETATM   26  C   UNL     1     -43.994  56.003 -54.326  1.00  0.00     0.069 C 
ENDBRANCH   5  16
TORSDOF 2
ENDMDL
MODEL 6
REMARK VINA RESULT:      -7.6      2.396      5.991
REMARK  2 active torsions:
REMARK  status: ('A' for Active; 'I' for Inactive)
REMARK    1  A    between atoms: C_5  and  O_6 
REMARK    2  A    between atoms: C_5  and  C_7 
ROOT
HETATM    1  C   UNL     1     -43.395  61.415 -50.194  1.00  0.00     0.050 C 
HETATM    2  C   UNL     1     -43.660  60.266 -51.116  1.00  0.00    -0.034 A 
HETATM    3  C   UNL     1     -42.643  59.577 -51.762  1.00  0.00     0.052 A 
HETATM    4  C   UNL     1     -42.874  58.481 -52.606  1.00  0.00     0.039 A 
HETATM    5  C   UNL     1     -41.563  57.995 -53.166  1.00  0.00     0.200 A 
HETATM    6  C   UNL     1     -40.545  58.984 -52.495  1.00  0.00     0.266 A 
HETATM    7  O   UNL     1     -39.330  59.042 -52.636  1.00  0.00    -0.269 OA
HETATM    8  N   UNL     1     -41.283  59.850 -51.692  1.00  0.00    -0.323 N 
HETATM    9  C   UNL     1     -44.173  58.062 -52.841  1.00  0.00     0.046 A 
HETATM   10 CL   UNL     1     -44.536  56.761 -53.906  1.00  0.00    -0.084 Cl
HETATM   11  C   UNL     1     -45.221  58.721 -52.189  1.00  0.00     0.025 A 
HETATM   12  C   UNL     1     -44.966  59.806 -51.330  1.00  0.00     0.011 A 
HETATM   13  H   UNL     1     -40.848  60.595 -51.170  1.00  0.00     0.169 HD
ENDROOT
BRANCH   5  14
HETATM   14  O   UNL     1     -41.623  58.162 -54.579  1.00  0.00    -0.371 OA
HETATM   15  H   UNL     1     -40.697  58.193 -54.876  1.00  0.00     0.212 HD
ENDBRANCH   5  14
BRANCH   5  16
HETATM   16  C   UNL     1     -41.264  56.568 -52.734  1.00  0.00     0.025 A 
HETATM   17  C   UNL     1     -40.931  55.403 -53.533  1.00  0.00     0.003 A 
HETATM   18  C   UNL     1     -40.750  54.330 -52.658  1.00  0.00     0.043 A 
HETATM   19  C   UNL     1     -40.766  55.139 -54.914  1.00  0.00     0.014 A 
HETATM   20  C   UNL     1     -40.395  53.040 -53.079  1.00  0.00     0.030 A 
HETATM   21  N   UNL     1     -40.999  54.789 -51.392  1.00  0.00    -0.359 N 
HETATM   22  C   UNL     1     -40.221  52.825 -54.446  1.00  0.00     0.002 A 
HETATM   23  C   UNL     1     -40.408  53.858 -55.354  1.00  0.00     0.001 A 
HETATM   24  H   UNL     1     -40.972  54.210 -50.564  1.00  0.00     0.166 HD
HETATM   25  C   UNL     1     -41.349  56.112 -51.416  1.00  0.00     0.016 A 
HETATM   26  C   UNL     1     -41.764  56.803 -50.163  1.00  0.00     0.069 C 
ENDBRANCH   5  16
TORSDOF 2
ENDMDL
MODEL 7
REMARK VINA RESULT:      -7.6     16.231     17.745
REMARK  2 active torsions:
REMARK  status: ('A' for Active; 'I' for Inactive)
REMARK    1  A    between atoms: C_5  and  O_6 
REMARK    2  A    between atoms: C_5  and  C_7 
ROOT
HETATM    1  C   UNL     1     -31.728  39.869 -50.919  1.00  0.00     0.050 C 
HETATM    2  C   UNL     1     -33.040  40.365 -51.442  1.00  0.00    -0.034 A 
HETATM    3  C   UNL     1     -33.283  40.545 -52.796  1.00  0.00     0.052 A 
HETATM    4  C   UNL     1     -34.517  40.981 -53.303  1.00  0.00     0.039 A 
HETATM    5  C   UNL     1     -34.428  41.101 -54.801  1.00  0.00     0.200 A 
HETATM    6  C   UNL     1     -32.948  40.651 -55.070  1.00  0.00     0.266 A 
HETATM    7  O   UNL     1     -32.349  40.591 -56.135  1.00  0.00    -0.269 OA
HETATM    8  N   UNL     1     -32.384  40.340 -53.835  1.00  0.00    -0.323 N 
HETATM    9  C   UNL     1     -35.549  41.277 -52.428  1.00  0.00     0.046 A 
HETATM   10 CL   UNL     1     -37.069  41.868 -52.973  1.00  0.00    -0.084 Cl
HETATM   11  C   UNL     1     -35.343  41.087 -51.057  1.00  0.00     0.025 A 
HETATM   12  C   UNL     1     -34.106  40.628 -50.571  1.00  0.00     0.011 A 
HETATM   13  H   UNL     1     -31.425  40.043 -53.745  1.00  0.00     0.169 HD
ENDROOT
BRANCH   5  14
HETATM   14  O   UNL     1     -34.639  42.473 -55.126  1.00  0.00    -0.371 OA
HETATM   15  H   UNL     1     -33.943  42.697 -55.767  1.00  0.00     0.212 HD
ENDBRANCH   5  14
BRANCH   5  16
HETATM   16  C   UNL     1     -35.394  40.156 -55.498  1.00  0.00     0.025 A 
HETATM   17  C   UNL     1     -36.328  40.408 -56.580  1.00  0.00     0.003 A 
HETATM   18  C   UNL     1     -36.986  39.208 -56.857  1.00  0.00     0.043 A 
HETATM   19  C   UNL     1     -36.693  41.533 -57.357  1.00  0.00     0.014 A 
HETATM   20  C   UNL     1     -37.950  39.069 -57.865  1.00  0.00     0.030 A 
HETATM   21  N   UNL     1     -36.520  38.273 -55.970  1.00  0.00    -0.359 N 
HETATM   22  C   UNL     1     -38.268  40.195 -58.623  1.00  0.00     0.002 A 
HETATM   23  C   UNL     1     -37.652  41.414 -58.371  1.00  0.00     0.001 A 
HETATM   24  H   UNL     1     -36.853  37.320 -55.925  1.00  0.00     0.166 HD
HETATM   25  C   UNL     1     -35.600  38.826 -55.122  1.00  0.00     0.016 A 
HETATM   26  C   UNL     1     -35.029  38.023 -54.004  1.00  0.00     0.069 C 
ENDBRANCH   5  16
TORSDOF 2
ENDMDL
MODEL 8
REMARK VINA RESULT:      -7.5      1.959      3.348
REMARK  2 active torsions:
REMARK  status: ('A' for Active; 'I' for Inactive)
REMARK    1  A    between atoms: C_5  and  O_6 
REMARK    2  A    between atoms: C_5  and  C_7 
ROOT
HETATM    1  C   UNL     1     -40.612  53.502 -48.615  1.00  0.00     0.050 C 
HETATM    2  C   UNL     1     -40.779  53.563 -50.101  1.00  0.00    -0.034 A 
HETATM    3  C   UNL     1     -41.734  54.364 -50.712  1.00  0.00     0.052 A 
HETATM    4  C   UNL     1     -41.882  54.453 -52.105  1.00  0.00     0.039 A 
HETATM    5  C   UNL     1     -43.027  55.377 -52.427  1.00  0.00     0.200 A 
HETATM    6  C   UNL     1     -43.501  55.810 -50.994  1.00  0.00     0.266 A 
HETATM    7  O   UNL     1     -44.430  56.544 -50.685  1.00  0.00    -0.269 OA
HETATM    8  N   UNL     1     -42.670  55.170 -50.078  1.00  0.00    -0.323 N 
HETATM    9  C   UNL     1     -41.065  53.698 -52.929  1.00  0.00     0.046 A 
HETATM   10 CL   UNL     1     -41.226  53.716 -54.641  1.00  0.00    -0.084 Cl
HETATM   11  C   UNL     1     -40.078  52.897 -52.346  1.00  0.00     0.025 A 
HETATM   12  C   UNL     1     -39.932  52.837 -50.948  1.00  0.00     0.011 A 
HETATM   13  H   UNL     1     -42.791  55.275 -49.082  1.00  0.00     0.169 HD
ENDROOT
BRANCH   5  14
HETATM   14  O   UNL     1     -44.012  54.604 -53.107  1.00  0.00    -0.371 OA
HETATM   15  H   UNL     1     -43.648  53.703 -53.153  1.00  0.00     0.212 HD
ENDBRANCH   5  14
BRANCH   5  16
HETATM   16  C   UNL     1     -42.563  56.595 -53.211  1.00  0.00     0.025 A 
HETATM   17  C   UNL     1     -42.798  56.957 -54.596  1.00  0.00     0.003 A 
HETATM   18  C   UNL     1     -42.152  58.173 -54.829  1.00  0.00     0.043 A 
HETATM   19  C   UNL     1     -43.490  56.379 -55.687  1.00  0.00     0.014 A 
HETATM   20  C   UNL     1     -42.182  58.841 -56.061  1.00  0.00     0.030 A 
HETATM   21  N   UNL     1     -41.515  58.526 -53.669  1.00  0.00    -0.359 N 
HETATM   22  C   UNL     1     -42.892  58.251 -57.106  1.00  0.00     0.002 A 
HETATM   23  C   UNL     1     -43.535  57.033 -56.926  1.00  0.00     0.001 A 
HETATM   24  H   UNL     1     -40.942  59.351 -53.566  1.00  0.00     0.166 HD
HETATM   25  C   UNL     1     -41.711  57.578 -52.701  1.00  0.00     0.016 A 
HETATM   26  C   UNL     1     -41.028  57.697 -51.382  1.00  0.00     0.069 C 
ENDBRANCH   5  16
TORSDOF 2
ENDMDL
MODEL 9
REMARK VINA RESULT:      -7.3      2.610      5.560
REMARK  2 active torsions:
REMARK  status: ('A' for Active; 'I' for Inactive)
REMARK    1  A    between atoms: C_5  and  O_6 
REMARK    2  A    between atoms: C_5  and  C_7 
ROOT
HETATM    1  C   UNL     1     -43.248  61.169 -50.032  1.00  0.00     0.050 C 
HETATM    2  C   UNL     1     -43.571  60.035 -50.954  1.00  0.00    -0.034 A 
HETATM    3  C   UNL     1     -42.595  59.358 -51.673  1.00  0.00     0.052 A 
HETATM    4  C   UNL     1     -42.879  58.275 -52.518  1.00  0.00     0.039 A 
HETATM    5  C   UNL     1     -41.606  57.798 -53.166  1.00  0.00     0.200 A 
HETATM    6  C   UNL     1     -40.547  58.778 -52.544  1.00  0.00     0.266 A 
HETATM    7  O   UNL     1     -39.344  58.839 -52.759  1.00  0.00    -0.269 OA
HETATM    8  N   UNL     1     -41.234  59.630 -51.684  1.00  0.00    -0.323 N 
HETATM    9  C   UNL     1     -44.190  57.859 -52.679  1.00  0.00     0.046 A 
HETATM   10 CL   UNL     1     -44.619  56.574 -53.740  1.00  0.00    -0.084 Cl
HETATM   11  C   UNL     1     -45.195  58.507 -51.953  1.00  0.00     0.025 A 
HETATM   12  C   UNL     1     -44.887  59.578 -51.095  1.00  0.00     0.011 A 
HETATM   13  H   UNL     1     -40.767  60.367 -51.177  1.00  0.00     0.169 HD
ENDROOT
BRANCH   5  14
HETATM   14  O   UNL     1     -41.753  57.989 -54.571  1.00  0.00    -0.371 OA
HETATM   15  H   UNL     1     -42.617  58.418 -54.685  1.00  0.00     0.212 HD
ENDBRANCH   5  14
BRANCH   5  16
HETATM   16  C   UNL     1     -41.280  56.365 -52.777  1.00  0.00     0.025 A 
HETATM   17  C   UNL     1     -41.178  55.755 -51.464  1.00  0.00     0.003 A 
HETATM   18  C   UNL     1     -40.852  54.410 -51.648  1.00  0.00     0.043 A 
HETATM   19  C   UNL     1     -41.323  56.203 -50.130  1.00  0.00     0.014 A 
HETATM   20  C   UNL     1     -40.693  53.502 -50.593  1.00  0.00     0.030 A 
HETATM   21  N   UNL     1     -40.716  54.204 -52.996  1.00  0.00    -0.359 N 
HETATM   22  C   UNL     1     -40.864  53.976 -49.292  1.00  0.00     0.002 A 
HETATM   23  C   UNL     1     -41.171  55.310 -49.061  1.00  0.00     0.001 A 
HETATM   24  H   UNL     1     -40.450  53.321 -53.409  1.00  0.00     0.166 HD
HETATM   25  C   UNL     1     -40.925  55.366 -53.688  1.00  0.00     0.016 A 
HETATM   26  C   UNL     1     -40.731  55.407 -55.164  1.00  0.00     0.069 C 
ENDBRANCH   5  16
TORSDOF 2
ENDMDL
MODEL 10
REMARK VINA RESULT:      -7.3      2.497      4.563
REMARK  2 active torsions:
REMARK  status: ('A' for Active; 'I' for Inactive)
REMARK    1  A    between atoms: C_5  and  O_6 
REMARK    2  A    between atoms: C_5  and  C_7 
ROOT
HETATM    1  C   UNL     1     -42.005  57.658 -58.745  1.00  0.00     0.050 C 
HETATM    2  C   UNL     1     -42.821  57.769 -57.495  1.00  0.00    -0.034 A 
HETATM    3  C   UNL     1     -42.783  56.811 -56.492  1.00  0.00     0.052 A 
HETATM    4  C   UNL     1     -43.520  56.917 -55.302  1.00  0.00     0.039 A 
HETATM    5  C   UNL     1     -43.276  55.698 -54.453  1.00  0.00     0.200 A 
HETATM    6  C   UNL     1     -42.272  54.884 -55.344  1.00  0.00     0.266 A 
HETATM    7  O   UNL     1     -41.771  53.789 -55.127  1.00  0.00    -0.269 OA
HETATM    8  N   UNL     1     -42.048  55.633 -56.497  1.00  0.00    -0.323 N 
HETATM    9  C   UNL     1     -44.351  58.007 -55.108  1.00  0.00     0.046 A 
HETATM   10 CL   UNL     1     -45.325  58.176 -53.700  1.00  0.00    -0.084 Cl
HETATM   11  C   UNL     1     -44.397  59.002 -56.091  1.00  0.00     0.025 A 
HETATM   12  C   UNL     1     -43.635  58.887 -57.268  1.00  0.00     0.011 A 
HETATM   13  H   UNL     1     -41.448  55.306 -57.239  1.00  0.00     0.169 HD
ENDROOT
BRANCH   5  14
HETATM   14  O   UNL     1     -44.527  55.030 -54.308  1.00  0.00    -0.371 OA
HETATM   15  H   UNL     1     -45.112  55.668 -53.865  1.00  0.00     0.212 HD
ENDBRANCH   5  14
BRANCH   5  16
HETATM   16  C   UNL     1     -42.622  56.058 -53.128  1.00  0.00     0.025 A 
HETATM   17  C   UNL     1     -41.705  57.135 -52.804  1.00  0.00     0.003 A 
HETATM   18  C   UNL     1     -41.395  57.030 -51.447  1.00  0.00     0.043 A 
HETATM   19  C   UNL     1     -41.096  58.192 -53.521  1.00  0.00     0.014 A 
HETATM   20  C   UNL     1     -40.547  57.921 -50.776  1.00  0.00     0.030 A 
HETATM   21  N   UNL     1     -42.046  55.926 -50.963  1.00  0.00    -0.359 N 
HETATM   22  C   UNL     1     -39.982  58.963 -51.511  1.00  0.00     0.002 A 
HETATM   23  C   UNL     1     -40.248  59.096 -52.868  1.00  0.00     0.001 A 
HETATM   24  H   UNL     1     -41.971  55.596 -50.011  1.00  0.00     0.166 HD
HETATM   25  C   UNL     1     -42.752  55.305 -51.958  1.00  0.00     0.016 A 
HETATM   26  C   UNL     1     -43.460  54.022 -51.690  1.00  0.00     0.069 C 
ENDBRANCH   5  16
TORSDOF 2
ENDMDL
