MODEL 1
REMARK VINA RESULT:      -8.9      0.000      0.000
REMARK  6 active torsions:
REMARK  status: ('A' for Active; 'I' for Inactive)
REMARK    1  A    between atoms: O_2  and  C_3 
REMARK    2  A    between atoms: C_6  and  C_7 
REMARK    3  A    between atoms: C_11  and  C_12 
REMARK       I    between atoms: C_12  and  N_13 
REMARK    4  A    between atoms: N_13  and  N_14 
REMARK       I    between atoms: N_14  and  C_15 
REMARK    5  A    between atoms: C_15  and  C_16 
REMARK    6  A    between atoms: C_17  and  C_18 
ROOT
HETATM    1  C   UNL     1     -43.152  56.961 -57.460  1.00  0.00     0.288 C 
HETATM    2  N   UNL     1     -43.219  55.637 -57.081  1.00  0.00    -0.262 N 
HETATM    3  O   UNL     1     -42.192  57.673 -57.169  1.00  0.00    -0.264 OA
HETATM    4  H   UNL     1     -43.991  55.016 -57.306  1.00  0.00     0.190 HD
ENDROOT
BRANCH   1   5
HETATM    5  C   UNL     1     -44.277  57.449 -58.207  1.00  0.00     0.121 A 
HETATM    6  N   UNL     1     -44.905  58.616 -57.875  1.00  0.00    -0.272 N 
HETATM    7  N   UNL     1     -45.955  58.917 -58.651  1.00  0.00    -0.174 NA
HETATM    8  H   UNL     1     -44.662  59.243 -57.114  1.00  0.00     0.189 HD
HETATM    9  C   UNL     1     -46.018  57.916 -59.544  1.00  0.00     0.089 A 
HETATM   10  C   UNL     1     -44.975  56.976 -59.301  1.00  0.00     0.071 A 
BRANCH   9  11
HETATM   11  C   UNL     1     -47.061  57.866 -60.574  1.00  0.00    -0.005 A 
HETATM   12  C   UNL     1     -47.692  59.030 -61.028  1.00  0.00     0.016 A 
HETATM   13  C   UNL     1     -48.668  58.964 -62.030  1.00  0.00     0.037 A 
HETATM   14  C   UNL     1     -49.028  57.742 -62.599  1.00  0.00     0.068 A 
HETATM   15  C   UNL     1     -48.417  56.576 -62.142  1.00  0.00     0.037 A 
HETATM   16  C   UNL     1     -47.443  56.640 -61.137  1.00  0.00     0.016 A 
BRANCH  14  17
HETATM   17  O   UNL     1     -49.981  57.822 -63.575  1.00  0.00    -0.356 OA
HETATM   18  C   UNL     1     -50.410  59.127 -63.945  1.00  0.00     0.210 C 
ENDBRANCH  14  17
ENDBRANCH   9  11
ENDBRANCH   1   5
BRANCH   2  19
HETATM   19  N   UNL     1     -42.174  55.093 -56.331  1.00  0.00    -0.267 N 
HETATM   20  C   UNL     1     -42.405  54.782 -55.012  1.00  0.00     0.240 C 
HETATM   21  O   UNL     1     -43.495  54.916 -54.463  1.00  0.00    -0.271 OA
HETATM   22  H   UNL     1     -41.257  55.057 -56.770  1.00  0.00     0.190 HD
BRANCH  20  23
HETATM   23  C   UNL     1     -41.211  54.284 -54.279  1.00  0.00     0.089 A 
HETATM   24  C   UNL     1     -40.765  52.846 -54.499  1.00  0.00     0.034 A 
HETATM   25  C   UNL     1     -39.922  53.997 -54.998  1.00  0.00     0.025 A 
BRANCH  24  26
HETATM   26  C   UNL     1     -40.346  52.015 -53.302  1.00  0.00    -0.031 A 
HETATM   27  C   UNL     1     -39.902  50.681 -53.421  1.00  0.00     0.040 A 
HETATM   28 CL   UNL     1     -39.824  49.905 -54.967  1.00  0.00    -0.084 Cl
HETATM   29  C   UNL     1     -39.506  49.937 -52.304  1.00  0.00     0.024 A 
HETATM   30  C   UNL     1     -39.536  50.511 -51.036  1.00  0.00     0.002 A 
HETATM   31  C   UNL     1     -39.956  51.828 -50.888  1.00  0.00     0.001 A 
HETATM   32  C   UNL     1     -40.348  52.569 -52.008  1.00  0.00     0.009 A 
ENDBRANCH  24  26
ENDBRANCH  20  23
ENDBRANCH   2  19
TORSDOF 6
ENDMDL
MODEL 2
REMARK VINA RESULT:      -8.7      4.159      5.509
REMARK  6 active torsions:
REMARK  status: ('A' for Active; 'I' for Inactive)
REMARK    1  A    between atoms: O_2  and  C_3 
REMARK    2  A    between atoms: C_6  and  C_7 
REMARK    3  A    between atoms: C_11  and  C_12 
REMARK       I    between atoms: C_12  and  N_13 
REMARK    4  A    between atoms: N_13  and  N_14 
REMARK       I    between atoms: N_14  and  C_15 
REMARK    5  A    between atoms: C_15  and  C_16 
REMARK    6  A    between atoms: C_17  and  C_18 
ROOT
HETATM    1  C   UNL     1     -42.903  56.474 -58.177  1.00  0.00     0.288 C 
HETATM    2  N   UNL     1     -42.103  56.433 -57.054  1.00  0.00    -0.262 N 
HETATM    3  O   UNL     1     -43.652  55.546 -58.476  1.00  0.00    -0.264 OA
HETATM    4  H   UNL     1     -41.476  57.181 -56.771  1.00  0.00     0.190 HD
ENDROOT
BRANCH   1   5
HETATM    5  C   UNL     1     -42.796  57.666 -58.971  1.00  0.00     0.121 A 
HETATM    6  N   UNL     1     -43.673  57.933 -59.983  1.00  0.00    -0.272 N 
HETATM    7  N   UNL     1     -43.419  59.069 -60.647  1.00  0.00    -0.174 NA
HETATM    8  H   UNL     1     -44.462  57.362 -60.272  1.00  0.00     0.189 HD
HETATM    9  C   UNL     1     -42.337  59.584 -60.042  1.00  0.00     0.089 A 
HETATM   10  C   UNL     1     -41.919  58.733 -58.978  1.00  0.00     0.071 A 
BRANCH   9  11
HETATM   11  C   UNL     1     -41.724  60.837 -60.495  1.00  0.00    -0.005 A 
HETATM   12  C   UNL     1     -41.064  61.689 -59.601  1.00  0.00     0.016 A 
HETATM   13  C   UNL     1     -40.463  62.868 -60.057  1.00  0.00     0.037 A 
HETATM   14  C   UNL     1     -40.503  63.216 -61.407  1.00  0.00     0.068 A 
HETATM   15  C   UNL     1     -41.171  62.383 -62.302  1.00  0.00     0.037 A 
HETATM   16  C   UNL     1     -41.776  61.204 -61.847  1.00  0.00     0.016 A 
BRANCH  14  17
HETATM   17  O   UNL     1     -39.865  64.385 -61.718  1.00  0.00    -0.356 OA
HETATM   18  C   UNL     1     -38.508  64.282 -62.131  1.00  0.00     0.210 C 
ENDBRANCH  14  17
ENDBRANCH   9  11
ENDBRANCH   1   5
BRANCH   2  19
HETATM   19  N   UNL     1     -42.133  55.297 -56.242  1.00  0.00    -0.267 N 
HETATM   20  C   UNL     1     -42.544  55.434 -54.937  1.00  0.00     0.240 C 
HETATM   21  O   UNL     1     -42.929  56.494 -54.453  1.00  0.00    -0.271 OA
HETATM   22  H   UNL     1     -41.742  54.440 -56.627  1.00  0.00     0.190 HD
BRANCH  20  23
HETATM   23  C   UNL     1     -42.465  54.185 -54.135  1.00  0.00     0.089 A 
HETATM   24  C   UNL     1     -41.246  53.957 -53.253  1.00  0.00     0.034 A 
HETATM   25  C   UNL     1     -42.602  54.214 -52.638  1.00  0.00     0.025 A 
BRANCH  24  26
HETATM   26  C   UNL     1     -40.607  52.582 -53.223  1.00  0.00    -0.031 A 
HETATM   27  C   UNL     1     -40.018  52.043 -52.060  1.00  0.00     0.040 A 
HETATM   28 CL   UNL     1     -39.982  52.945 -50.582  1.00  0.00    -0.084 Cl
HETATM   29  C   UNL     1     -39.447  50.766 -52.050  1.00  0.00     0.024 A 
HETATM   30  C   UNL     1     -39.456  49.988 -53.206  1.00  0.00     0.002 A 
HETATM   31  C   UNL     1     -40.041  50.486 -54.365  1.00  0.00     0.001 A 
HETATM   32  C   UNL     1     -40.614  51.763 -54.368  1.00  0.00     0.009 A 
ENDBRANCH  24  26
ENDBRANCH  20  23
ENDBRANCH   2  19
TORSDOF 6
ENDMDL
MODEL 3
REMARK VINA RESULT:      -8.6      6.992      9.408
REMARK  6 active torsions:
REMARK  status: ('A' for Active; 'I' for Inactive)
REMARK    1  A    between atoms: O_2  and  C_3 
REMARK    2  A    between atoms: C_6  and  C_7 
REMARK    3  A    between atoms: C_11  and  C_12 
REMARK       I    between atoms: C_12  and  N_13 
REMARK    4  A    between atoms: N_13  and  N_14 
REMARK       I    between atoms: N_14  and  C_15 
REMARK    5  A    between atoms: C_15  and  C_16 
REMARK    6  A    between atoms: C_17  and  C_18 
ROOT
HETATM    1  C   UNL     1     -41.176  59.026 -52.498  1.00  0.00     0.288 C 
HETATM    2  N   UNL     1     -41.602  57.754 -52.178  1.00  0.00    -0.262 N 
HETATM    3  O   UNL     1     -40.182  59.221 -53.197  1.00  0.00    -0.264 OA
HETATM    4  H   UNL     1     -42.420  57.551 -51.609  1.00  0.00     0.190 HD
ENDROOT
BRANCH   1   5
HETATM    5  C   UNL     1     -41.963  60.098 -51.958  1.00  0.00     0.121 A 
HETATM    6  N   UNL     1     -42.579  61.011 -52.766  1.00  0.00    -0.272 N 
HETATM    7  N   UNL     1     -43.249  61.966 -52.106  1.00  0.00    -0.174 NA
HETATM    8  H   UNL     1     -42.564  61.035 -53.781  1.00  0.00     0.189 HD
HETATM    9  C   UNL     1     -43.084  61.666 -50.808  1.00  0.00     0.089 A 
HETATM   10  C   UNL     1     -42.285  60.494 -50.675  1.00  0.00     0.071 A 
BRANCH   9  11
HETATM   11  C   UNL     1     -43.658  62.498 -49.745  1.00  0.00    -0.005 A 
HETATM   12  C   UNL     1     -44.475  61.947 -48.751  1.00  0.00     0.016 A 
HETATM   13  C   UNL     1     -44.992  62.753 -47.730  1.00  0.00     0.037 A 
HETATM   14  C   UNL     1     -44.703  64.116 -47.678  1.00  0.00     0.068 A 
HETATM   15  C   UNL     1     -43.903  64.678 -48.672  1.00  0.00     0.037 A 
HETATM   16  C   UNL     1     -43.387  63.873 -49.696  1.00  0.00     0.016 A 
BRANCH  14  17
HETATM   17  O   UNL     1     -45.260  64.782 -46.622  1.00  0.00    -0.356 OA
HETATM   18  C   UNL     1     -45.258  64.109 -45.369  1.00  0.00     0.210 C 
ENDBRANCH  14  17
ENDBRANCH   9  11
ENDBRANCH   1   5
BRANCH   2  19
HETATM   19  N   UNL     1     -40.876  56.657 -52.646  1.00  0.00    -0.267 N 
HETATM   20  C   UNL     1     -41.332  55.996 -53.762  1.00  0.00     0.240 C 
HETATM   21  O   UNL     1     -42.323  56.341 -54.399  1.00  0.00    -0.271 OA
HETATM   22  H   UNL     1     -40.102  56.333 -52.071  1.00  0.00     0.190 HD
BRANCH  20  23
HETATM   23  C   UNL     1     -40.535  54.797 -54.134  1.00  0.00     0.089 A 
HETATM   24  C   UNL     1     -41.232  53.447 -54.200  1.00  0.00     0.034 A 
HETATM   25  C   UNL     1     -40.731  54.114 -55.459  1.00  0.00     0.025 A 
BRANCH  24  26
HETATM   26  C   UNL     1     -40.539  52.231 -53.615  1.00  0.00    -0.031 A 
HETATM   27  C   UNL     1     -40.162  52.151 -52.257  1.00  0.00     0.040 A 
HETATM   28 CL   UNL     1     -40.467  53.465 -51.172  1.00  0.00    -0.084 Cl
HETATM   29  C   UNL     1     -39.535  51.014 -51.735  1.00  0.00     0.024 A 
HETATM   30  C   UNL     1     -39.274  49.921 -52.558  1.00  0.00     0.002 A 
HETATM   31  C   UNL     1     -39.646  49.965 -53.897  1.00  0.00     0.001 A 
HETATM   32  C   UNL     1     -40.275  51.103 -54.414  1.00  0.00     0.009 A 
ENDBRANCH  24  26
ENDBRANCH  20  23
ENDBRANCH   2  19
TORSDOF 6
ENDMDL
MODEL 4
REMARK VINA RESULT:      -8.4      3.149      3.898
REMARK  6 active torsions:
REMARK  status: ('A' for Active; 'I' for Inactive)
REMARK    1  A    between atoms: O_2  and  C_3 
REMARK    2  A    between atoms: C_6  and  C_7 
REMARK    3  A    between atoms: C_11  and  C_12 
REMARK       I    between atoms: C_12  and  N_13 
REMARK    4  A    between atoms: N_13  and  N_14 
REMARK       I    between atoms: N_14  and  C_15 
REMARK    5  A    between atoms: C_15  and  C_16 
REMARK    6  A    between atoms: C_17  and  C_18 
ROOT
HETATM    1  C   UNL     1     -42.939  55.745 -56.216  1.00  0.00     0.288 C 
HETATM    2  N   UNL     1     -43.715  55.676 -55.078  1.00  0.00    -0.262 N 
HETATM    3  O   UNL     1     -41.972  55.005 -56.390  1.00  0.00    -0.264 OA
HETATM    4  H   UNL     1     -44.523  56.265 -54.900  1.00  0.00     0.190 HD
ENDROOT
BRANCH   1   5
HETATM    5  C   UNL     1     -43.332  56.740 -57.174  1.00  0.00     0.121 A 
HETATM    6  N   UNL     1     -44.615  57.205 -57.239  1.00  0.00    -0.272 N 
HETATM    7  N   UNL     1     -44.825  58.107 -58.207  1.00  0.00    -0.174 NA
HETATM    8  H   UNL     1     -45.393  56.927 -56.649  1.00  0.00     0.189 HD
HETATM    9  C   UNL     1     -43.630  58.259 -58.800  1.00  0.00     0.089 A 
HETATM   10  C   UNL     1     -42.663  57.420 -58.174  1.00  0.00     0.071 A 
BRANCH   9  11
HETATM   11  C   UNL     1     -43.444  59.163 -59.939  1.00  0.00    -0.005 A 
HETATM   12  C   UNL     1     -42.166  59.556 -60.356  1.00  0.00     0.016 A 
HETATM   13  C   UNL     1     -42.007  60.399 -61.462  1.00  0.00     0.037 A 
HETATM   14  C   UNL     1     -43.115  60.861 -62.173  1.00  0.00     0.068 A 
HETATM   15  C   UNL     1     -44.391  60.489 -61.757  1.00  0.00     0.037 A 
HETATM   16  C   UNL     1     -44.552  59.648 -60.649  1.00  0.00     0.016 A 
BRANCH  14  17
HETATM   17  O   UNL     1     -42.818  61.665 -63.239  1.00  0.00    -0.356 OA
HETATM   18  C   UNL     1     -42.312  62.960 -62.941  1.00  0.00     0.210 C 
ENDBRANCH  14  17
ENDBRANCH   9  11
ENDBRANCH   1   5
BRANCH   2  19
HETATM   19  N   UNL     1     -43.383  54.749 -54.088  1.00  0.00    -0.267 N 
HETATM   20  C   UNL     1     -42.711  55.192 -52.973  1.00  0.00     0.240 C 
HETATM   21  O   UNL     1     -42.421  56.369 -52.777  1.00  0.00    -0.271 OA
HETATM   22  H   UNL     1     -43.558  53.768 -54.292  1.00  0.00     0.190 HD
BRANCH  20  23
HETATM   23  C   UNL     1     -42.334  54.120 -52.016  1.00  0.00     0.089 A 
HETATM   24  C   UNL     1     -40.859  53.814 -51.802  1.00  0.00     0.034 A 
HETATM   25  C   UNL     1     -41.680  54.445 -50.701  1.00  0.00     0.025 A 
BRANCH  24  26
HETATM   26  C   UNL     1     -40.411  52.366 -51.728  1.00  0.00    -0.031 A 
HETATM   27  C   UNL     1     -40.029  51.630 -52.870  1.00  0.00     0.040 A 
HETATM   28 CL   UNL     1     -40.063  52.350 -54.444  1.00  0.00    -0.084 Cl
HETATM   29  C   UNL     1     -39.605  50.300 -52.777  1.00  0.00     0.024 A 
HETATM   30  C   UNL     1     -39.546  49.671 -51.535  1.00  0.00     0.002 A 
HETATM   31  C   UNL     1     -39.904  50.374 -50.391  1.00  0.00     0.001 A 
HETATM   32  C   UNL     1     -40.324  51.705 -50.489  1.00  0.00     0.009 A 
ENDBRANCH  24  26
ENDBRANCH  20  23
ENDBRANCH   2  19
TORSDOF 6
ENDMDL
MODEL 5
REMARK VINA RESULT:      -8.4      2.190      2.614
REMARK  6 active torsions:
REMARK  status: ('A' for Active; 'I' for Inactive)
REMARK    1  A    between atoms: O_2  and  C_3 
REMARK    2  A    between atoms: C_6  and  C_7 
REMARK    3  A    between atoms: C_11  and  C_12 
REMARK       I    between atoms: C_12  and  N_13 
REMARK    4  A    between atoms: N_13  and  N_14 
REMARK       I    between atoms: N_14  and  C_15 
REMARK    5  A    between atoms: C_15  and  C_16 
REMARK    6  A    between atoms: C_17  and  C_18 
ROOT
HETATM    1  C   UNL     1     -43.453  56.328 -57.781  1.00  0.00     0.288 C 
HETATM    2  N   UNL     1     -43.251  55.099 -57.188  1.00  0.00    -0.262 N 
HETATM    3  O   UNL     1     -42.770  57.309 -57.493  1.00  0.00    -0.264 OA
HETATM    4  H   UNL     1     -43.790  54.265 -57.402  1.00  0.00     0.190 HD
ENDROOT
BRANCH   1   5
HETATM    5  C   UNL     1     -44.515  56.383 -58.746  1.00  0.00     0.121 A 
HETATM    6  N   UNL     1     -44.817  55.314 -59.540  1.00  0.00    -0.272 N 
HETATM    7  N   UNL     1     -45.813  55.537 -60.409  1.00  0.00    -0.174 NA
HETATM    8  H   UNL     1     -44.362  54.406 -59.538  1.00  0.00     0.189 HD
HETATM    9  C   UNL     1     -46.198  56.801 -60.171  1.00  0.00     0.089 A 
HETATM   10  C   UNL     1     -45.409  57.365 -59.127  1.00  0.00     0.071 A 
BRANCH   9  11
HETATM   11  C   UNL     1     -47.270  57.438 -60.942  1.00  0.00    -0.005 A 
HETATM   12  C   UNL     1     -47.525  58.811 -60.838  1.00  0.00     0.016 A 
HETATM   13  C   UNL     1     -48.536  59.406 -61.602  1.00  0.00     0.037 A 
HETATM   14  C   UNL     1     -49.306  58.647 -62.484  1.00  0.00     0.068 A 
HETATM   15  C   UNL     1     -49.071  57.277 -62.583  1.00  0.00     0.037 A 
HETATM   16  C   UNL     1     -48.062  56.680 -61.817  1.00  0.00     0.016 A 
BRANCH  14  17
HETATM   17  O   UNL     1     -50.248  59.354 -63.177  1.00  0.00    -0.356 OA
HETATM   18  C   UNL     1     -51.176  60.109 -62.408  1.00  0.00     0.210 C 
ENDBRANCH  14  17
ENDBRANCH   9  11
ENDBRANCH   1   5
BRANCH   2  19
HETATM   19  N   UNL     1     -42.252  54.970 -56.221  1.00  0.00    -0.267 N 
HETATM   20  C   UNL     1     -42.624  54.708 -54.924  1.00  0.00     0.240 C 
HETATM   21  O   UNL     1     -43.788  54.537 -54.571  1.00  0.00    -0.271 OA
HETATM   22  H   UNL     1     -41.299  55.187 -56.505  1.00  0.00     0.190 HD
BRANCH  20  23
HETATM   23  C   UNL     1     -41.496  54.666 -53.957  1.00  0.00     0.089 A 
HETATM   24  C   UNL     1     -41.441  53.532 -52.944  1.00  0.00     0.034 A 
HETATM   25  C   UNL     1     -40.423  53.617 -54.059  1.00  0.00     0.025 A 
BRANCH  24  26
HETATM   26  C   UNL     1     -41.072  53.846 -51.507  1.00  0.00    -0.031 A 
HETATM   27  C   UNL     1     -42.017  54.299 -50.562  1.00  0.00     0.040 A 
HETATM   28 CL   UNL     1     -43.674  54.535 -51.005  1.00  0.00    -0.084 Cl
HETATM   29  C   UNL     1     -41.658  54.570 -49.237  1.00  0.00     0.024 A 
HETATM   30  C   UNL     1     -40.341  54.388 -48.819  1.00  0.00     0.002 A 
HETATM   31  C   UNL     1     -39.391  53.930 -49.724  1.00  0.00     0.001 A 
HETATM   32  C   UNL     1     -39.755  53.658 -51.047  1.00  0.00     0.009 A 
ENDBRANCH  24  26
ENDBRANCH  20  23
ENDBRANCH   2  19
TORSDOF 6
ENDMDL
MODEL 6
REMARK VINA RESULT:      -8.2      4.950     11.470
REMARK  6 active torsions:
REMARK  status: ('A' for Active; 'I' for Inactive)
REMARK    1  A    between atoms: O_2  and  C_3 
REMARK    2  A    between atoms: C_6  and  C_7 
REMARK    3  A    between atoms: C_11  and  C_12 
REMARK       I    between atoms: C_12  and  N_13 
REMARK    4  A    between atoms: N_13  and  N_14 
REMARK       I    between atoms: N_14  and  C_15 
REMARK    5  A    between atoms: C_15  and  C_16 
REMARK    6  A    between atoms: C_17  and  C_18 
ROOT
HETATM    1  C   UNL     1     -43.330  57.049 -57.011  1.00  0.00     0.288 C 
HETATM    2  N   UNL     1     -42.237  57.489 -57.727  1.00  0.00    -0.262 N 
HETATM    3  O   UNL     1     -44.465  57.465 -57.238  1.00  0.00    -0.264 OA
HETATM    4  H   UNL     1     -41.285  57.166 -57.574  1.00  0.00     0.190 HD
ENDROOT
BRANCH   1   5
HETATM    5  C   UNL     1     -43.052  56.084 -55.986  1.00  0.00     0.121 A 
HETATM    6  N   UNL     1     -44.004  55.704 -55.082  1.00  0.00    -0.272 N 
HETATM    7  N   UNL     1     -43.578  54.819 -54.172  1.00  0.00    -0.174 NA
HETATM    8  H   UNL     1     -44.964  56.032 -55.036  1.00  0.00     0.189 HD
HETATM    9  C   UNL     1     -42.294  54.589 -54.493  1.00  0.00     0.089 A 
HETATM   10  C   UNL     1     -41.929  55.362 -55.633  1.00  0.00     0.071 A 
BRANCH   9  11
HETATM   11  C   UNL     1     -41.456  53.675 -53.710  1.00  0.00    -0.005 A 
HETATM   12  C   UNL     1     -40.773  52.613 -54.316  1.00  0.00     0.016 A 
HETATM   13  C   UNL     1     -39.956  51.768 -53.556  1.00  0.00     0.037 A 
HETATM   14  C   UNL     1     -39.802  51.966 -52.184  1.00  0.00     0.068 A 
HETATM   15  C   UNL     1     -40.489  53.010 -51.568  1.00  0.00     0.037 A 
HETATM   16  C   UNL     1     -41.309  53.856 -52.327  1.00  0.00     0.016 A 
BRANCH  14  17
HETATM   17  O   UNL     1     -38.966  51.078 -51.567  1.00  0.00    -0.356 OA
HETATM   18  C   UNL     1     -39.544  49.856 -51.125  1.00  0.00     0.210 C 
ENDBRANCH  14  17
ENDBRANCH   9  11
ENDBRANCH   1   5
BRANCH   2  19
HETATM   19  N   UNL     1     -42.421  58.446 -58.727  1.00  0.00    -0.267 N 
HETATM   20  C   UNL     1     -42.021  59.738 -58.480  1.00  0.00     0.240 C 
HETATM   21  O   UNL     1     -41.468  60.093 -57.443  1.00  0.00    -0.271 OA
HETATM   22  H   UNL     1     -42.947  58.163 -59.551  1.00  0.00     0.190 HD
BRANCH  20  23
HETATM   23  C   UNL     1     -42.331  60.697 -59.573  1.00  0.00     0.089 A 
HETATM   24  C   UNL     1     -41.445  60.708 -60.810  1.00  0.00     0.034 A 
HETATM   25  C   UNL     1     -42.874  60.222 -60.893  1.00  0.00     0.025 A 
BRANCH  24  26
HETATM   26  C   UNL     1     -41.024  62.040 -61.401  1.00  0.00    -0.031 A 
HETATM   27  C   UNL     1     -40.172  62.937 -60.723  1.00  0.00     0.040 A 
HETATM   28 CL   UNL     1     -39.560  62.562 -59.147  1.00  0.00    -0.084 Cl
HETATM   29  C   UNL     1     -39.785  64.155 -61.293  1.00  0.00     0.024 A 
HETATM   30  C   UNL     1     -40.236  64.506 -62.563  1.00  0.00     0.002 A 
HETATM   31  C   UNL     1     -41.066  63.637 -63.262  1.00  0.00     0.001 A 
HETATM   32  C   UNL     1     -41.448  62.419 -62.689  1.00  0.00     0.009 A 
ENDBRANCH  24  26
ENDBRANCH  20  23
ENDBRANCH   2  19
TORSDOF 6
ENDMDL
MODEL 7
REMARK VINA RESULT:      -8.2      7.969     11.886
REMARK  6 active torsions:
REMARK  status: ('A' for Active; 'I' for Inactive)
REMARK    1  A    between atoms: O_2  and  C_3 
REMARK    2  A    between atoms: C_6  and  C_7 
REMARK    3  A    between atoms: C_11  and  C_12 
REMARK       I    between atoms: C_12  and  N_13 
REMARK    4  A    between atoms: N_13  and  N_14 
REMARK       I    between atoms: N_14  and  C_15 
REMARK    5  A    between atoms: C_15  and  C_16 
REMARK    6  A    between atoms: C_17  and  C_18 
ROOT
HETATM    1  C   UNL     1     -42.708  58.717 -52.253  1.00  0.00     0.288 C 
HETATM    2  N   UNL     1     -43.411  58.737 -51.067  1.00  0.00    -0.262 N 
HETATM    3  O   UNL     1     -42.465  59.747 -52.882  1.00  0.00    -0.264 OA
HETATM    4  H   UNL     1     -43.626  57.910 -50.517  1.00  0.00     0.190 HD
ENDROOT
BRANCH   1   5
HETATM    5  C   UNL     1     -42.287  57.421 -52.704  1.00  0.00     0.121 A 
HETATM    6  N   UNL     1     -42.551  56.982 -53.970  1.00  0.00    -0.272 N 
HETATM    7  N   UNL     1     -42.119  55.739 -54.224  1.00  0.00    -0.174 NA
HETATM    8  H   UNL     1     -43.038  57.491 -54.701  1.00  0.00     0.189 HD
HETATM    9  C   UNL     1     -41.530  55.342 -53.084  1.00  0.00     0.089 A 
HETATM   10  C   UNL     1     -41.610  56.376 -52.106  1.00  0.00     0.071 A 
BRANCH   9  11
HETATM   11  C   UNL     1     -40.937  54.008 -52.947  1.00  0.00    -0.005 A 
HETATM   12  C   UNL     1     -40.453  53.549 -51.716  1.00  0.00     0.016 A 
HETATM   13  C   UNL     1     -39.915  52.263 -51.599  1.00  0.00     0.037 A 
HETATM   14  C   UNL     1     -39.853  51.411 -52.702  1.00  0.00     0.068 A 
HETATM   15  C   UNL     1     -40.317  51.863 -53.935  1.00  0.00     0.037 A 
HETATM   16  C   UNL     1     -40.854  53.152 -54.054  1.00  0.00     0.016 A 
BRANCH  14  17
HETATM   17  O   UNL     1     -39.317  50.179 -52.446  1.00  0.00    -0.356 OA
HETATM   18  C   UNL     1     -39.473  49.676 -51.125  1.00  0.00     0.210 C 
ENDBRANCH  14  17
ENDBRANCH   9  11
ENDBRANCH   1   5
BRANCH   2  19
HETATM   19  N   UNL     1     -43.875  59.958 -50.574  1.00  0.00    -0.267 N 
HETATM   20  C   UNL     1     -45.140  60.011 -50.038  1.00  0.00     0.240 C 
HETATM   21  O   UNL     1     -45.873  59.032 -49.927  1.00  0.00    -0.271 OA
HETATM   22  H   UNL     1     -43.294  60.777 -50.739  1.00  0.00     0.190 HD
BRANCH  20  23
HETATM   23  C   UNL     1     -45.571  61.369 -49.613  1.00  0.00     0.089 A 
HETATM   24  C   UNL     1     -44.735  62.113 -48.582  1.00  0.00     0.034 A 
HETATM   25  C   UNL     1     -44.794  62.592 -50.015  1.00  0.00     0.025 A 
BRANCH  24  26
HETATM   26  C   UNL     1     -45.439  62.861 -47.466  1.00  0.00    -0.031 A 
HETATM   27  C   UNL     1     -45.421  62.419 -46.126  1.00  0.00     0.040 A 
HETATM   28 CL   UNL     1     -44.588  60.968 -45.680  1.00  0.00    -0.084 Cl
HETATM   29  C   UNL     1     -46.065  63.132 -45.109  1.00  0.00     0.024 A 
HETATM   30  C   UNL     1     -46.742  64.313 -45.406  1.00  0.00     0.002 A 
HETATM   31  C   UNL     1     -46.767  64.781 -46.714  1.00  0.00     0.001 A 
HETATM   32  C   UNL     1     -46.118  64.066 -47.727  1.00  0.00     0.009 A 
ENDBRANCH  24  26
ENDBRANCH  20  23
ENDBRANCH   2  19
TORSDOF 6
ENDMDL
MODEL 8
REMARK VINA RESULT:      -8.1      4.446      5.002
REMARK  6 active torsions:
REMARK  status: ('A' for Active; 'I' for Inactive)
REMARK    1  A    between atoms: O_2  and  C_3 
REMARK    2  A    between atoms: C_6  and  C_7 
REMARK    3  A    between atoms: C_11  and  C_12 
REMARK       I    between atoms: C_12  and  N_13 
REMARK    4  A    between atoms: N_13  and  N_14 
REMARK       I    between atoms: N_14  and  C_15 
REMARK    5  A    between atoms: C_15  and  C_16 
REMARK    6  A    between atoms: C_17  and  C_18 
ROOT
HETATM    1  C   UNL     1     -42.510  57.232 -55.698  1.00  0.00     0.288 C 
HETATM    2  N   UNL     1     -41.409  56.500 -55.307  1.00  0.00    -0.262 N 
HETATM    3  O   UNL     1     -43.652  56.911 -55.373  1.00  0.00    -0.264 OA
HETATM    4  H   UNL     1     -40.451  56.734 -55.550  1.00  0.00     0.190 HD
ENDROOT
BRANCH   1   5
HETATM    5  C   UNL     1     -42.233  58.382 -56.510  1.00  0.00     0.121 A 
HETATM    6  N   UNL     1     -42.117  59.631 -55.969  1.00  0.00    -0.272 N 
HETATM    7  N   UNL     1     -41.888  60.601 -56.864  1.00  0.00    -0.174 NA
HETATM    8  H   UNL     1     -42.198  59.878 -54.987  1.00  0.00     0.189 HD
HETATM    9  C   UNL     1     -41.835  59.969 -58.047  1.00  0.00     0.089 A 
HETATM   10  C   UNL     1     -42.041  58.571 -57.865  1.00  0.00     0.071 A 
BRANCH   9  11
HETATM   11  C   UNL     1     -41.616  60.697 -59.301  1.00  0.00    -0.005 A 
HETATM   12  C   UNL     1     -42.159  60.245 -60.510  1.00  0.00     0.016 A 
HETATM   13  C   UNL     1     -41.961  60.968 -61.692  1.00  0.00     0.037 A 
HETATM   14  C   UNL     1     -41.225  62.154 -61.691  1.00  0.00     0.068 A 
HETATM   15  C   UNL     1     -40.668  62.604 -60.496  1.00  0.00     0.037 A 
HETATM   16  C   UNL     1     -40.862  61.880 -59.313  1.00  0.00     0.016 A 
BRANCH  14  17
HETATM   17  O   UNL     1     -41.121  62.766 -62.909  1.00  0.00    -0.356 OA
HETATM   18  C   UNL     1     -42.061  62.377 -63.903  1.00  0.00     0.210 C 
ENDBRANCH  14  17
ENDBRANCH   9  11
ENDBRANCH   1   5
BRANCH   2  19
HETATM   19  N   UNL     1     -41.598  55.352 -54.534  1.00  0.00    -0.267 N 
HETATM   20  C   UNL     1     -41.401  55.436 -53.176  1.00  0.00     0.240 C 
HETATM   21  O   UNL     1     -41.109  56.477 -52.594  1.00  0.00    -0.271 OA
HETATM   22  H   UNL     1     -41.764  54.480 -55.030  1.00  0.00     0.190 HD
BRANCH  20  23
HETATM   23  C   UNL     1     -41.549  54.146 -52.452  1.00  0.00     0.089 A 
HETATM   24  C   UNL     1     -40.327  53.541 -51.777  1.00  0.00     0.034 A 
HETATM   25  C   UNL     1     -41.471  54.082 -50.952  1.00  0.00     0.025 A 
BRANCH  24  26
HETATM   26  C   UNL     1     -40.077  52.051 -51.907  1.00  0.00    -0.031 A 
HETATM   27  C   UNL     1     -39.869  51.421 -53.152  1.00  0.00     0.040 A 
HETATM   28 CL   UNL     1     -39.901  52.331 -54.625  1.00  0.00    -0.084 Cl
HETATM   29  C   UNL     1     -39.625  50.047 -53.248  1.00  0.00     0.024 A 
HETATM   30  C   UNL     1     -39.577  49.264 -52.096  1.00  0.00     0.002 A 
HETATM   31  C   UNL     1     -39.765  49.858 -50.854  1.00  0.00     0.001 A 
HETATM   32  C   UNL     1     -40.005  51.234 -50.763  1.00  0.00     0.009 A 
ENDBRANCH  24  26
ENDBRANCH  20  23
ENDBRANCH   2  19
TORSDOF 6
ENDMDL
MODEL 9
REMARK VINA RESULT:      -8.1     17.023     22.236
REMARK  6 active torsions:
REMARK  status: ('A' for Active; 'I' for Inactive)
REMARK    1  A    between atoms: O_2  and  C_3 
REMARK    2  A    between atoms: C_6  and  C_7 
REMARK    3  A    between atoms: C_11  and  C_12 
REMARK       I    between atoms: C_12  and  N_13 
REMARK    4  A    between atoms: N_13  and  N_14 
REMARK       I    between atoms: N_14  and  C_15 
REMARK    5  A    between atoms: C_15  and  C_16 
REMARK    6  A    between atoms: C_17  and  C_18 
ROOT
HETATM    1  C   UNL     1     -33.927  40.259 -51.962  1.00  0.00     0.288 C 
HETATM    2  N   UNL     1     -33.483  41.169 -52.898  1.00  0.00    -0.262 N 
HETATM    3  O   UNL     1     -35.006  39.681 -52.079  1.00  0.00    -0.264 OA
HETATM    4  H   UNL     1     -32.596  41.662 -52.840  1.00  0.00     0.190 HD
ENDROOT
BRANCH   1   5
HETATM    5  C   UNL     1     -33.051  40.039 -50.846  1.00  0.00     0.121 A 
HETATM    6  N   UNL     1     -31.692  40.068 -50.986  1.00  0.00    -0.272 N 
HETATM    7  N   UNL     1     -31.017  39.814 -49.857  1.00  0.00    -0.174 NA
HETATM    8  H   UNL     1     -31.172  40.246 -51.840  1.00  0.00     0.189 HD
HETATM    9  C   UNL     1     -31.965  39.623 -48.926  1.00  0.00     0.089 A 
HETATM   10  C   UNL     1     -33.258  39.763 -49.509  1.00  0.00     0.071 A 
BRANCH   9  11
HETATM   11  C   UNL     1     -31.628  39.297 -47.537  1.00  0.00    -0.005 A 
HETATM   12  C   UNL     1     -30.625  39.991 -46.849  1.00  0.00     0.016 A 
HETATM   13  C   UNL     1     -30.335  39.682 -45.515  1.00  0.00     0.037 A 
HETATM   14  C   UNL     1     -31.040  38.683 -44.842  1.00  0.00     0.068 A 
HETATM   15  C   UNL     1     -32.029  37.976 -45.523  1.00  0.00     0.037 A 
HETATM   16  C   UNL     1     -32.318  38.281 -46.859  1.00  0.00     0.016 A 
BRANCH  14  17
HETATM   17  O   UNL     1     -30.666  38.493 -43.541  1.00  0.00    -0.356 OA
HETATM   18  C   UNL     1     -31.541  37.718 -42.731  1.00  0.00     0.210 C 
ENDBRANCH  14  17
ENDBRANCH   9  11
ENDBRANCH   1   5
BRANCH   2  19
HETATM   19  N   UNL     1     -34.289  41.455 -54.001  1.00  0.00    -0.267 N 
HETATM   20  C   UNL     1     -33.782  41.234 -55.260  1.00  0.00     0.240 C 
HETATM   21  O   UNL     1     -32.671  40.757 -55.471  1.00  0.00    -0.271 OA
HETATM   22  H   UNL     1     -35.176  41.920 -53.821  1.00  0.00     0.190 HD
BRANCH  20  23
HETATM   23  C   UNL     1     -34.686  41.642 -56.367  1.00  0.00     0.089 A 
HETATM   24  C   UNL     1     -35.944  40.826 -56.624  1.00  0.00     0.034 A 
HETATM   25  C   UNL     1     -36.039  42.236 -56.087  1.00  0.00     0.025 A 
BRANCH  24  26
HETATM   26  C   UNL     1     -36.326  40.494 -58.054  1.00  0.00    -0.031 A 
HETATM   27  C   UNL     1     -36.016  39.255 -58.655  1.00  0.00     0.040 A 
HETATM   28 CL   UNL     1     -35.156  38.033 -57.780  1.00  0.00    -0.084 Cl
HETATM   29  C   UNL     1     -36.390  38.964 -59.971  1.00  0.00     0.024 A 
HETATM   30  C   UNL     1     -37.093  39.904 -60.721  1.00  0.00     0.002 A 
HETATM   31  C   UNL     1     -37.426  41.128 -60.152  1.00  0.00     0.001 A 
HETATM   32  C   UNL     1     -37.051  41.413 -58.835  1.00  0.00     0.009 A 
ENDBRANCH  24  26
ENDBRANCH  20  23
ENDBRANCH   2  19
TORSDOF 6
ENDMDL
MODEL 10
REMARK VINA RESULT:      -8.0      3.391      3.986
REMARK  6 active torsions:
REMARK  status: ('A' for Active; 'I' for Inactive)
REMARK    1  A    between atoms: O_2  and  C_3 
REMARK    2  A    between atoms: C_6  and  C_7 
REMARK    3  A    between atoms: C_11  and  C_12 
REMARK       I    between atoms: C_12  and  N_13 
REMARK    4  A    between atoms: N_13  and  N_14 
REMARK       I    between atoms: N_14  and  C_15 
REMARK    5  A    between atoms: C_15  and  C_16 
REMARK    6  A    between atoms: C_17  and  C_18 
ROOT
HETATM    1  C   UNL     1     -42.946  56.032 -58.235  1.00  0.00     0.288 C 
HETATM    2  N   UNL     1     -42.124  56.085 -57.129  1.00  0.00    -0.262 N 
HETATM    3  O   UNL     1     -43.732  55.103 -58.416  1.00  0.00    -0.264 OA
HETATM    4  H   UNL     1     -41.466  56.837 -56.941  1.00  0.00     0.190 HD
ENDROOT
BRANCH   1   5
HETATM    5  C   UNL     1     -42.816  57.124 -59.157  1.00  0.00     0.121 A 
HETATM    6  N   UNL     1     -41.680  57.310 -59.892  1.00  0.00    -0.272 N 
HETATM    7  N   UNL     1     -41.706  58.392 -60.683  1.00  0.00    -0.174 NA
HETATM    8  H   UNL     1     -40.846  56.730 -59.881  1.00  0.00     0.189 HD
HETATM    9  C   UNL     1     -42.915  58.938 -60.476  1.00  0.00     0.089 A 
HETATM   10  C   UNL     1     -43.645  58.165 -59.527  1.00  0.00     0.071 A 
BRANCH   9  11
HETATM   11  C   UNL     1     -43.331  60.170 -61.155  1.00  0.00    -0.005 A 
HETATM   12  C   UNL     1     -42.406  61.169 -61.481  1.00  0.00     0.016 A 
HETATM   13  C   UNL     1     -42.818  62.326 -62.152  1.00  0.00     0.037 A 
HETATM   14  C   UNL     1     -44.153  62.506 -62.513  1.00  0.00     0.068 A 
HETATM   15  C   UNL     1     -45.084  61.525 -62.180  1.00  0.00     0.037 A 
HETATM   16  C   UNL     1     -44.674  60.367 -61.505  1.00  0.00     0.016 A 
BRANCH  14  17
HETATM   17  O   UNL     1     -44.416  63.673 -63.176  1.00  0.00    -0.356 OA
HETATM   18  C   UNL     1     -45.752  64.157 -63.112  1.00  0.00     0.210 C 
ENDBRANCH  14  17
ENDBRANCH   9  11
ENDBRANCH   1   5
BRANCH   2  19
HETATM   19  N   UNL     1     -42.174  55.047 -56.196  1.00  0.00    -0.267 N 
HETATM   20  C   UNL     1     -42.031  55.355 -54.864  1.00  0.00     0.240 C 
HETATM   21  O   UNL     1     -41.904  56.500 -54.440  1.00  0.00    -0.271 OA
HETATM   22  H   UNL     1     -42.203  54.097 -56.559  1.00  0.00     0.190 HD
BRANCH  20  23
HETATM   23  C   UNL     1     -42.020  54.176 -53.959  1.00  0.00     0.089 A 
HETATM   24  C   UNL     1     -40.729  53.821 -53.235  1.00  0.00     0.034 A 
HETATM   25  C   UNL     1     -41.922  54.341 -52.468  1.00  0.00     0.025 A 
BRANCH  24  26
HETATM   26  C   UNL     1     -40.306  52.366 -53.156  1.00  0.00    -0.031 A 
HETATM   27  C   UNL     1     -39.959  51.741 -51.940  1.00  0.00     0.040 A 
HETATM   28 CL   UNL     1     -39.987  52.621 -50.449  1.00  0.00    -0.084 Cl
HETATM   29  C   UNL     1     -39.586  50.394 -51.887  1.00  0.00     0.024 A 
HETATM   30  C   UNL     1     -39.555  49.632 -53.053  1.00  0.00     0.002 A 
HETATM   31  C   UNL     1     -39.905  50.216 -54.265  1.00  0.00     0.001 A 
HETATM   32  C   UNL     1     -40.280  51.563 -54.312  1.00  0.00     0.009 A 
ENDBRANCH  24  26
ENDBRANCH  20  23
ENDBRANCH   2  19
TORSDOF 6
ENDMDL
