MODEL 1
REMARK VINA RESULT:      -8.7      0.000      0.000
REMARK  9 active torsions:
REMARK  status: ('A' for Active; 'I' for Inactive)
REMARK    1  A    between atoms: C_3  and  C_4 
REMARK       I    between atoms: C_4  and  N_5 
REMARK    2  A    between atoms: N_5  and  C_6 
REMARK    3  A    between atoms: C_6  and  C_7 
REMARK    4  A    between atoms: C_14  and  N_15 
REMARK       I    between atoms: N_15  and  C_16 
REMARK    5  A    between atoms: C_16  and  C_17 
REMARK       I    between atoms: C_17  and  N_18 
REMARK    6  A    between atoms: N_18  and  C_19 
REMARK    7  A    between atoms: C_19  and  C_20 
REMARK    8  A    between atoms: C_20  and  C_21 
REMARK    9  A    between atoms: C_24  and  O_25 
ROOT
HETATM    1  N   UNL     1     -40.793  53.576 -54.106  1.00  0.00    -0.318 N 
HETATM    2  C   UNL     1     -42.059  54.120 -54.048  1.00  0.00     0.313 C 
HETATM    3  O   UNL     1     -43.028  53.726 -53.410  1.00  0.00    -0.262 OA
HETATM    4  H   UNL     1     -40.080  54.210 -54.459  1.00  0.00     0.169 HD
ENDROOT
BRANCH   1   5
HETATM    5  C   UNL     1     -40.390  52.369 -53.503  1.00  0.00     0.051 A 
HETATM    6  C   UNL     1     -39.986  52.222 -52.162  1.00  0.00     0.058 A 
HETATM    7  C   UNL     1     -39.525  50.972 -51.708  1.00  0.00     0.019 A 
HETATM    8  C   UNL     1     -39.482  49.876 -52.569  1.00  0.00     0.001 A 
HETATM    9  C   UNL     1     -39.933  50.007 -53.879  1.00  0.00     0.002 A 
HETATM   10  C   UNL     1     -40.398  51.241 -54.337  1.00  0.00     0.030 A 
BRANCH   6  11
HETATM   11  C   UNL     1     -40.251  53.266 -51.133  1.00  0.00     0.254 C 
HETATM   12  N   UNL     1     -41.579  53.504 -50.843  1.00  0.00    -0.353 N 
HETATM   13  H   UNL     1     -42.272  52.832 -51.146  1.00  0.00     0.163 HD
HETATM   14  O   UNL     1     -39.322  53.893 -50.635  1.00  0.00    -0.268 OA
BRANCH  12  15
HETATM   15  C   UNL     1     -41.963  54.454 -49.822  1.00  0.00     0.162 C 
BRANCH  15  16
HETATM   16  C   UNL     1     -42.414  55.759 -50.414  1.00  0.00    -0.023 A 
HETATM   17  C   UNL     1     -41.506  56.787 -50.651  1.00  0.00     0.125 A 
HETATM   18  N   UNL     1     -41.825  57.970 -51.226  1.00  0.00    -0.273 NA
HETATM   19  C   UNL     1     -43.111  58.134 -51.600  1.00  0.00     0.116 A 
HETATM   20  C   UNL     1     -44.092  57.174 -51.424  1.00  0.00     0.020 A 
HETATM   21  C   UNL     1     -43.733  55.969 -50.828  1.00  0.00     0.012 A 
ENDBRANCH  15  16
ENDBRANCH  12  15
ENDBRANCH   6  11
ENDBRANCH   1   5
BRANCH   2  22
HETATM   22  C   UNL     1     -42.148  55.466 -54.803  1.00  0.00     0.309 C 
HETATM   23  N   UNL     1     -43.142  55.502 -55.755  1.00  0.00    -0.353 N 
HETATM   24  H   UNL     1     -43.654  54.637 -55.904  1.00  0.00     0.162 HD
HETATM   25  O   UNL     1     -41.398  56.385 -54.506  1.00  0.00    -0.262 OA
BRANCH  23  26
HETATM   26  C   UNL     1     -43.335  56.629 -56.645  1.00  0.00     0.128 C 
BRANCH  26  27
HETATM   27  C   UNL     1     -42.818  56.320 -58.050  1.00  0.00     0.058 C 
BRANCH  27  28
HETATM   28  C   UNL     1     -43.932  56.222 -59.062  1.00  0.00    -0.057 A 
HETATM   29  C   UNL     1     -43.975  55.152 -59.967  1.00  0.00     0.010 A 
HETATM   30  C   UNL     1     -45.007  55.054 -60.903  1.00  0.00     0.037 A 
HETATM   31  C   UNL     1     -45.993  56.035 -60.937  1.00  0.00     0.065 A 
HETATM   32  C   UNL     1     -45.960  57.109 -60.058  1.00  0.00     0.037 A 
HETATM   33  C   UNL     1     -44.930  57.205 -59.120  1.00  0.00     0.010 A 
BRANCH  31  34
HETATM   34  O   UNL     1     -47.022  55.976 -61.830  1.00  0.00    -0.361 OA
HETATM   35  H   UNL     1     -47.290  55.047 -61.929  1.00  0.00     0.217 HD
ENDBRANCH  31  34
ENDBRANCH  27  28
ENDBRANCH  26  27
ENDBRANCH  23  26
ENDBRANCH   2  22
TORSDOF 9
ENDMDL
MODEL 2
REMARK VINA RESULT:      -8.5      1.469      2.013
REMARK  9 active torsions:
REMARK  status: ('A' for Active; 'I' for Inactive)
REMARK    1  A    between atoms: C_3  and  C_4 
REMARK       I    between atoms: C_4  and  N_5 
REMARK    2  A    between atoms: N_5  and  C_6 
REMARK    3  A    between atoms: C_6  and  C_7 
REMARK    4  A    between atoms: C_14  and  N_15 
REMARK       I    between atoms: N_15  and  C_16 
REMARK    5  A    between atoms: C_16  and  C_17 
REMARK       I    between atoms: C_17  and  N_18 
REMARK    6  A    between atoms: N_18  and  C_19 
REMARK    7  A    between atoms: C_19  and  C_20 
REMARK    8  A    between atoms: C_20  and  C_21 
REMARK    9  A    between atoms: C_24  and  O_25 
ROOT
HETATM    1  N   UNL     1     -41.590  53.431 -54.474  1.00  0.00    -0.318 N 
HETATM    2  C   UNL     1     -41.104  54.621 -54.974  1.00  0.00     0.313 C 
HETATM    3  O   UNL     1     -39.979  55.092 -54.858  1.00  0.00    -0.262 OA
HETATM    4  H   UNL     1     -42.444  53.106 -54.920  1.00  0.00     0.169 HD
ENDROOT
BRANCH   1   5
HETATM    5  C   UNL     1     -40.891  52.552 -53.624  1.00  0.00     0.051 A 
HETATM    6  C   UNL     1     -40.631  52.772 -52.258  1.00  0.00     0.058 A 
HETATM    7  C   UNL     1     -39.846  51.848 -51.542  1.00  0.00     0.019 A 
HETATM    8  C   UNL     1     -39.339  50.711 -52.170  1.00  0.00     0.001 A 
HETATM    9  C   UNL     1     -39.642  50.465 -53.506  1.00  0.00     0.002 A 
HETATM   10  C   UNL     1     -40.425  51.372 -54.223  1.00  0.00     0.030 A 
BRANCH   6  11
HETATM   11  C   UNL     1     -41.348  53.812 -51.470  1.00  0.00     0.254 C 
HETATM   12  N   UNL     1     -40.563  54.809 -50.928  1.00  0.00    -0.353 N 
HETATM   13  H   UNL     1     -39.617  54.923 -51.269  1.00  0.00     0.163 HD
HETATM   14  O   UNL     1     -42.559  53.724 -51.289  1.00  0.00    -0.268 OA
BRANCH  12  15
HETATM   15  C   UNL     1     -41.149  55.905 -50.189  1.00  0.00     0.162 C 
BRANCH  15  16
HETATM   16  C   UNL     1     -41.182  57.170 -50.998  1.00  0.00    -0.023 A 
HETATM   17  C   UNL     1     -41.541  57.148 -52.343  1.00  0.00     0.125 A 
HETATM   18  N   UNL     1     -41.642  58.248 -53.124  1.00  0.00    -0.273 NA
HETATM   19  C   UNL     1     -41.390  59.436 -52.533  1.00  0.00     0.116 A 
HETATM   20  C   UNL     1     -41.039  59.574 -51.202  1.00  0.00     0.020 A 
HETATM   21  C   UNL     1     -40.940  58.423 -50.425  1.00  0.00     0.012 A 
ENDBRANCH  15  16
ENDBRANCH  12  15
ENDBRANCH   6  11
ENDBRANCH   1   5
BRANCH   2  22
HETATM   22  C   UNL     1     -42.127  55.326 -55.893  1.00  0.00     0.309 C 
HETATM   23  N   UNL     1     -41.899  56.675 -56.044  1.00  0.00    -0.353 N 
HETATM   24  H   UNL     1     -41.142  57.067 -55.492  1.00  0.00     0.162 HD
HETATM   25  O   UNL     1     -43.011  54.677 -56.435  1.00  0.00    -0.262 OA
BRANCH  23  26
HETATM   26  C   UNL     1     -42.795  57.544 -56.781  1.00  0.00     0.128 C 
BRANCH  26  27
HETATM   27  C   UNL     1     -42.420  57.597 -58.262  1.00  0.00     0.058 C 
BRANCH  27  28
HETATM   28  C   UNL     1     -43.540  57.124 -59.154  1.00  0.00    -0.057 A 
HETATM   29  C   UNL     1     -44.670  57.929 -59.361  1.00  0.00     0.010 A 
HETATM   30  C   UNL     1     -45.707  57.497 -60.190  1.00  0.00     0.037 A 
HETATM   31  C   UNL     1     -45.616  56.254 -60.807  1.00  0.00     0.065 A 
HETATM   32  C   UNL     1     -44.512  55.437 -60.604  1.00  0.00     0.037 A 
HETATM   33  C   UNL     1     -43.473  55.870 -59.777  1.00  0.00     0.010 A 
BRANCH  31  34
HETATM   34  O   UNL     1     -46.602  55.795 -61.630  1.00  0.00    -0.361 OA
HETATM   35  H   UNL     1     -47.018  56.558 -62.065  1.00  0.00     0.217 HD
ENDBRANCH  31  34
ENDBRANCH  27  28
ENDBRANCH  26  27
ENDBRANCH  23  26
ENDBRANCH   2  22
TORSDOF 9
ENDMDL
MODEL 3
REMARK VINA RESULT:      -8.5      2.801      4.871
REMARK  9 active torsions:
REMARK  status: ('A' for Active; 'I' for Inactive)
REMARK    1  A    between atoms: C_3  and  C_4 
REMARK       I    between atoms: C_4  and  N_5 
REMARK    2  A    between atoms: N_5  and  C_6 
REMARK    3  A    between atoms: C_6  and  C_7 
REMARK    4  A    between atoms: C_14  and  N_15 
REMARK       I    between atoms: N_15  and  C_16 
REMARK    5  A    between atoms: C_16  and  C_17 
REMARK       I    between atoms: C_17  and  N_18 
REMARK    6  A    between atoms: N_18  and  C_19 
REMARK    7  A    between atoms: C_19  and  C_20 
REMARK    8  A    between atoms: C_20  and  C_21 
REMARK    9  A    between atoms: C_24  and  O_25 
ROOT
HETATM    1  N   UNL     1     -41.869  53.738 -54.351  1.00  0.00    -0.318 N 
HETATM    2  C   UNL     1     -41.437  54.919 -54.916  1.00  0.00     0.313 C 
HETATM    3  O   UNL     1     -40.301  55.375 -54.952  1.00  0.00    -0.262 OA
HETATM    4  H   UNL     1     -42.779  53.424 -54.679  1.00  0.00     0.169 HD
ENDROOT
BRANCH   1   5
HETATM    5  C   UNL     1     -41.076  52.852 -53.597  1.00  0.00     0.051 A 
HETATM    6  C   UNL     1     -40.694  53.039 -52.255  1.00  0.00     0.058 A 
HETATM    7  C   UNL     1     -39.827  52.114 -51.643  1.00  0.00     0.019 A 
HETATM    8  C   UNL     1     -39.357  51.007 -52.350  1.00  0.00     0.001 A 
HETATM    9  C   UNL     1     -39.777  50.792 -53.659  1.00  0.00     0.002 A 
HETATM   10  C   UNL     1     -40.643  51.700 -54.272  1.00  0.00     0.030 A 
BRANCH   6  11
HETATM   11  C   UNL     1     -41.357  54.038 -51.372  1.00  0.00     0.254 C 
HETATM   12  N   UNL     1     -40.562  55.076 -50.931  1.00  0.00    -0.353 N 
HETATM   13  H   UNL     1     -39.677  55.241 -51.392  1.00  0.00     0.163 HD
HETATM   14  O   UNL     1     -42.527  53.884 -51.034  1.00  0.00    -0.268 OA
BRANCH  12  15
HETATM   15  C   UNL     1     -41.105  56.139 -50.113  1.00  0.00     0.162 C 
BRANCH  15  16
HETATM   16  C   UNL     1     -41.203  57.432 -50.871  1.00  0.00    -0.023 A 
HETATM   17  C   UNL     1     -41.073  57.459 -52.256  1.00  0.00     0.125 A 
HETATM   18  N   UNL     1     -41.198  58.574 -53.013  1.00  0.00    -0.273 NA
HETATM   19  C   UNL     1     -41.483  59.721 -52.360  1.00  0.00     0.116 A 
HETATM   20  C   UNL     1     -41.646  59.805 -50.989  1.00  0.00     0.020 A 
HETATM   21  C   UNL     1     -41.509  58.641 -50.238  1.00  0.00     0.012 A 
ENDBRANCH  15  16
ENDBRANCH  12  15
ENDBRANCH   6  11
ENDBRANCH   1   5
BRANCH   2  22
HETATM   22  C   UNL     1     -42.564  55.636 -55.696  1.00  0.00     0.309 C 
HETATM   23  N   UNL     1     -43.178  56.640 -54.984  1.00  0.00    -0.353 N 
HETATM   24  H   UNL     1     -42.880  56.754 -54.019  1.00  0.00     0.162 HD
HETATM   25  O   UNL     1     -42.809  55.314 -56.850  1.00  0.00    -0.262 OA
BRANCH  23  26
HETATM   26  C   UNL     1     -44.324  57.371 -55.487  1.00  0.00     0.128 C 
BRANCH  26  27
HETATM   27  C   UNL     1     -44.355  58.797 -54.938  1.00  0.00     0.058 C 
BRANCH  27  28
HETATM   28  C   UNL     1     -44.760  58.844 -53.486  1.00  0.00    -0.057 A 
HETATM   29  C   UNL     1     -45.237  60.036 -52.921  1.00  0.00     0.010 A 
HETATM   30  C   UNL     1     -45.618  60.083 -51.578  1.00  0.00     0.037 A 
HETATM   31  C   UNL     1     -45.512  58.936 -50.798  1.00  0.00     0.065 A 
HETATM   32  C   UNL     1     -45.028  57.751 -51.335  1.00  0.00     0.037 A 
HETATM   33  C   UNL     1     -44.651  57.703 -52.679  1.00  0.00     0.010 A 
BRANCH  31  34
HETATM   34  O   UNL     1     -45.878  58.936 -49.484  1.00  0.00    -0.361 OA
HETATM   35  H   UNL     1     -46.091  59.847 -49.224  1.00  0.00     0.217 HD
ENDBRANCH  31  34
ENDBRANCH  27  28
ENDBRANCH  26  27
ENDBRANCH  23  26
ENDBRANCH   2  22
TORSDOF 9
ENDMDL
MODEL 4
REMARK VINA RESULT:      -8.2      2.224      5.366
REMARK  9 active torsions:
REMARK  status: ('A' for Active; 'I' for Inactive)
REMARK    1  A    between atoms: C_3  and  C_4 
REMARK       I    between atoms: C_4  and  N_5 
REMARK    2  A    between atoms: N_5  and  C_6 
REMARK    3  A    between atoms: C_6  and  C_7 
REMARK    4  A    between atoms: C_14  and  N_15 
REMARK       I    between atoms: N_15  and  C_16 
REMARK    5  A    between atoms: C_16  and  C_17 
REMARK       I    between atoms: C_17  and  N_18 
REMARK    6  A    between atoms: N_18  and  C_19 
REMARK    7  A    between atoms: C_19  and  C_20 
REMARK    8  A    between atoms: C_20  and  C_21 
REMARK    9  A    between atoms: C_24  and  O_25 
ROOT
HETATM    1  N   UNL     1     -41.418  58.580 -54.403  1.00  0.00    -0.318 N 
HETATM    2  C   UNL     1     -42.598  59.028 -54.956  1.00  0.00     0.313 C 
HETATM    3  O   UNL     1     -43.699  59.121 -54.429  1.00  0.00    -0.262 OA
HETATM    4  H   UNL     1     -40.583  58.851 -54.917  1.00  0.00     0.169 HD
ENDROOT
BRANCH   1   5
HETATM    5  C   UNL     1     -41.272  58.033 -53.113  1.00  0.00     0.051 A 
HETATM    6  C   UNL     1     -41.349  56.664 -52.794  1.00  0.00     0.058 A 
HETATM    7  C   UNL     1     -41.269  56.258 -51.448  1.00  0.00     0.019 A 
HETATM    8  C   UNL     1     -41.098  57.198 -50.433  1.00  0.00     0.001 A 
HETATM    9  C   UNL     1     -40.967  58.546 -50.752  1.00  0.00     0.002 A 
HETATM   10  C   UNL     1     -41.039  58.958 -52.084  1.00  0.00     0.030 A 
BRANCH   6  11
HETATM   11  C   UNL     1     -41.266  55.600 -53.833  1.00  0.00     0.254 C 
HETATM   12  N   UNL     1     -40.535  54.480 -53.494  1.00  0.00    -0.353 N 
HETATM   13  H   UNL     1     -40.299  54.329 -52.522  1.00  0.00     0.163 HD
HETATM   14  O   UNL     1     -41.785  55.768 -54.932  1.00  0.00    -0.268 OA
BRANCH  12  15
HETATM   15  C   UNL     1     -40.427  53.355 -54.396  1.00  0.00     0.162 C 
BRANCH  15  16
HETATM   16  C   UNL     1     -40.075  52.088 -53.670  1.00  0.00    -0.023 A 
HETATM   17  C   UNL     1     -39.846  52.092 -52.298  1.00  0.00     0.125 A 
HETATM   18  N   UNL     1     -39.574  50.986 -51.566  1.00  0.00    -0.273 NA
HETATM   19  C   UNL     1     -39.543  49.812 -52.231  1.00  0.00     0.116 A 
HETATM   20  C   UNL     1     -39.768  49.692 -53.592  1.00  0.00     0.020 A 
HETATM   21  C   UNL     1     -40.043  50.849 -54.317  1.00  0.00     0.012 A 
ENDBRANCH  15  16
ENDBRANCH  12  15
ENDBRANCH   6  11
ENDBRANCH   1   5
BRANCH   2  22
HETATM   22  C   UNL     1     -42.394  59.588 -56.383  1.00  0.00     0.309 C 
HETATM   23  N   UNL     1     -43.392  59.237 -57.264  1.00  0.00    -0.353 N 
HETATM   24  H   UNL     1     -44.103  58.603 -56.909  1.00  0.00     0.162 HD
HETATM   25  O   UNL     1     -41.433  60.303 -56.629  1.00  0.00    -0.262 OA
BRANCH  23  26
HETATM   26  C   UNL     1     -43.347  59.570 -58.673  1.00  0.00     0.128 C 
BRANCH  26  27
HETATM   27  C   UNL     1     -42.530  58.545 -59.459  1.00  0.00     0.058 C 
BRANCH  27  28
HETATM   28  C   UNL     1     -43.206  57.198 -59.521  1.00  0.00    -0.057 A 
HETATM   29  C   UNL     1     -42.892  56.205 -58.581  1.00  0.00     0.010 A 
HETATM   30  C   UNL     1     -43.519  54.958 -58.630  1.00  0.00     0.037 A 
HETATM   31  C   UNL     1     -44.455  54.703 -59.627  1.00  0.00     0.065 A 
HETATM   32  C   UNL     1     -44.769  55.669 -60.574  1.00  0.00     0.037 A 
HETATM   33  C   UNL     1     -44.145  56.917 -60.523  1.00  0.00     0.010 A 
BRANCH  31  34
HETATM   34  O   UNL     1     -45.095  53.501 -59.708  1.00  0.00    -0.361 OA
HETATM   35  H   UNL     1     -46.052  53.659 -59.647  1.00  0.00     0.217 HD
ENDBRANCH  31  34
ENDBRANCH  27  28
ENDBRANCH  26  27
ENDBRANCH  23  26
ENDBRANCH   2  22
TORSDOF 9
ENDMDL
MODEL 5
REMARK VINA RESULT:      -8.1      2.414      3.154
REMARK  9 active torsions:
REMARK  status: ('A' for Active; 'I' for Inactive)
REMARK    1  A    between atoms: C_3  and  C_4 
REMARK       I    between atoms: C_4  and  N_5 
REMARK    2  A    between atoms: N_5  and  C_6 
REMARK    3  A    between atoms: C_6  and  C_7 
REMARK    4  A    between atoms: C_14  and  N_15 
REMARK       I    between atoms: N_15  and  C_16 
REMARK    5  A    between atoms: C_16  and  C_17 
REMARK       I    between atoms: C_17  and  N_18 
REMARK    6  A    between atoms: N_18  and  C_19 
REMARK    7  A    between atoms: C_19  and  C_20 
REMARK    8  A    between atoms: C_20  and  C_21 
REMARK    9  A    between atoms: C_24  and  O_25 
ROOT
HETATM    1  N   UNL     1     -41.788  53.842 -54.431  1.00  0.00    -0.318 N 
HETATM    2  C   UNL     1     -41.349  55.080 -54.850  1.00  0.00     0.313 C 
HETATM    3  O   UNL     1     -40.239  55.580 -54.713  1.00  0.00    -0.262 OA
HETATM    4  H   UNL     1     -42.637  53.520 -54.890  1.00  0.00     0.169 HD
ENDROOT
BRANCH   1   5
HETATM    5  C   UNL     1     -41.049  52.929 -53.653  1.00  0.00     0.051 A 
HETATM    6  C   UNL     1     -40.770  53.066 -52.280  1.00  0.00     0.058 A 
HETATM    7  C   UNL     1     -39.946  52.120 -51.641  1.00  0.00     0.019 A 
HETATM    8  C   UNL     1     -39.417  51.043 -52.352  1.00  0.00     0.001 A 
HETATM    9  C   UNL     1     -39.737  50.878 -53.696  1.00  0.00     0.002 A 
HETATM   10  C   UNL     1     -40.559  51.806 -54.337  1.00  0.00     0.030 A 
BRANCH   6  11
HETATM   11  C   UNL     1     -41.504  54.028 -51.412  1.00  0.00     0.254 C 
HETATM   12  N   UNL     1     -40.729  54.968 -50.764  1.00  0.00    -0.353 N 
HETATM   13  H   UNL     1     -39.777  55.112 -51.073  1.00  0.00     0.163 HD
HETATM   14  O   UNL     1     -42.717  53.925 -51.264  1.00  0.00    -0.268 OA
BRANCH  12  15
HETATM   15  C   UNL     1     -41.331  55.991 -49.937  1.00  0.00     0.162 C 
BRANCH  15  16
HETATM   16  C   UNL     1     -41.518  57.278 -50.688  1.00  0.00    -0.023 A 
HETATM   17  C   UNL     1     -42.656  57.496 -51.458  1.00  0.00     0.125 A 
HETATM   18  N   UNL     1     -42.920  58.646 -52.122  1.00  0.00    -0.273 NA
HETATM   19  C   UNL     1     -42.012  59.637 -52.002  1.00  0.00     0.116 A 
HETATM   20  C   UNL     1     -40.854  59.532 -51.252  1.00  0.00     0.020 A 
HETATM   21  C   UNL     1     -40.609  58.336 -50.583  1.00  0.00     0.012 A 
ENDBRANCH  15  16
ENDBRANCH  12  15
ENDBRANCH   6  11
ENDBRANCH   1   5
BRANCH   2  22
HETATM   22  C   UNL     1     -42.408  55.813 -55.706  1.00  0.00     0.309 C 
HETATM   23  N   UNL     1     -42.433  55.408 -57.021  1.00  0.00    -0.353 N 
HETATM   24  H   UNL     1     -41.723  54.737 -57.299  1.00  0.00     0.162 HD
HETATM   25  O   UNL     1     -43.147  56.638 -55.189  1.00  0.00    -0.262 OA
BRANCH  23  26
HETATM   26  C   UNL     1     -43.278  56.034 -58.018  1.00  0.00     0.128 C 
BRANCH  26  27
HETATM   27  C   UNL     1     -42.487  56.375 -59.280  1.00  0.00     0.058 C 
BRANCH  27  28
HETATM   28  C   UNL     1     -42.224  57.854 -59.410  1.00  0.00    -0.057 A 
HETATM   29  C   UNL     1     -42.044  58.646 -58.266  1.00  0.00     0.010 A 
HETATM   30  C   UNL     1     -41.796  60.015 -58.381  1.00  0.00     0.037 A 
HETATM   31  C   UNL     1     -41.735  60.594 -59.644  1.00  0.00     0.065 A 
HETATM   32  C   UNL     1     -41.924  59.830 -60.788  1.00  0.00     0.037 A 
HETATM   33  C   UNL     1     -42.169  58.460 -60.673  1.00  0.00     0.010 A 
BRANCH  31  34
HETATM   34  O   UNL     1     -41.488  61.926 -59.803  1.00  0.00    -0.361 OA
HETATM   35  H   UNL     1     -40.769  62.030 -60.448  1.00  0.00     0.217 HD
ENDBRANCH  31  34
ENDBRANCH  27  28
ENDBRANCH  26  27
ENDBRANCH  23  26
ENDBRANCH   2  22
TORSDOF 9
ENDMDL
MODEL 6
REMARK VINA RESULT:      -8.0      3.042      8.284
REMARK  9 active torsions:
REMARK  status: ('A' for Active; 'I' for Inactive)
REMARK    1  A    between atoms: C_3  and  C_4 
REMARK       I    between atoms: C_4  and  N_5 
REMARK    2  A    between atoms: N_5  and  C_6 
REMARK    3  A    between atoms: C_6  and  C_7 
REMARK    4  A    between atoms: C_14  and  N_15 
REMARK       I    between atoms: N_15  and  C_16 
REMARK    5  A    between atoms: C_16  and  C_17 
REMARK       I    between atoms: C_17  and  N_18 
REMARK    6  A    between atoms: N_18  and  C_19 
REMARK    7  A    between atoms: C_19  and  C_20 
REMARK    8  A    between atoms: C_20  and  C_21 
REMARK    9  A    between atoms: C_24  and  O_25 
ROOT
HETATM    1  N   UNL     1     -43.147  58.321 -51.206  1.00  0.00    -0.318 N 
HETATM    2  C   UNL     1     -42.015  57.597 -50.895  1.00  0.00     0.313 C 
HETATM    3  O   UNL     1     -40.892  58.013 -50.640  1.00  0.00    -0.262 OA
HETATM    4  H   UNL     1     -44.017  57.805 -51.101  1.00  0.00     0.169 HD
ENDROOT
BRANCH   1   5
HETATM    5  C   UNL     1     -43.204  59.716 -51.392  1.00  0.00     0.051 A 
HETATM    6  C   UNL     1     -42.833  60.398 -52.566  1.00  0.00     0.058 A 
HETATM    7  C   UNL     1     -42.859  61.805 -52.591  1.00  0.00     0.019 A 
HETATM    8  C   UNL     1     -43.262  62.527 -51.468  1.00  0.00     0.001 A 
HETATM    9  C   UNL     1     -43.680  61.852 -50.325  1.00  0.00     0.002 A 
HETATM   10  C   UNL     1     -43.665  60.457 -50.293  1.00  0.00     0.030 A 
BRANCH   6  11
HETATM   11  C   UNL     1     -42.648  59.697 -53.868  1.00  0.00     0.254 C 
HETATM   12  N   UNL     1     -43.777  59.109 -54.402  1.00  0.00    -0.353 N 
HETATM   13  H   UNL     1     -44.682  59.368 -54.034  1.00  0.00     0.163 HD
HETATM   14  O   UNL     1     -41.534  59.621 -54.376  1.00  0.00    -0.268 OA
BRANCH  12  15
HETATM   15  C   UNL     1     -43.737  58.447 -55.688  1.00  0.00     0.162 C 
BRANCH  15  16
HETATM   16  C   UNL     1     -43.467  56.976 -55.551  1.00  0.00    -0.023 A 
HETATM   17  C   UNL     1     -43.865  56.281 -54.413  1.00  0.00     0.125 A 
HETATM   18  N   UNL     1     -43.703  54.948 -54.238  1.00  0.00    -0.273 NA
HETATM   19  C   UNL     1     -43.130  54.268 -55.253  1.00  0.00     0.116 A 
HETATM   20  C   UNL     1     -42.710  54.857 -56.433  1.00  0.00     0.020 A 
HETATM   21  C   UNL     1     -42.888  56.230 -56.582  1.00  0.00     0.012 A 
ENDBRANCH  15  16
ENDBRANCH  12  15
ENDBRANCH   6  11
ENDBRANCH   1   5
BRANCH   2  22
HETATM   22  C   UNL     1     -42.315  56.088 -50.741  1.00  0.00     0.309 C 
HETATM   23  N   UNL     1     -41.188  55.311 -50.605  1.00  0.00    -0.353 N 
HETATM   24  H   UNL     1     -40.297  55.792 -50.689  1.00  0.00     0.162 HD
HETATM   25  O   UNL     1     -43.472  55.694 -50.713  1.00  0.00    -0.262 OA
BRANCH  23  26
HETATM   26  C   UNL     1     -41.235  53.864 -50.548  1.00  0.00     0.128 C 
BRANCH  26  27
HETATM   27  C   UNL     1     -39.857  53.254 -50.805  1.00  0.00     0.058 C 
BRANCH  27  28
HETATM   28  C   UNL     1     -39.887  52.209 -51.893  1.00  0.00    -0.057 A 
HETATM   29  C   UNL     1     -39.507  50.888 -51.616  1.00  0.00     0.010 A 
HETATM   30  C   UNL     1     -39.537  49.916 -52.619  1.00  0.00     0.037 A 
HETATM   31  C   UNL     1     -39.940  50.270 -53.902  1.00  0.00     0.065 A 
HETATM   32  C   UNL     1     -40.306  51.576 -54.198  1.00  0.00     0.037 A 
HETATM   33  C   UNL     1     -40.280  52.547 -53.195  1.00  0.00     0.010 A 
BRANCH  31  34
HETATM   34  O   UNL     1     -39.990  49.352 -54.909  1.00  0.00    -0.361 OA
HETATM   35  H   UNL     1     -40.784  48.804 -54.786  1.00  0.00     0.217 HD
ENDBRANCH  31  34
ENDBRANCH  27  28
ENDBRANCH  26  27
ENDBRANCH  23  26
ENDBRANCH   2  22
TORSDOF 9
ENDMDL
MODEL 7
REMARK VINA RESULT:      -8.0      2.561      7.883
REMARK  9 active torsions:
REMARK  status: ('A' for Active; 'I' for Inactive)
REMARK    1  A    between atoms: C_3  and  C_4 
REMARK       I    between atoms: C_4  and  N_5 
REMARK    2  A    between atoms: N_5  and  C_6 
REMARK    3  A    between atoms: C_6  and  C_7 
REMARK    4  A    between atoms: C_14  and  N_15 
REMARK       I    between atoms: N_15  and  C_16 
REMARK    5  A    between atoms: C_16  and  C_17 
REMARK       I    between atoms: C_17  and  N_18 
REMARK    6  A    between atoms: N_18  and  C_19 
REMARK    7  A    between atoms: C_19  and  C_20 
REMARK    8  A    between atoms: C_20  and  C_21 
REMARK    9  A    between atoms: C_24  and  O_25 
ROOT
HETATM    1  N   UNL     1     -43.276  56.737 -56.465  1.00  0.00    -0.318 N 
HETATM    2  C   UNL     1     -44.018  57.017 -55.337  1.00  0.00     0.313 C 
HETATM    3  O   UNL     1     -45.012  57.725 -55.236  1.00  0.00    -0.262 OA
HETATM    4  H   UNL     1     -42.679  55.917 -56.382  1.00  0.00     0.169 HD
ENDROOT
BRANCH   1   5
HETATM    5  C   UNL     1     -43.468  57.311 -57.736  1.00  0.00     0.051 A 
HETATM    6  C   UNL     1     -43.269  58.667 -58.058  1.00  0.00     0.058 A 
HETATM    7  C   UNL     1     -43.580  59.127 -59.352  1.00  0.00     0.019 A 
HETATM    8  C   UNL     1     -44.067  58.249 -60.319  1.00  0.00     0.001 A 
HETATM    9  C   UNL     1     -44.213  56.899 -60.018  1.00  0.00     0.002 A 
HETATM   10  C   UNL     1     -43.901  56.431 -58.740  1.00  0.00     0.030 A 
BRANCH   6  11
HETATM   11  C   UNL     1     -42.513  59.592 -57.169  1.00  0.00     0.254 C 
HETATM   12  N   UNL     1     -43.175  60.011 -56.032  1.00  0.00    -0.353 N 
HETATM   13  H   UNL     1     -44.006  59.513 -55.740  1.00  0.00     0.163 HD
HETATM   14  O   UNL     1     -41.394  59.979 -57.487  1.00  0.00    -0.268 OA
BRANCH  12  15
HETATM   15  C   UNL     1     -42.526  60.866 -55.062  1.00  0.00     0.162 C 
BRANCH  15  16
HETATM   16  C   UNL     1     -42.191  60.124 -53.799  1.00  0.00    -0.023 A 
HETATM   17  C   UNL     1     -42.956  60.292 -52.649  1.00  0.00     0.125 A 
HETATM   18  N   UNL     1     -42.749  59.623 -51.491  1.00  0.00    -0.273 NA
HETATM   19  C   UNL     1     -41.738  58.729 -51.479  1.00  0.00     0.116 A 
HETATM   20  C   UNL     1     -40.924  58.475 -52.569  1.00  0.00     0.020 A 
HETATM   21  C   UNL     1     -41.161  59.180 -53.746  1.00  0.00     0.012 A 
ENDBRANCH  15  16
ENDBRANCH  12  15
ENDBRANCH   6  11
ENDBRANCH   1   5
BRANCH   2  22
HETATM   22  C   UNL     1     -43.552  56.191 -54.115  1.00  0.00     0.309 C 
HETATM   23  N   UNL     1     -42.622  55.224 -54.422  1.00  0.00    -0.353 N 
HETATM   24  H   UNL     1     -42.399  55.112 -55.407  1.00  0.00     0.162 HD
HETATM   25  O   UNL     1     -43.982  56.452 -53.001  1.00  0.00    -0.262 OA
BRANCH  23  26
HETATM   26  C   UNL     1     -42.128  54.274 -53.447  1.00  0.00     0.128 C 
BRANCH  26  27
HETATM   27  C   UNL     1     -40.639  53.995 -53.651  1.00  0.00     0.058 C 
BRANCH  27  28
HETATM   28  C   UNL     1     -40.275  52.565 -53.338  1.00  0.00    -0.057 A 
HETATM   29  C   UNL     1     -40.348  51.581 -54.335  1.00  0.00     0.010 A 
HETATM   30  C   UNL     1     -40.007  50.256 -54.051  1.00  0.00     0.037 A 
HETATM   31  C   UNL     1     -39.601  49.916 -52.765  1.00  0.00     0.065 A 
HETATM   32  C   UNL     1     -39.535  50.874 -51.762  1.00  0.00     0.037 A 
HETATM   33  C   UNL     1     -39.873  52.199 -52.046  1.00  0.00     0.010 A 
BRANCH  31  34
HETATM   34  O   UNL     1     -39.253  48.637 -52.446  1.00  0.00    -0.361 OA
HETATM   35  H   UNL     1     -39.891  48.298 -51.797  1.00  0.00     0.217 HD
ENDBRANCH  31  34
ENDBRANCH  27  28
ENDBRANCH  26  27
ENDBRANCH  23  26
ENDBRANCH   2  22
TORSDOF 9
ENDMDL
MODEL 8
REMARK VINA RESULT:      -7.8      2.274      2.708
REMARK  9 active torsions:
REMARK  status: ('A' for Active; 'I' for Inactive)
REMARK    1  A    between atoms: C_3  and  C_4 
REMARK       I    between atoms: C_4  and  N_5 
REMARK    2  A    between atoms: N_5  and  C_6 
REMARK    3  A    between atoms: C_6  and  C_7 
REMARK    4  A    between atoms: C_14  and  N_15 
REMARK       I    between atoms: N_15  and  C_16 
REMARK    5  A    between atoms: C_16  and  C_17 
REMARK       I    between atoms: C_17  and  N_18 
REMARK    6  A    between atoms: N_18  and  C_19 
REMARK    7  A    between atoms: C_19  and  C_20 
REMARK    8  A    between atoms: C_20  and  C_21 
REMARK    9  A    between atoms: C_24  and  O_25 
ROOT
HETATM    1  N   UNL     1     -41.640  53.559 -54.618  1.00  0.00    -0.318 N 
HETATM    2  C   UNL     1     -41.283  54.829 -55.016  1.00  0.00     0.313 C 
HETATM    3  O   UNL     1     -40.287  55.472 -54.706  1.00  0.00    -0.262 OA
HETATM    4  H   UNL     1     -42.342  53.117 -55.207  1.00  0.00     0.169 HD
ENDROOT
BRANCH   1   5
HETATM    5  C   UNL     1     -40.956  52.772 -53.671  1.00  0.00     0.051 A 
HETATM    6  C   UNL     1     -40.809  53.083 -52.306  1.00  0.00     0.058 A 
HETATM    7  C   UNL     1     -40.026  52.250 -51.484  1.00  0.00     0.019 A 
HETATM    8  C   UNL     1     -39.409  51.114 -52.007  1.00  0.00     0.001 A 
HETATM    9  C   UNL     1     -39.599  50.777 -53.343  1.00  0.00     0.002 A 
HETATM   10  C   UNL     1     -40.379  51.592 -54.165  1.00  0.00     0.030 A 
BRANCH   6  11
HETATM   11  C   UNL     1     -41.641  54.118 -51.632  1.00  0.00     0.254 C 
HETATM   12  N   UNL     1     -41.079  55.374 -51.531  1.00  0.00    -0.353 N 
HETATM   13  H   UNL     1     -40.271  55.593 -52.099  1.00  0.00     0.163 HD
HETATM   14  O   UNL     1     -42.734  53.820 -51.160  1.00  0.00    -0.268 OA
BRANCH  12  15
HETATM   15  C   UNL     1     -41.811  56.476 -50.947  1.00  0.00     0.162 C 
BRANCH  15  16
HETATM   16  C   UNL     1     -42.598  57.233 -51.979  1.00  0.00    -0.023 A 
HETATM   17  C   UNL     1     -41.953  57.963 -52.974  1.00  0.00     0.125 A 
HETATM   18  N   UNL     1     -42.590  58.628 -53.966  1.00  0.00    -0.273 NA
HETATM   19  C   UNL     1     -43.938  58.551 -53.980  1.00  0.00     0.116 A 
HETATM   20  C   UNL     1     -44.677  57.843 -53.048  1.00  0.00     0.020 A 
HETATM   21  C   UNL     1     -43.993  57.171 -52.039  1.00  0.00     0.012 A 
ENDBRANCH  15  16
ENDBRANCH  12  15
ENDBRANCH   6  11
ENDBRANCH   1   5
BRANCH   2  22
HETATM   22  C   UNL     1     -42.242  55.394 -56.089  1.00  0.00     0.309 C 
HETATM   23  N   UNL     1     -41.940  56.677 -56.482  1.00  0.00    -0.353 N 
HETATM   24  H   UNL     1     -41.178  57.132 -55.987  1.00  0.00     0.162 HD
HETATM   25  O   UNL     1     -43.145  54.696 -56.530  1.00  0.00    -0.262 OA
BRANCH  23  26
HETATM   26  C   UNL     1     -42.768  57.431 -57.402  1.00  0.00     0.128 C 
BRANCH  26  27
HETATM   27  C   UNL     1     -41.928  58.393 -58.243  1.00  0.00     0.058 C 
BRANCH  27  28
HETATM   28  C   UNL     1     -42.708  58.983 -59.390  1.00  0.00    -0.057 A 
HETATM   29  C   UNL     1     -44.086  58.747 -59.506  1.00  0.00     0.010 A 
HETATM   30  C   UNL     1     -44.814  59.295 -60.564  1.00  0.00     0.037 A 
HETATM   31  C   UNL     1     -44.160  60.074 -61.512  1.00  0.00     0.065 A 
HETATM   32  C   UNL     1     -42.794  60.307 -61.423  1.00  0.00     0.037 A 
HETATM   33  C   UNL     1     -42.066  59.762 -60.363  1.00  0.00     0.010 A 
BRANCH  31  34
HETATM   34  O   UNL     1     -44.833  60.634 -62.558  1.00  0.00    -0.361 OA
HETATM   35  H   UNL     1     -44.944  61.583 -62.378  1.00  0.00     0.217 HD
ENDBRANCH  31  34
ENDBRANCH  27  28
ENDBRANCH  26  27
ENDBRANCH  23  26
ENDBRANCH   2  22
TORSDOF 9
ENDMDL
MODEL 9
REMARK VINA RESULT:      -7.8      2.126      3.108
REMARK  9 active torsions:
REMARK  status: ('A' for Active; 'I' for Inactive)
REMARK    1  A    between atoms: C_3  and  C_4 
REMARK       I    between atoms: C_4  and  N_5 
REMARK    2  A    between atoms: N_5  and  C_6 
REMARK    3  A    between atoms: C_6  and  C_7 
REMARK    4  A    between atoms: C_14  and  N_15 
REMARK       I    between atoms: N_15  and  C_16 
REMARK    5  A    between atoms: C_16  and  C_17 
REMARK       I    between atoms: C_17  and  N_18 
REMARK    6  A    between atoms: N_18  and  C_19 
REMARK    7  A    between atoms: C_19  and  C_20 
REMARK    8  A    between atoms: C_20  and  C_21 
REMARK    9  A    between atoms: C_24  and  O_25 
ROOT
HETATM    1  N   UNL     1     -41.783  56.239 -54.488  1.00  0.00    -0.318 N 
HETATM    2  C   UNL     1     -41.304  57.519 -54.309  1.00  0.00     0.313 C 
HETATM    3  O   UNL     1     -40.390  57.896 -53.586  1.00  0.00    -0.262 OA
HETATM    4  H   UNL     1     -42.341  56.113 -55.329  1.00  0.00     0.169 HD
ENDROOT
BRANCH   1   5
HETATM    5  C   UNL     1     -41.365  55.100 -53.774  1.00  0.00     0.051 A 
HETATM    6  C   UNL     1     -41.418  54.948 -52.375  1.00  0.00     0.058 A 
HETATM    7  C   UNL     1     -40.887  53.787 -51.781  1.00  0.00     0.019 A 
HETATM    8  C   UNL     1     -40.326  52.781 -52.568  1.00  0.00     0.001 A 
HETATM    9  C   UNL     1     -40.323  52.906 -53.953  1.00  0.00     0.002 A 
HETATM   10  C   UNL     1     -40.852  54.050 -54.552  1.00  0.00     0.030 A 
BRANCH   6  11
HETATM   11  C   UNL     1     -42.229  55.847 -51.508  1.00  0.00     0.254 C 
HETATM   12  N   UNL     1     -43.590  55.834 -51.731  1.00  0.00    -0.353 N 
HETATM   13  H   UNL     1     -43.988  55.081 -52.277  1.00  0.00     0.163 HD
HETATM   14  O   UNL     1     -41.678  56.581 -50.693  1.00  0.00    -0.268 OA
BRANCH  12  15
HETATM   15  C   UNL     1     -44.489  56.622 -50.917  1.00  0.00     0.162 C 
BRANCH  15  16
HETATM   16  C   UNL     1     -44.900  57.892 -51.606  1.00  0.00    -0.023 A 
HETATM   17  C   UNL     1     -44.743  58.040 -52.981  1.00  0.00     0.125 A 
HETATM   18  N   UNL     1     -45.135  59.131 -53.680  1.00  0.00    -0.273 NA
HETATM   19  C   UNL     1     -45.727  60.121 -52.978  1.00  0.00     0.116 A 
HETATM   20  C   UNL     1     -45.944  60.071 -51.613  1.00  0.00     0.020 A 
HETATM   21  C   UNL     1     -45.529  58.937 -50.921  1.00  0.00     0.012 A 
ENDBRANCH  15  16
ENDBRANCH  12  15
ENDBRANCH   6  11
ENDBRANCH   1   5
BRANCH   2  22
HETATM   22  C   UNL     1     -41.967  58.528 -55.275  1.00  0.00     0.309 C 
HETATM   23  N   UNL     1     -42.943  57.974 -56.071  1.00  0.00    -0.353 N 
HETATM   24  H   UNL     1     -43.073  56.969 -55.989  1.00  0.00     0.162 HD
HETATM   25  O   UNL     1     -41.632  59.704 -55.256  1.00  0.00    -0.262 OA
BRANCH  23  26
HETATM   26  C   UNL     1     -43.620  58.717 -57.114  1.00  0.00     0.128 C 
BRANCH  26  27
HETATM   27  C   UNL     1     -44.999  58.126 -57.409  1.00  0.00     0.058 C 
BRANCH  27  28
HETATM   28  C   UNL     1     -44.980  57.184 -58.586  1.00  0.00    -0.057 A 
HETATM   29  C   UNL     1     -46.139  56.979 -59.349  1.00  0.00     0.010 A 
HETATM   30  C   UNL     1     -46.126  56.111 -60.443  1.00  0.00     0.037 A 
HETATM   31  C   UNL     1     -44.951  55.441 -60.768  1.00  0.00     0.065 A 
HETATM   32  C   UNL     1     -43.797  55.620 -60.017  1.00  0.00     0.037 A 
HETATM   33  C   UNL     1     -43.810  56.491 -58.925  1.00  0.00     0.010 A 
BRANCH  31  34
HETATM   34  O   UNL     1     -44.891  54.590 -61.832  1.00  0.00    -0.361 OA
HETATM   35  H   UNL     1     -44.866  53.679 -61.494  1.00  0.00     0.217 HD
ENDBRANCH  31  34
ENDBRANCH  27  28
ENDBRANCH  26  27
ENDBRANCH  23  26
ENDBRANCH   2  22
TORSDOF 9
ENDMDL
MODEL 10
REMARK VINA RESULT:      -7.8      2.173      8.141
REMARK  9 active torsions:
REMARK  status: ('A' for Active; 'I' for Inactive)
REMARK    1  A    between atoms: C_3  and  C_4 
REMARK       I    between atoms: C_4  and  N_5 
REMARK    2  A    between atoms: N_5  and  C_6 
REMARK    3  A    between atoms: C_6  and  C_7 
REMARK    4  A    between atoms: C_14  and  N_15 
REMARK       I    between atoms: N_15  and  C_16 
REMARK    5  A    between atoms: C_16  and  C_17 
REMARK       I    between atoms: C_17  and  N_18 
REMARK    6  A    between atoms: N_18  and  C_19 
REMARK    7  A    between atoms: C_19  and  C_20 
REMARK    8  A    between atoms: C_20  and  C_21 
REMARK    9  A    between atoms: C_24  and  O_25 
ROOT
HETATM    1  N   UNL     1     -43.614  55.642 -57.620  1.00  0.00    -0.318 N 
HETATM    2  C   UNL     1     -42.634  56.505 -57.179  1.00  0.00     0.313 C 
HETATM    3  O   UNL     1     -42.329  57.604 -57.627  1.00  0.00    -0.262 OA
HETATM    4  H   UNL     1     -43.883  54.931 -56.944  1.00  0.00     0.169 HD
ENDROOT
BRANCH   1   5
HETATM    5  C   UNL     1     -44.409  55.822 -58.768  1.00  0.00     0.051 A 
HETATM    6  C   UNL     1     -45.370  56.835 -58.945  1.00  0.00     0.058 A 
HETATM    7  C   UNL     1     -46.159  56.850 -60.111  1.00  0.00     0.019 A 
HETATM    8  C   UNL     1     -45.984  55.881 -61.099  1.00  0.00     0.001 A 
HETATM    9  C   UNL     1     -44.997  54.912 -60.950  1.00  0.00     0.002 A 
HETATM   10  C   UNL     1     -44.205  54.892 -59.800  1.00  0.00     0.030 A 
BRANCH   6  11
HETATM   11  C   UNL     1     -45.428  58.037 -58.067  1.00  0.00     0.254 C 
HETATM   12  N   UNL     1     -45.567  57.792 -56.716  1.00  0.00    -0.353 N 
HETATM   13  H   UNL     1     -45.391  56.858 -56.370  1.00  0.00     0.163 HD
HETATM   14  O   UNL     1     -45.405  59.161 -58.557  1.00  0.00    -0.268 OA
BRANCH  12  15
HETATM   15  C   UNL     1     -45.579  58.875 -55.758  1.00  0.00     0.162 C 
BRANCH  15  16
HETATM   16  C   UNL     1     -44.760  58.553 -54.540  1.00  0.00    -0.023 A 
HETATM   17  C   UNL     1     -44.809  57.289 -53.961  1.00  0.00     0.125 A 
HETATM   18  N   UNL     1     -44.065  56.907 -52.897  1.00  0.00    -0.273 NA
HETATM   19  C   UNL     1     -43.216  57.826 -52.390  1.00  0.00     0.116 A 
HETATM   20  C   UNL     1     -43.077  59.106 -52.897  1.00  0.00     0.020 A 
HETATM   21  C   UNL     1     -43.858  59.469 -53.991  1.00  0.00     0.012 A 
ENDBRANCH  15  16
ENDBRANCH  12  15
ENDBRANCH   6  11
ENDBRANCH   1   5
BRANCH   2  22
HETATM   22  C   UNL     1     -41.971  56.012 -55.872  1.00  0.00     0.309 C 
HETATM   23  N   UNL     1     -42.037  54.649 -55.697  1.00  0.00    -0.353 N 
HETATM   24  H   UNL     1     -42.563  54.131 -56.396  1.00  0.00     0.162 HD
HETATM   25  O   UNL     1     -41.423  56.811 -55.125  1.00  0.00    -0.262 OA
BRANCH  23  26
HETATM   26  C   UNL     1     -41.568  53.988 -54.496  1.00  0.00     0.128 C 
BRANCH  26  27
HETATM   27  C   UNL     1     -40.304  53.173 -54.770  1.00  0.00     0.058 C 
BRANCH  27  28
HETATM   28  C   UNL     1     -40.048  52.137 -53.704  1.00  0.00    -0.057 A 
HETATM   29  C   UNL     1     -39.886  50.787 -54.053  1.00  0.00     0.010 A 
HETATM   30  C   UNL     1     -39.644  49.825 -53.071  1.00  0.00     0.037 A 
HETATM   31  C   UNL     1     -39.572  50.213 -51.737  1.00  0.00     0.065 A 
HETATM   32  C   UNL     1     -39.744  51.541 -51.371  1.00  0.00     0.037 A 
HETATM   33  C   UNL     1     -39.982  52.504 -52.353  1.00  0.00     0.010 A 
BRANCH  31  34
HETATM   34  O   UNL     1     -39.331  49.307 -50.746  1.00  0.00    -0.361 OA
HETATM   35  H   UNL     1     -39.903  49.519 -49.990  1.00  0.00     0.217 HD
ENDBRANCH  31  34
ENDBRANCH  27  28
ENDBRANCH  26  27
ENDBRANCH  23  26
ENDBRANCH   2  22
TORSDOF 9
ENDMDL
