MODEL 1
REMARK VINA RESULT:      -8.3      0.000      0.000
REMARK  9 active torsions:
REMARK  status: ('A' for Active; 'I' for Inactive)
REMARK    1  A    between atoms: C_2  and  O_3 
REMARK    2  A    between atoms: O_3  and  C_4 
REMARK    3  A    between atoms: C_6  and  C_7 
REMARK       I    between atoms: C_7  and  N_8 
REMARK    4  A    between atoms: N_8  and  C_9 
REMARK    5  A    between atoms: C_9  and  N_10 
REMARK    6  A    between atoms: N_10  and  C_11 
REMARK    7  A    between atoms: C_14  and  N_15 
REMARK    8  A    between atoms: N_18  and  C_20 
REMARK    9  A    between atoms: C_20  and  C_21 
ROOT
HETATM    1  C   UNL     1     -43.599  59.745 -51.463  1.00  0.00     0.034 A 
HETATM    2  C   UNL     1     -44.749  58.958 -51.512  1.00  0.00     0.032 A 
HETATM    3  C   UNL     1     -44.672  57.562 -51.401  1.00  0.00     0.031 A 
HETATM    4  C   UNL     1     -43.454  56.891 -51.213  1.00  0.00     0.030 A 
HETATM    5  C   UNL     1     -42.315  57.709 -51.133  1.00  0.00     0.031 A 
HETATM    6  C   UNL     1     -42.380  59.111 -51.258  1.00  0.00     0.032 A 
ENDROOT
BRANCH   1   7
HETATM    7  N   UNL     1     -43.755  61.121 -51.752  1.00  0.00    -0.333 N 
HETATM    8  H   UNL     1     -44.346  61.602 -51.082  1.00  0.00     0.168 HD
BRANCH   7   9
HETATM    9  C   UNL     1     -43.755  61.725 -52.960  1.00  0.00     0.179 C 
HETATM   10  S   UNL     1     -44.110  63.360 -53.040  1.00  0.00    -0.040 SA
BRANCH   9  11
HETATM   11  N   UNL     1     -43.414  61.097 -54.115  1.00  0.00    -0.299 N 
HETATM   12  C   UNL     1     -44.281  60.348 -54.907  1.00  0.00     0.257 C 
HETATM   13  O   UNL     1     -45.401  60.719 -55.249  1.00  0.00    -0.267 OA
HETATM   14  H   UNL     1     -42.488  60.718 -54.004  1.00  0.00     0.171 HD
BRANCH  12  15
HETATM   15  C   UNL     1     -43.757  59.041 -55.444  1.00  0.00     0.035 A 
HETATM   16  C   UNL     1     -44.156  58.474 -56.663  1.00  0.00     0.053 A 
HETATM   17  C   UNL     1     -43.615  57.259 -57.102  1.00  0.00     0.070 A 
HETATM   18  C   UNL     1     -42.636  56.619 -56.351  1.00  0.00     0.037 A 
HETATM   19  C   UNL     1     -42.223  57.172 -55.140  1.00  0.00     0.004 A 
HETATM   20  C   UNL     1     -42.783  58.371 -54.687  1.00  0.00     0.017 A 
BRANCH  17  21
HETATM   21  O   UNL     1     -44.070  56.829 -58.319  1.00  0.00    -0.347 OA
BRANCH  21  22
HETATM   22  C   UNL     1     -43.236  55.903 -59.031  1.00  0.00     0.120 C 
HETATM   23  C   UNL     1     -42.366  56.673 -60.017  1.00  0.00     0.040 C 
HETATM   24  C   UNL     1     -44.171  54.954 -59.779  1.00  0.00     0.040 C 
ENDBRANCH  21  22
ENDBRANCH  17  21
ENDBRANCH  12  15
ENDBRANCH   9  11
ENDBRANCH   7   9
ENDBRANCH   1   7
BRANCH   4  25
HETATM   25  N   UNL     1     -43.399  55.502 -51.186  1.00  0.00    -0.378 N 
HETATM   26  C   UNL     1     -43.008  54.803 -49.944  1.00  0.00     0.150 C 
HETATM   27  C   UNL     1     -41.534  54.353 -50.022  1.00  0.00     0.255 C 
HETATM   28  N   UNL     1     -41.297  53.512 -51.278  1.00  0.00    -0.064 N 
HETATM   29  H   UNL     1     -41.914  52.689 -51.215  1.00  0.00     0.280 HD
HETATM   30  C   UNL     1     -41.719  54.275 -52.533  1.00  0.00     0.255 C 
HETATM   31  C   UNL     1     -43.194  54.711 -52.411  1.00  0.00     0.150 C 
BRANCH  28  32
HETATM   32  C   UNL     1     -39.890  52.980 -51.374  1.00  0.00     0.276 C 
BRANCH  32  33
HETATM   33  C   UNL     1     -39.753  51.781 -52.267  1.00  0.00     0.006 A 
HETATM   34  C   UNL     1     -39.669  50.500 -51.711  1.00  0.00     0.124 A 
HETATM   35  F   UNL     1     -39.650  50.375 -50.375  1.00  0.00    -0.206 F 
HETATM   36  C   UNL     1     -39.569  49.362 -52.502  1.00  0.00     0.043 A 
HETATM   37  C   UNL     1     -39.559  49.496 -53.888  1.00  0.00     0.003 A 
HETATM   38  C   UNL     1     -39.650  50.763 -54.466  1.00  0.00     0.001 A 
HETATM   39  C   UNL     1     -39.750  51.903 -53.663  1.00  0.00     0.012 A 
ENDBRANCH  32  33
ENDBRANCH  28  32
ENDBRANCH   4  25
TORSDOF 9
ENDMDL
MODEL 2
REMARK VINA RESULT:      -8.1      2.101      3.124
REMARK  9 active torsions:
REMARK  status: ('A' for Active; 'I' for Inactive)
REMARK    1  A    between atoms: C_2  and  O_3 
REMARK    2  A    between atoms: O_3  and  C_4 
REMARK    3  A    between atoms: C_6  and  C_7 
REMARK       I    between atoms: C_7  and  N_8 
REMARK    4  A    between atoms: N_8  and  C_9 
REMARK    5  A    between atoms: C_9  and  N_10 
REMARK    6  A    between atoms: N_10  and  C_11 
REMARK    7  A    between atoms: C_14  and  N_15 
REMARK    8  A    between atoms: N_18  and  C_20 
REMARK    9  A    between atoms: C_20  and  C_21 
ROOT
HETATM    1  C   UNL     1     -43.986  60.107 -55.000  1.00  0.00     0.034 A 
HETATM    2  C   UNL     1     -42.800  59.647 -54.428  1.00  0.00     0.032 A 
HETATM    3  C   UNL     1     -42.665  58.309 -54.030  1.00  0.00     0.031 A 
HETATM    4  C   UNL     1     -43.690  57.367 -54.205  1.00  0.00     0.030 A 
HETATM    5  C   UNL     1     -44.860  57.849 -54.814  1.00  0.00     0.031 A 
HETATM    6  C   UNL     1     -45.013  59.194 -55.204  1.00  0.00     0.032 A 
ENDROOT
BRANCH   1   7
HETATM    7  N   UNL     1     -44.093  61.502 -55.212  1.00  0.00    -0.333 N 
HETATM    8  H   UNL     1     -44.903  61.911 -54.757  1.00  0.00     0.168 HD
BRANCH   7   9
HETATM    9  C   UNL     1     -43.695  62.216 -56.287  1.00  0.00     0.179 C 
HETATM   10  S   UNL     1     -43.723  63.888 -56.194  1.00  0.00    -0.040 SA
BRANCH   9  11
HETATM   11  N   UNL     1     -43.204  61.655 -57.422  1.00  0.00    -0.299 N 
HETATM   12  C   UNL     1     -43.973  61.075 -58.427  1.00  0.00     0.257 C 
HETATM   13  O   UNL     1     -44.971  61.593 -58.922  1.00  0.00    -0.267 OA
HETATM   14  H   UNL     1     -42.353  61.170 -57.189  1.00  0.00     0.171 HD
BRANCH  12  15
HETATM   15  C   UNL     1     -43.481  59.770 -58.996  1.00  0.00     0.035 A 
HETATM   16  C   UNL     1     -44.075  58.525 -58.742  1.00  0.00     0.053 A 
HETATM   17  C   UNL     1     -43.566  57.354 -59.317  1.00  0.00     0.070 A 
HETATM   18  C   UNL     1     -42.485  57.417 -60.189  1.00  0.00     0.037 A 
HETATM   19  C   UNL     1     -41.886  58.648 -60.459  1.00  0.00     0.004 A 
HETATM   20  C   UNL     1     -42.376  59.813 -59.862  1.00  0.00     0.017 A 
BRANCH  17  21
HETATM   21  O   UNL     1     -44.253  56.212 -59.009  1.00  0.00    -0.347 OA
BRANCH  21  22
HETATM   22  C   UNL     1     -44.772  55.451 -60.110  1.00  0.00     0.120 C 
HETATM   23  C   UNL     1     -46.204  55.891 -60.388  1.00  0.00     0.040 C 
HETATM   24  C   UNL     1     -44.742  53.984 -59.685  1.00  0.00     0.040 C 
ENDBRANCH  21  22
ENDBRANCH  17  21
ENDBRANCH  12  15
ENDBRANCH   9  11
ENDBRANCH   7   9
ENDBRANCH   1   7
BRANCH   4  25
HETATM   25  N   UNL     1     -43.557  56.067 -53.729  1.00  0.00    -0.378 N 
HETATM   26  C   UNL     1     -42.749  55.804 -52.520  1.00  0.00     0.150 C 
HETATM   27  C   UNL     1     -41.358  55.260 -52.911  1.00  0.00     0.255 C 
HETATM   28  N   UNL     1     -41.498  54.032 -53.814  1.00  0.00    -0.064 N 
HETATM   29  H   UNL     1     -42.018  53.320 -53.281  1.00  0.00     0.280 HD
HETATM   30  C   UNL     1     -42.343  54.355 -55.046  1.00  0.00     0.255 C 
HETATM   31  C   UNL     1     -43.719  54.899 -54.611  1.00  0.00     0.150 C 
BRANCH  28  32
HETATM   32  C   UNL     1     -40.172  53.410 -54.172  1.00  0.00     0.276 C 
BRANCH  32  33
HETATM   33  C   UNL     1     -39.959  52.050 -53.574  1.00  0.00     0.006 A 
HETATM   34  C   UNL     1     -39.676  51.921 -52.210  1.00  0.00     0.124 A 
HETATM   35  F   UNL     1     -39.538  53.033 -51.471  1.00  0.00    -0.206 F 
HETATM   36  C   UNL     1     -39.498  50.680 -51.612  1.00  0.00     0.043 A 
HETATM   37  C   UNL     1     -39.612  49.529 -52.386  1.00  0.00     0.003 A 
HETATM   38  C   UNL     1     -39.902  49.631 -53.747  1.00  0.00     0.001 A 
HETATM   39  C   UNL     1     -40.079  50.884 -54.342  1.00  0.00     0.012 A 
ENDBRANCH  32  33
ENDBRANCH  28  32
ENDBRANCH   4  25
TORSDOF 9
ENDMDL
MODEL 3
REMARK VINA RESULT:      -8.1      1.404      2.422
REMARK  9 active torsions:
REMARK  status: ('A' for Active; 'I' for Inactive)
REMARK    1  A    between atoms: C_2  and  O_3 
REMARK    2  A    between atoms: O_3  and  C_4 
REMARK    3  A    between atoms: C_6  and  C_7 
REMARK       I    between atoms: C_7  and  N_8 
REMARK    4  A    between atoms: N_8  and  C_9 
REMARK    5  A    between atoms: C_9  and  N_10 
REMARK    6  A    between atoms: N_10  and  C_11 
REMARK    7  A    between atoms: C_14  and  N_15 
REMARK    8  A    between atoms: N_18  and  C_20 
REMARK    9  A    between atoms: C_20  and  C_21 
ROOT
HETATM    1  C   UNL     1     -43.391  59.165 -53.473  1.00  0.00     0.034 A 
HETATM    2  C   UNL     1     -42.130  58.672 -53.139  1.00  0.00     0.032 A 
HETATM    3  C   UNL     1     -41.993  57.497 -52.386  1.00  0.00     0.031 A 
HETATM    4  C   UNL     1     -43.099  56.750 -51.954  1.00  0.00     0.030 A 
HETATM    5  C   UNL     1     -44.355  57.249 -52.333  1.00  0.00     0.031 A 
HETATM    6  C   UNL     1     -44.505  58.437 -53.076  1.00  0.00     0.032 A 
ENDROOT
BRANCH   1   7
HETATM    7  N   UNL     1     -43.436  60.440 -54.084  1.00  0.00    -0.333 N 
HETATM    8  H   UNL     1     -43.224  61.196 -53.439  1.00  0.00     0.168 HD
BRANCH   7   9
HETATM    9  C   UNL     1     -44.212  60.847 -55.111  1.00  0.00     0.179 C 
HETATM   10  S   UNL     1     -45.254  62.137 -54.869  1.00  0.00    -0.040 SA
BRANCH   9  11
HETATM   11  N   UNL     1     -44.148  60.314 -56.359  1.00  0.00    -0.299 N 
HETATM   12  C   UNL     1     -44.996  59.328 -56.854  1.00  0.00     0.257 C 
HETATM   13  O   UNL     1     -46.220  59.352 -56.752  1.00  0.00    -0.267 OA
HETATM   14  H   UNL     1     -43.177  60.222 -56.610  1.00  0.00     0.171 HD
BRANCH  12  15
HETATM   15  C   UNL     1     -44.360  58.214 -57.644  1.00  0.00     0.035 A 
HETATM   16  C   UNL     1     -43.622  57.166 -57.074  1.00  0.00     0.053 A 
HETATM   17  C   UNL     1     -43.069  56.158 -57.874  1.00  0.00     0.070 A 
HETATM   18  C   UNL     1     -43.285  56.159 -59.248  1.00  0.00     0.037 A 
HETATM   19  C   UNL     1     -44.023  57.189 -59.830  1.00  0.00     0.004 A 
HETATM   20  C   UNL     1     -44.550  58.212 -59.035  1.00  0.00     0.017 A 
BRANCH  17  21
HETATM   21  O   UNL     1     -42.395  55.182 -57.192  1.00  0.00    -0.347 OA
BRANCH  21  22
HETATM   22  C   UNL     1     -42.461  55.229 -55.760  1.00  0.00     0.120 C 
HETATM   23  C   UNL     1     -41.046  55.196 -55.194  1.00  0.00     0.040 C 
HETATM   24  C   UNL     1     -43.237  53.991 -55.313  1.00  0.00     0.040 C 
ENDBRANCH  21  22
ENDBRANCH  17  21
ENDBRANCH  12  15
ENDBRANCH   9  11
ENDBRANCH   7   9
ENDBRANCH   1   7
BRANCH   4  25
HETATM   25  N   UNL     1     -42.935  55.632 -51.142  1.00  0.00    -0.378 N 
HETATM   26  C   UNL     1     -42.055  55.705 -49.957  1.00  0.00     0.150 C 
HETATM   27  C   UNL     1     -40.690  55.052 -50.260  1.00  0.00     0.255 C 
HETATM   28  N   UNL     1     -40.882  53.623 -50.774  1.00  0.00    -0.064 N 
HETATM   29  H   UNL     1     -41.368  53.097 -50.033  1.00  0.00     0.280 HD
HETATM   30  C   UNL     1     -41.801  53.602 -51.996  1.00  0.00     0.255 C 
HETATM   31  C   UNL     1     -43.149  54.267 -51.650  1.00  0.00     0.150 C 
BRANCH  28  32
HETATM   32  C   UNL     1     -39.580  52.906 -51.020  1.00  0.00     0.276 C 
BRANCH  32  33
HETATM   33  C   UNL     1     -39.663  51.842 -52.076  1.00  0.00     0.006 A 
HETATM   34  C   UNL     1     -39.616  50.491 -51.713  1.00  0.00     0.124 A 
HETATM   35  F   UNL     1     -39.433  50.175 -50.422  1.00  0.00    -0.206 F 
HETATM   36  C   UNL     1     -39.716  49.475 -52.655  1.00  0.00     0.043 A 
HETATM   37  C   UNL     1     -39.875  49.805 -53.998  1.00  0.00     0.003 A 
HETATM   38  C   UNL     1     -39.933  51.145 -54.383  1.00  0.00     0.001 A 
HETATM   39  C   UNL     1     -39.830  52.162 -53.429  1.00  0.00     0.012 A 
ENDBRANCH  32  33
ENDBRANCH  28  32
ENDBRANCH   4  25
TORSDOF 9
ENDMDL
MODEL 4
REMARK VINA RESULT:      -7.8      3.611      5.881
REMARK  9 active torsions:
REMARK  status: ('A' for Active; 'I' for Inactive)
REMARK    1  A    between atoms: C_2  and  O_3 
REMARK    2  A    between atoms: O_3  and  C_4 
REMARK    3  A    between atoms: C_6  and  C_7 
REMARK       I    between atoms: C_7  and  N_8 
REMARK    4  A    between atoms: N_8  and  C_9 
REMARK    5  A    between atoms: C_9  and  N_10 
REMARK    6  A    between atoms: N_10  and  C_11 
REMARK    7  A    between atoms: C_14  and  N_15 
REMARK    8  A    between atoms: N_18  and  C_20 
REMARK    9  A    between atoms: C_20  and  C_21 
ROOT
HETATM    1  C   UNL     1     -47.087  59.555 -58.384  1.00  0.00     0.034 A 
HETATM    2  C   UNL     1     -47.299  58.460 -57.547  1.00  0.00     0.032 A 
HETATM    3  C   UNL     1     -46.362  58.117 -56.560  1.00  0.00     0.031 A 
HETATM    4  C   UNL     1     -45.190  58.858 -56.349  1.00  0.00     0.030 A 
HETATM    5  C   UNL     1     -45.018  59.975 -57.183  1.00  0.00     0.031 A 
HETATM    6  C   UNL     1     -45.945  60.320 -58.187  1.00  0.00     0.032 A 
ENDROOT
BRANCH   1   7
HETATM    7  N   UNL     1     -47.996  59.723 -59.455  1.00  0.00    -0.333 N 
HETATM    8  H   UNL     1     -48.952  59.866 -59.145  1.00  0.00     0.168 HD
BRANCH   7   9
HETATM    9  C   UNL     1     -47.937  59.186 -60.693  1.00  0.00     0.179 C 
HETATM   10  S   UNL     1     -49.100  59.626 -61.816  1.00  0.00    -0.040 SA
BRANCH   9  11
HETATM   11  N   UNL     1     -46.942  58.359 -61.107  1.00  0.00    -0.299 N 
HETATM   12  C   UNL     1     -46.741  57.058 -60.655  1.00  0.00     0.257 C 
HETATM   13  O   UNL     1     -47.626  56.212 -60.563  1.00  0.00    -0.267 OA
HETATM   14  H   UNL     1     -46.109  58.911 -61.235  1.00  0.00     0.171 HD
BRANCH  12  15
HETATM   15  C   UNL     1     -45.321  56.654 -60.350  1.00  0.00     0.035 A 
HETATM   16  C   UNL     1     -44.228  57.531 -60.381  1.00  0.00     0.053 A 
HETATM   17  C   UNL     1     -42.937  57.083 -60.074  1.00  0.00     0.070 A 
HETATM   18  C   UNL     1     -42.730  55.764 -59.687  1.00  0.00     0.037 A 
HETATM   19  C   UNL     1     -43.807  54.879 -59.643  1.00  0.00     0.004 A 
HETATM   20  C   UNL     1     -45.091  55.319 -59.978  1.00  0.00     0.017 A 
BRANCH  17  21
HETATM   21  O   UNL     1     -41.965  58.044 -60.117  1.00  0.00    -0.347 OA
BRANCH  21  22
HETATM   22  C   UNL     1     -42.402  59.411 -60.095  1.00  0.00     0.120 C 
HETATM   23  C   UNL     1     -41.906  60.113 -61.353  1.00  0.00     0.040 C 
HETATM   24  C   UNL     1     -41.785  60.052 -58.853  1.00  0.00     0.040 C 
ENDBRANCH  21  22
ENDBRANCH  17  21
ENDBRANCH  12  15
ENDBRANCH   9  11
ENDBRANCH   7   9
ENDBRANCH   1   7
BRANCH   4  25
HETATM   25  N   UNL     1     -44.242  58.448 -55.418  1.00  0.00    -0.378 N 
HETATM   26  C   UNL     1     -42.853  58.185 -55.848  1.00  0.00     0.150 C 
HETATM   27  C   UNL     1     -42.615  56.668 -55.999  1.00  0.00     0.255 C 
HETATM   28  N   UNL     1     -42.989  55.936 -54.708  1.00  0.00    -0.064 N 
HETATM   29  H   UNL     1     -42.389  56.314 -53.960  1.00  0.00     0.280 HD
HETATM   30  C   UNL     1     -44.431  56.243 -54.305  1.00  0.00     0.255 C 
HETATM   31  C   UNL     1     -44.625  57.767 -54.170  1.00  0.00     0.150 C 
BRANCH  28  32
HETATM   32  C   UNL     1     -42.710  54.456 -54.768  1.00  0.00     0.276 C 
BRANCH  32  33
HETATM   33  C   UNL     1     -41.993  53.924 -53.561  1.00  0.00     0.006 A 
HETATM   34  C   UNL     1     -40.818  53.180 -53.716  1.00  0.00     0.124 A 
HETATM   35  F   UNL     1     -40.387  52.904 -54.957  1.00  0.00    -0.206 F 
HETATM   36  C   UNL     1     -40.110  52.692 -52.626  1.00  0.00     0.043 A 
HETATM   37  C   UNL     1     -40.575  52.954 -51.340  1.00  0.00     0.003 A 
HETATM   38  C   UNL     1     -41.740  53.700 -51.159  1.00  0.00     0.001 A 
HETATM   39  C   UNL     1     -42.448  54.187 -52.262  1.00  0.00     0.012 A 
ENDBRANCH  32  33
ENDBRANCH  28  32
ENDBRANCH   4  25
TORSDOF 9
ENDMDL
MODEL 5
REMARK VINA RESULT:      -7.8      2.571      3.696
REMARK  9 active torsions:
REMARK  status: ('A' for Active; 'I' for Inactive)
REMARK    1  A    between atoms: C_2  and  O_3 
REMARK    2  A    between atoms: O_3  and  C_4 
REMARK    3  A    between atoms: C_6  and  C_7 
REMARK       I    between atoms: C_7  and  N_8 
REMARK    4  A    between atoms: N_8  and  C_9 
REMARK    5  A    between atoms: C_9  and  N_10 
REMARK    6  A    between atoms: N_10  and  C_11 
REMARK    7  A    between atoms: C_14  and  N_15 
REMARK    8  A    between atoms: N_18  and  C_20 
REMARK    9  A    between atoms: C_20  and  C_21 
ROOT
HETATM    1  C   UNL     1     -42.111  60.186 -55.998  1.00  0.00     0.034 A 
HETATM    2  C   UNL     1     -42.088  59.997 -54.617  1.00  0.00     0.032 A 
HETATM    3  C   UNL     1     -42.252  58.719 -54.063  1.00  0.00     0.031 A 
HETATM    4  C   UNL     1     -42.422  57.574 -54.856  1.00  0.00     0.030 A 
HETATM    5  C   UNL     1     -42.408  57.788 -56.244  1.00  0.00     0.031 A 
HETATM    6  C   UNL     1     -42.259  59.069 -56.811  1.00  0.00     0.032 A 
ENDROOT
BRANCH   1   7
HETATM    7  N   UNL     1     -42.109  61.524 -56.458  1.00  0.00    -0.333 N 
HETATM    8  H   UNL     1     -42.301  62.196 -55.722  1.00  0.00     0.168 HD
BRANCH   7   9
HETATM    9  C   UNL     1     -42.457  61.988 -57.678  1.00  0.00     0.179 C 
HETATM   10  S   UNL     1     -41.604  63.281 -58.318  1.00  0.00    -0.040 SA
BRANCH   9  11
HETATM   11  N   UNL     1     -43.418  61.422 -58.452  1.00  0.00    -0.299 N 
HETATM   12  C   UNL     1     -44.770  61.351 -58.128  1.00  0.00     0.257 C 
HETATM   13  O   UNL     1     -45.434  62.298 -57.714  1.00  0.00    -0.267 OA
HETATM   14  H   UNL     1     -43.028  60.599 -58.883  1.00  0.00     0.171 HD
BRANCH  12  15
HETATM   15  C   UNL     1     -45.468  60.042 -58.396  1.00  0.00     0.035 A 
HETATM   16  C   UNL     1     -45.014  59.079 -59.308  1.00  0.00     0.053 A 
HETATM   17  C   UNL     1     -45.712  57.880 -59.495  1.00  0.00     0.070 A 
HETATM   18  C   UNL     1     -46.847  57.608 -58.740  1.00  0.00     0.037 A 
HETATM   19  C   UNL     1     -47.309  58.551 -57.823  1.00  0.00     0.004 A 
HETATM   20  C   UNL     1     -46.629  59.762 -57.657  1.00  0.00     0.017 A 
BRANCH  17  21
HETATM   21  O   UNL     1     -45.149  57.016 -60.394  1.00  0.00    -0.347 OA
BRANCH  21  22
HETATM   22  C   UNL     1     -44.567  55.816 -59.863  1.00  0.00     0.120 C 
HETATM   23  C   UNL     1     -43.057  55.995 -59.767  1.00  0.00     0.040 C 
HETATM   24  C   UNL     1     -44.905  54.692 -60.841  1.00  0.00     0.040 C 
ENDBRANCH  21  22
ENDBRANCH  17  21
ENDBRANCH  12  15
ENDBRANCH   9  11
ENDBRANCH   7   9
ENDBRANCH   1   7
BRANCH   4  25
HETATM   25  N   UNL     1     -42.662  56.332 -54.278  1.00  0.00    -0.378 N 
HETATM   26  C   UNL     1     -41.971  55.955 -53.027  1.00  0.00     0.150 C 
HETATM   27  C   UNL     1     -40.784  55.016 -53.331  1.00  0.00     0.255 C 
HETATM   28  N   UNL     1     -41.252  53.806 -54.142  1.00  0.00    -0.064 N 
HETATM   29  H   UNL     1     -41.956  53.312 -53.572  1.00  0.00     0.280 HD
HETATM   30  C   UNL     1     -41.963  54.248 -55.421  1.00  0.00     0.255 C 
HETATM   31  C   UNL     1     -43.136  55.187 -55.072  1.00  0.00     0.150 C 
BRANCH  28  32
HETATM   32  C   UNL     1     -40.150  52.813 -54.408  1.00  0.00     0.276 C 
BRANCH  32  33
HETATM   33  C   UNL     1     -39.979  51.790 -53.323  1.00  0.00     0.006 A 
HETATM   34  C   UNL     1     -39.776  50.446 -53.654  1.00  0.00     0.124 A 
HETATM   35  F   UNL     1     -39.801  50.088 -54.948  1.00  0.00    -0.206 F 
HETATM   36  C   UNL     1     -39.587  49.471 -52.683  1.00  0.00     0.043 A 
HETATM   37  C   UNL     1     -39.592  49.839 -51.340  1.00  0.00     0.003 A 
HETATM   38  C   UNL     1     -39.784  51.175 -50.985  1.00  0.00     0.001 A 
HETATM   39  C   UNL     1     -39.974  52.149 -51.969  1.00  0.00     0.012 A 
ENDBRANCH  32  33
ENDBRANCH  28  32
ENDBRANCH   4  25
TORSDOF 9
ENDMDL
MODEL 6
REMARK VINA RESULT:      -7.7      5.598      9.021
REMARK  9 active torsions:
REMARK  status: ('A' for Active; 'I' for Inactive)
REMARK    1  A    between atoms: C_2  and  O_3 
REMARK    2  A    between atoms: O_3  and  C_4 
REMARK    3  A    between atoms: C_6  and  C_7 
REMARK       I    between atoms: C_7  and  N_8 
REMARK    4  A    between atoms: N_8  and  C_9 
REMARK    5  A    between atoms: C_9  and  N_10 
REMARK    6  A    between atoms: N_10  and  C_11 
REMARK    7  A    between atoms: C_14  and  N_15 
REMARK    8  A    between atoms: N_18  and  C_20 
REMARK    9  A    between atoms: C_20  and  C_21 
ROOT
HETATM    1  C   UNL     1     -43.629  62.162 -51.161  1.00  0.00     0.034 A 
HETATM    2  C   UNL     1     -43.726  61.901 -52.527  1.00  0.00     0.032 A 
HETATM    3  C   UNL     1     -43.052  60.814 -53.102  1.00  0.00     0.031 A 
HETATM    4  C   UNL     1     -42.274  59.928 -52.343  1.00  0.00     0.030 A 
HETATM    5  C   UNL     1     -42.220  60.194 -50.965  1.00  0.00     0.031 A 
HETATM    6  C   UNL     1     -42.881  61.292 -50.379  1.00  0.00     0.032 A 
ENDROOT
BRANCH   1   7
HETATM    7  N   UNL     1     -44.200  63.372 -50.701  1.00  0.00    -0.333 N 
HETATM    8  H   UNL     1     -43.553  64.154 -50.733  1.00  0.00     0.168 HD
BRANCH   7   9
HETATM    9  C   UNL     1     -45.157  63.540 -49.763  1.00  0.00     0.179 C 
HETATM   10  S   UNL     1     -46.762  63.377 -50.214  1.00  0.00    -0.040 SA
BRANCH   9  11
HETATM   11  N   UNL     1     -44.891  63.765 -48.449  1.00  0.00    -0.299 N 
HETATM   12  C   UNL     1     -45.106  62.853 -47.420  1.00  0.00     0.257 C 
HETATM   13  O   UNL     1     -44.758  61.676 -47.455  1.00  0.00    -0.267 OA
HETATM   14  H   UNL     1     -45.130  64.722 -48.242  1.00  0.00     0.171 HD
BRANCH  12  15
HETATM   15  C   UNL     1     -45.723  63.386 -46.153  1.00  0.00     0.035 A 
HETATM   16  C   UNL     1     -44.988  63.843 -45.050  1.00  0.00     0.053 A 
HETATM   17  C   UNL     1     -45.633  64.337 -43.909  1.00  0.00     0.070 A 
HETATM   18  C   UNL     1     -47.021  64.422 -43.875  1.00  0.00     0.037 A 
HETATM   19  C   UNL     1     -47.767  63.979 -44.966  1.00  0.00     0.004 A 
HETATM   20  C   UNL     1     -47.124  63.459 -46.093  1.00  0.00     0.017 A 
BRANCH  17  21
HETATM   21  O   UNL     1     -44.801  64.773 -42.916  1.00  0.00    -0.347 OA
BRANCH  21  22
HETATM   22  C   UNL     1     -44.336  63.790 -41.980  1.00  0.00     0.120 C 
HETATM   23  C   UNL     1     -44.389  64.375 -40.574  1.00  0.00     0.040 C 
HETATM   24  C   UNL     1     -42.894  63.462 -42.363  1.00  0.00     0.040 C 
ENDBRANCH  21  22
ENDBRANCH  17  21
ENDBRANCH  12  15
ENDBRANCH   9  11
ENDBRANCH   7   9
ENDBRANCH   1   7
BRANCH   4  25
HETATM   25  N   UNL     1     -41.553  58.906 -52.951  1.00  0.00    -0.378 N 
HETATM   26  C   UNL     1     -42.069  58.272 -54.183  1.00  0.00     0.150 C 
HETATM   27  C   UNL     1     -42.732  56.918 -53.853  1.00  0.00     0.255 C 
HETATM   28  N   UNL     1     -41.761  56.020 -53.082  1.00  0.00    -0.064 N 
HETATM   29  H   UNL     1     -40.938  55.873 -53.685  1.00  0.00     0.280 HD
HETATM   30  C   UNL     1     -41.254  56.721 -51.821  1.00  0.00     0.255 C 
HETATM   31  C   UNL     1     -40.606  58.070 -52.196  1.00  0.00     0.150 C 
BRANCH  28  32
HETATM   32  C   UNL     1     -42.326  54.653 -52.793  1.00  0.00     0.276 C 
BRANCH  32  33
HETATM   33  C   UNL     1     -41.336  53.538 -52.969  1.00  0.00     0.006 A 
HETATM   34  C   UNL     1     -40.615  53.063 -51.868  1.00  0.00     0.124 A 
HETATM   35  F   UNL     1     -40.781  53.662 -50.679  1.00  0.00    -0.206 F 
HETATM   36  C   UNL     1     -39.710  52.015 -51.981  1.00  0.00     0.043 A 
HETATM   37  C   UNL     1     -39.516  51.414 -53.222  1.00  0.00     0.003 A 
HETATM   38  C   UNL     1     -40.230  51.865 -54.333  1.00  0.00     0.001 A 
HETATM   39  C   UNL     1     -41.139  52.920 -54.211  1.00  0.00     0.012 A 
ENDBRANCH  32  33
ENDBRANCH  28  32
ENDBRANCH   4  25
TORSDOF 9
ENDMDL
MODEL 7
REMARK VINA RESULT:      -7.7      4.324      8.949
REMARK  9 active torsions:
REMARK  status: ('A' for Active; 'I' for Inactive)
REMARK    1  A    between atoms: C_2  and  O_3 
REMARK    2  A    between atoms: O_3  and  C_4 
REMARK    3  A    between atoms: C_6  and  C_7 
REMARK       I    between atoms: C_7  and  N_8 
REMARK    4  A    between atoms: N_8  and  C_9 
REMARK    5  A    between atoms: C_9  and  N_10 
REMARK    6  A    between atoms: N_10  and  C_11 
REMARK    7  A    between atoms: C_14  and  N_15 
REMARK    8  A    between atoms: N_18  and  C_20 
REMARK    9  A    between atoms: C_20  and  C_21 
ROOT
HETATM    1  C   UNL     1     -44.479  57.970 -55.403  1.00  0.00     0.034 A 
HETATM    2  C   UNL     1     -44.234  57.765 -54.045  1.00  0.00     0.032 A 
HETATM    3  C   UNL     1     -44.271  58.833 -53.137  1.00  0.00     0.031 A 
HETATM    4  C   UNL     1     -44.575  60.143 -53.534  1.00  0.00     0.030 A 
HETATM    5  C   UNL     1     -44.851  60.317 -54.900  1.00  0.00     0.031 A 
HETATM    6  C   UNL     1     -44.802  59.254 -55.823  1.00  0.00     0.032 A 
ENDROOT
BRANCH   1   7
HETATM    7  N   UNL     1     -44.254  56.871 -56.265  1.00  0.00    -0.333 N 
HETATM    8  H   UNL     1     -44.837  56.069 -56.045  1.00  0.00     0.168 HD
BRANCH   7   9
HETATM    9  C   UNL     1     -43.107  56.515 -56.881  1.00  0.00     0.179 C 
HETATM   10  S   UNL     1     -42.668  57.317 -58.285  1.00  0.00    -0.040 SA
BRANCH   9  11
HETATM   11  N   UNL     1     -42.246  55.586 -56.390  1.00  0.00    -0.299 N 
HETATM   12  C   UNL     1     -42.616  54.436 -55.699  1.00  0.00     0.257 C 
HETATM   13  O   UNL     1     -43.496  53.661 -56.066  1.00  0.00    -0.267 OA
HETATM   14  H   UNL     1     -41.436  56.068 -56.034  1.00  0.00     0.171 HD
BRANCH  12  15
HETATM   15  C   UNL     1     -41.811  54.086 -54.474  1.00  0.00     0.035 A 
HETATM   16  C   UNL     1     -41.842  54.815 -53.276  1.00  0.00     0.053 A 
HETATM   17  C   UNL     1     -41.072  54.421 -52.175  1.00  0.00     0.070 A 
HETATM   18  C   UNL     1     -40.297  53.268 -52.241  1.00  0.00     0.037 A 
HETATM   19  C   UNL     1     -40.260  52.528 -53.422  1.00  0.00     0.004 A 
HETATM   20  C   UNL     1     -41.006  52.937 -54.532  1.00  0.00     0.017 A 
BRANCH  17  21
HETATM   21  O   UNL     1     -41.213  55.202 -51.061  1.00  0.00    -0.347 OA
BRANCH  21  22
HETATM   22  C   UNL     1     -41.875  56.463 -51.233  1.00  0.00     0.120 C 
HETATM   23  C   UNL     1     -41.106  57.537 -50.472  1.00  0.00     0.040 C 
HETATM   24  C   UNL     1     -43.279  56.307 -50.652  1.00  0.00     0.040 C 
ENDBRANCH  21  22
ENDBRANCH  17  21
ENDBRANCH  12  15
ENDBRANCH   9  11
ENDBRANCH   7   9
ENDBRANCH   1   7
BRANCH   4  25
HETATM   25  N   UNL     1     -44.526  61.196 -52.626  1.00  0.00    -0.378 N 
HETATM   26  C   UNL     1     -43.319  61.400 -51.798  1.00  0.00     0.150 C 
HETATM   27  C   UNL     1     -43.546  60.852 -50.373  1.00  0.00     0.255 C 
HETATM   28  N   UNL     1     -44.803  61.469 -49.756  1.00  0.00    -0.064 N 
HETATM   29  H   UNL     1     -44.657  62.488 -49.723  1.00  0.00     0.280 HD
HETATM   30  C   UNL     1     -46.021  61.235 -50.650  1.00  0.00     0.255 C 
HETATM   31  C   UNL     1     -45.749  61.791 -52.063  1.00  0.00     0.150 C 
BRANCH  28  32
HETATM   32  C   UNL     1     -45.039  61.028 -48.334  1.00  0.00     0.276 C 
BRANCH  32  33
HETATM   33  C   UNL     1     -45.035  62.153 -47.341  1.00  0.00     0.006 A 
HETATM   34  C   UNL     1     -45.116  61.878 -45.972  1.00  0.00     0.124 A 
HETATM   35  F   UNL     1     -45.260  60.603 -45.576  1.00  0.00    -0.206 F 
HETATM   36  C   UNL     1     -45.088  62.887 -45.017  1.00  0.00     0.043 A 
HETATM   37  C   UNL     1     -44.969  64.211 -45.431  1.00  0.00     0.003 A 
HETATM   38  C   UNL     1     -44.878  64.510 -46.791  1.00  0.00     0.001 A 
HETATM   39  C   UNL     1     -44.907  63.488 -47.745  1.00  0.00     0.012 A 
ENDBRANCH  32  33
ENDBRANCH  28  32
ENDBRANCH   4  25
TORSDOF 9
ENDMDL
MODEL 8
REMARK VINA RESULT:      -7.6      3.212      6.326
REMARK  9 active torsions:
REMARK  status: ('A' for Active; 'I' for Inactive)
REMARK    1  A    between atoms: C_2  and  O_3 
REMARK    2  A    between atoms: O_3  and  C_4 
REMARK    3  A    between atoms: C_6  and  C_7 
REMARK       I    between atoms: C_7  and  N_8 
REMARK    4  A    between atoms: N_8  and  C_9 
REMARK    5  A    between atoms: C_9  and  N_10 
REMARK    6  A    between atoms: N_10  and  C_11 
REMARK    7  A    between atoms: C_14  and  N_15 
REMARK    8  A    between atoms: N_18  and  C_20 
REMARK    9  A    between atoms: C_20  and  C_21 
ROOT
HETATM    1  C   UNL     1     -45.279  58.977 -53.123  1.00  0.00     0.034 A 
HETATM    2  C   UNL     1     -44.571  57.990 -53.808  1.00  0.00     0.032 A 
HETATM    3  C   UNL     1     -43.981  56.919 -53.120  1.00  0.00     0.031 A 
HETATM    4  C   UNL     1     -44.088  56.772 -51.730  1.00  0.00     0.030 A 
HETATM    5  C   UNL     1     -44.835  57.760 -51.068  1.00  0.00     0.031 A 
HETATM    6  C   UNL     1     -45.419  58.848 -51.747  1.00  0.00     0.032 A 
ENDROOT
BRANCH   1   7
HETATM    7  N   UNL     1     -45.692  60.103 -53.874  1.00  0.00    -0.333 N 
HETATM    8  H   UNL     1     -46.074  59.855 -54.782  1.00  0.00     0.168 HD
BRANCH   7   9
HETATM    9  C   UNL     1     -45.176  61.350 -53.861  1.00  0.00     0.179 C 
HETATM   10  S   UNL     1     -44.305  61.873 -55.193  1.00  0.00    -0.040 SA
BRANCH   9  11
HETATM   11  N   UNL     1     -45.382  62.239 -52.854  1.00  0.00    -0.299 N 
HETATM   12  C   UNL     1     -44.444  62.582 -51.883  1.00  0.00     0.257 C 
HETATM   13  O   UNL     1     -43.277  62.877 -52.122  1.00  0.00    -0.267 OA
HETATM   14  H   UNL     1     -46.328  62.127 -52.527  1.00  0.00     0.171 HD
BRANCH  12  15
HETATM   15  C   UNL     1     -44.938  62.681 -50.463  1.00  0.00     0.035 A 
HETATM   16  C   UNL     1     -44.860  61.639 -49.527  1.00  0.00     0.053 A 
HETATM   17  C   UNL     1     -45.331  61.810 -48.219  1.00  0.00     0.070 A 
HETATM   18  C   UNL     1     -45.843  63.039 -47.817  1.00  0.00     0.037 A 
HETATM   19  C   UNL     1     -45.920  64.088 -48.732  1.00  0.00     0.004 A 
HETATM   20  C   UNL     1     -45.477  63.908 -50.046  1.00  0.00     0.017 A 
BRANCH  17  21
HETATM   21  O   UNL     1     -45.173  60.726 -47.400  1.00  0.00    -0.347 OA
BRANCH  21  22
HETATM   22  C   UNL     1     -45.675  60.847 -46.062  1.00  0.00     0.120 C 
HETATM   23  C   UNL     1     -44.504  60.824 -45.086  1.00  0.00     0.040 C 
HETATM   24  C   UNL     1     -46.586  59.644 -45.821  1.00  0.00     0.040 C 
ENDBRANCH  21  22
ENDBRANCH  17  21
ENDBRANCH  12  15
ENDBRANCH   9  11
ENDBRANCH   7   9
ENDBRANCH   1   7
BRANCH   4  25
HETATM   25  N   UNL     1     -43.426  55.744 -51.065  1.00  0.00    -0.378 N 
HETATM   26  C   UNL     1     -42.136  56.011 -50.395  1.00  0.00     0.150 C 
HETATM   27  C   UNL     1     -40.964  55.515 -51.268  1.00  0.00     0.255 C 
HETATM   28  N   UNL     1     -41.154  54.040 -51.632  1.00  0.00    -0.064 N 
HETATM   29  H   UNL     1     -41.184  53.511 -50.748  1.00  0.00     0.280 HD
HETATM   30  C   UNL     1     -42.501  53.816 -52.318  1.00  0.00     0.255 C 
HETATM   31  C   UNL     1     -43.641  54.330 -51.415  1.00  0.00     0.150 C 
BRANCH  28  32
HETATM   32  C   UNL     1     -40.003  53.476 -52.425  1.00  0.00     0.276 C 
BRANCH  32  33
HETATM   33  C   UNL     1     -39.881  51.982 -52.339  1.00  0.00     0.006 A 
HETATM   34  C   UNL     1     -39.842  51.216 -53.509  1.00  0.00     0.124 A 
HETATM   35  F   UNL     1     -39.979  51.834 -54.692  1.00  0.00    -0.206 F 
HETATM   36  C   UNL     1     -39.703  49.834 -53.476  1.00  0.00     0.043 A 
HETATM   37  C   UNL     1     -39.592  49.191 -52.246  1.00  0.00     0.003 A 
HETATM   38  C   UNL     1     -39.619  49.935 -51.066  1.00  0.00     0.001 A 
HETATM   39  C   UNL     1     -39.760  51.325 -51.108  1.00  0.00     0.012 A 
ENDBRANCH  32  33
ENDBRANCH  28  32
ENDBRANCH   4  25
TORSDOF 9
ENDMDL
MODEL 9
REMARK VINA RESULT:      -7.5      3.195      6.425
REMARK  9 active torsions:
REMARK  status: ('A' for Active; 'I' for Inactive)
REMARK    1  A    between atoms: C_2  and  O_3 
REMARK    2  A    between atoms: O_3  and  C_4 
REMARK    3  A    between atoms: C_6  and  C_7 
REMARK       I    between atoms: C_7  and  N_8 
REMARK    4  A    between atoms: N_8  and  C_9 
REMARK    5  A    between atoms: C_9  and  N_10 
REMARK    6  A    between atoms: N_10  and  C_11 
REMARK    7  A    between atoms: C_14  and  N_15 
REMARK    8  A    between atoms: N_18  and  C_20 
REMARK    9  A    between atoms: C_20  and  C_21 
ROOT
HETATM    1  C   UNL     1     -45.344  59.632 -53.850  1.00  0.00     0.034 A 
HETATM    2  C   UNL     1     -44.795  58.762 -52.908  1.00  0.00     0.032 A 
HETATM    3  C   UNL     1     -44.094  57.616 -53.309  1.00  0.00     0.031 A 
HETATM    4  C   UNL     1     -43.887  57.298 -54.660  1.00  0.00     0.030 A 
HETATM    5  C   UNL     1     -44.421  58.208 -55.587  1.00  0.00     0.031 A 
HETATM    6  C   UNL     1     -45.140  59.354 -55.195  1.00  0.00     0.032 A 
ENDROOT
BRANCH   1   7
HETATM    7  N   UNL     1     -46.176  60.664 -53.356  1.00  0.00    -0.333 N 
HETATM    8  H   UNL     1     -47.099  60.335 -53.090  1.00  0.00     0.168 HD
BRANCH   7   9
HETATM    9  C   UNL     1     -46.178  61.970 -53.697  1.00  0.00     0.179 C 
HETATM   10  S   UNL     1     -47.077  62.452 -55.026  1.00  0.00    -0.040 SA
BRANCH   9  11
HETATM   11  N   UNL     1     -45.545  62.936 -52.981  1.00  0.00    -0.299 N 
HETATM   12  C   UNL     1     -44.320  62.784 -52.338  1.00  0.00     0.257 C 
HETATM   13  O   UNL     1     -43.323  62.289 -52.857  1.00  0.00    -0.267 OA
HETATM   14  H   UNL     1     -46.243  63.456 -52.474  1.00  0.00     0.171 HD
BRANCH  12  15
HETATM   15  C   UNL     1     -44.203  63.353 -50.948  1.00  0.00     0.035 A 
HETATM   16  C   UNL     1     -45.132  63.126 -49.922  1.00  0.00     0.053 A 
HETATM   17  C   UNL     1     -44.949  63.681 -48.650  1.00  0.00     0.070 A 
HETATM   18  C   UNL     1     -43.813  64.434 -48.373  1.00  0.00     0.037 A 
HETATM   19  C   UNL     1     -42.876  64.664 -49.379  1.00  0.00     0.004 A 
HETATM   20  C   UNL     1     -43.072  64.134 -50.658  1.00  0.00     0.017 A 
BRANCH  17  21
HETATM   21  O   UNL     1     -45.914  63.361 -47.734  1.00  0.00    -0.347 OA
BRANCH  21  22
HETATM   22  C   UNL     1     -46.138  61.965 -47.489  1.00  0.00     0.120 C 
HETATM   23  C   UNL     1     -47.193  61.813 -46.400  1.00  0.00     0.040 C 
HETATM   24  C   UNL     1     -44.807  61.380 -47.021  1.00  0.00     0.040 C 
ENDBRANCH  21  22
ENDBRANCH  17  21
ENDBRANCH  12  15
ENDBRANCH   9  11
ENDBRANCH   7   9
ENDBRANCH   1   7
BRANCH   4  25
HETATM   25  N   UNL     1     -43.257  56.114 -55.029  1.00  0.00    -0.378 N 
HETATM   26  C   UNL     1     -43.739  54.824 -54.492  1.00  0.00     0.150 C 
HETATM   27  C   UNL     1     -42.832  54.351 -53.336  1.00  0.00     0.255 C 
HETATM   28  N   UNL     1     -41.371  54.300 -53.788  1.00  0.00    -0.064 N 
HETATM   29  H   UNL     1     -41.319  53.634 -54.573  1.00  0.00     0.280 HD
HETATM   30  C   UNL     1     -40.922  55.654 -54.338  1.00  0.00     0.255 C 
HETATM   31  C   UNL     1     -41.857  56.091 -55.484  1.00  0.00     0.150 C 
BRANCH  28  32
HETATM   32  C   UNL     1     -40.443  53.774 -52.724  1.00  0.00     0.276 C 
BRANCH  32  33
HETATM   33  C   UNL     1     -40.139  52.309 -52.852  1.00  0.00     0.006 A 
HETATM   34  C   UNL     1     -39.809  51.561 -51.717  1.00  0.00     0.124 A 
HETATM   35  F   UNL     1     -39.708  52.190 -50.535  1.00  0.00    -0.206 F 
HETATM   36  C   UNL     1     -39.547  50.199 -51.787  1.00  0.00     0.043 A 
HETATM   37  C   UNL     1     -39.623  49.554 -53.018  1.00  0.00     0.003 A 
HETATM   38  C   UNL     1     -39.959  50.277 -54.164  1.00  0.00     0.001 A 
HETATM   39  C   UNL     1     -40.220  51.648 -54.084  1.00  0.00     0.012 A 
ENDBRANCH  32  33
ENDBRANCH  28  32
ENDBRANCH   4  25
TORSDOF 9
ENDMDL
MODEL 10
REMARK VINA RESULT:      -7.5      4.030      8.035
REMARK  9 active torsions:
REMARK  status: ('A' for Active; 'I' for Inactive)
REMARK    1  A    between atoms: C_2  and  O_3 
REMARK    2  A    between atoms: O_3  and  C_4 
REMARK    3  A    between atoms: C_6  and  C_7 
REMARK       I    between atoms: C_7  and  N_8 
REMARK    4  A    between atoms: N_8  and  C_9 
REMARK    5  A    between atoms: C_9  and  N_10 
REMARK    6  A    between atoms: N_10  and  C_11 
REMARK    7  A    between atoms: C_14  and  N_15 
REMARK    8  A    between atoms: N_18  and  C_20 
REMARK    9  A    between atoms: C_20  and  C_21 
ROOT
HETATM    1  C   UNL     1     -41.901  56.189 -51.202  1.00  0.00     0.034 A 
HETATM    2  C   UNL     1     -41.070  57.306 -51.126  1.00  0.00     0.032 A 
HETATM    3  C   UNL     1     -41.597  58.603 -51.209  1.00  0.00     0.031 A 
HETATM    4  C   UNL     1     -42.972  58.846 -51.348  1.00  0.00     0.030 A 
HETATM    5  C   UNL     1     -43.790  57.705 -51.387  1.00  0.00     0.031 A 
HETATM    6  C   UNL     1     -43.269  56.397 -51.319  1.00  0.00     0.032 A 
ENDROOT
BRANCH   1   7
HETATM    7  N   UNL     1     -41.267  54.927 -51.280  1.00  0.00    -0.333 N 
HETATM    8  H   UNL     1     -40.512  54.821 -50.610  1.00  0.00     0.168 HD
BRANCH   7   9
HETATM    9  C   UNL     1     -41.101  54.141 -52.366  1.00  0.00     0.179 C 
HETATM   10  S   UNL     1     -40.244  52.711 -52.199  1.00  0.00    -0.040 SA
BRANCH   9  11
HETATM   11  N   UNL     1     -41.650  54.410 -53.579  1.00  0.00    -0.299 N 
HETATM   12  C   UNL     1     -41.035  55.137 -54.594  1.00  0.00     0.257 C 
HETATM   13  O   UNL     1     -39.882  54.954 -54.976  1.00  0.00    -0.267 OA
HETATM   14  H   UNL     1     -42.631  54.591 -53.445  1.00  0.00     0.171 HD
BRANCH  12  15
HETATM   15  C   UNL     1     -41.885  56.146 -55.322  1.00  0.00     0.035 A 
HETATM   16  C   UNL     1     -42.583  55.880 -56.509  1.00  0.00     0.053 A 
HETATM   17  C   UNL     1     -43.363  56.868 -57.122  1.00  0.00     0.070 A 
HETATM   18  C   UNL     1     -43.492  58.121 -56.532  1.00  0.00     0.037 A 
HETATM   19  C   UNL     1     -42.811  58.401 -55.349  1.00  0.00     0.004 A 
HETATM   20  C   UNL     1     -42.008  57.423 -54.751  1.00  0.00     0.017 A 
BRANCH  17  21
HETATM   21  O   UNL     1     -44.012  56.472 -58.259  1.00  0.00    -0.347 OA
BRANCH  21  22
HETATM   22  C   UNL     1     -43.232  55.771 -59.239  1.00  0.00     0.120 C 
HETATM   23  C   UNL     1     -42.442  56.781 -60.062  1.00  0.00     0.040 C 
HETATM   24  C   UNL     1     -44.217  55.018 -60.130  1.00  0.00     0.040 C 
ENDBRANCH  21  22
ENDBRANCH  17  21
ENDBRANCH  12  15
ENDBRANCH   9  11
ENDBRANCH   7   9
ENDBRANCH   1   7
BRANCH   4  25
HETATM   25  N   UNL     1     -43.458  60.139 -51.508  1.00  0.00    -0.378 N 
HETATM   26  C   UNL     1     -42.963  61.226 -50.638  1.00  0.00     0.150 C 
HETATM   27  C   UNL     1     -43.983  61.526 -49.519  1.00  0.00     0.255 C 
HETATM   28  N   UNL     1     -45.361  61.822 -50.117  1.00  0.00    -0.064 N 
HETATM   29  H   UNL     1     -45.256  62.644 -50.730  1.00  0.00     0.280 HD
HETATM   30  C   UNL     1     -45.826  60.672 -51.010  1.00  0.00     0.255 C 
HETATM   31  C   UNL     1     -44.777  60.402 -52.108  1.00  0.00     0.150 C 
BRANCH  28  32
HETATM   32  C   UNL     1     -46.386  62.195 -49.077  1.00  0.00     0.276 C 
BRANCH  32  33
HETATM   33  C   UNL     1     -45.861  62.172 -47.671  1.00  0.00     0.006 A 
HETATM   34  C   UNL     1     -45.661  60.950 -47.019  1.00  0.00     0.124 A 
HETATM   35  F   UNL     1     -46.006  59.817 -47.650  1.00  0.00    -0.206 F 
HETATM   36  C   UNL     1     -45.152  60.882 -45.728  1.00  0.00     0.043 A 
HETATM   37  C   UNL     1     -44.823  62.060 -45.064  1.00  0.00     0.003 A 
HETATM   38  C   UNL     1     -45.005  63.291 -45.696  1.00  0.00     0.001 A 
HETATM   39  C   UNL     1     -45.518  63.350 -46.995  1.00  0.00     0.012 A 
ENDBRANCH  32  33
ENDBRANCH  28  32
ENDBRANCH   4  25
TORSDOF 9
ENDMDL
