MODEL 1
REMARK VINA RESULT:      -7.4      0.000      0.000
REMARK  5 active torsions:
REMARK  status: ('A' for Active; 'I' for Inactive)
REMARK    1  A    between atoms: C_3  and  N_4 
REMARK       I    between atoms: N_4  and  C_5 
REMARK       I    between atoms: C_5  and  N_6 
REMARK    2  A    between atoms: N_6  and  C_7 
REMARK    3  A    between atoms: C_7  and  C_8 
REMARK    4  A    between atoms: C_8  and  O_9 
REMARK    5  A    between atoms: O_9  and  C_10 
ROOT
HETATM    1  N   UNL     1     -42.524  55.773 -57.607  1.00  0.00    -0.307 N 
HETATM    2  C   UNL     1     -42.822  56.291 -56.382  1.00  0.00     0.320 C 
HETATM    3  N   UNL     1     -41.915  56.014 -55.401  1.00  0.00    -0.340 N 
HETATM    4  O   UNL     1     -43.776  57.008 -56.108  1.00  0.00    -0.247 OA
HETATM    5  H   UNL     1     -41.533  55.867 -57.796  1.00  0.00     0.170 HD
HETATM    6  H   UNL     1     -42.211  56.465 -54.543  1.00  0.00     0.164 HD
ENDROOT
BRANCH   3   7
HETATM    7  C   UNL     1     -41.123  54.797 -55.210  1.00  0.00     0.156 C 
BRANCH   7   8
HETATM    8  C   UNL     1     -41.480  53.874 -54.024  1.00  0.00     0.142 C 
HETATM    9  C   UNL     1     -42.321  54.656 -53.013  1.00  0.00     0.042 C 
BRANCH   8  10
HETATM   10  O   UNL     1     -40.256  53.447 -53.416  1.00  0.00    -0.343 OA
BRANCH  10  11
HETATM   11  C   UNL     1     -40.039  52.125 -53.140  1.00  0.00     0.091 A 
HETATM   12  C   UNL     1     -39.844  51.793 -51.788  1.00  0.00     0.067 A 
HETATM   13 CL   UNL     1     -39.903  52.998 -50.549  1.00  0.00    -0.081 Cl
HETATM   14  C   UNL     1     -39.605  50.471 -51.402  1.00  0.00     0.026 A 
HETATM   15  C   UNL     1     -39.549  49.466 -52.364  1.00  0.00     0.002 A 
HETATM   16  C   UNL     1     -39.730  49.786 -53.708  1.00  0.00     0.003 A 
HETATM   17  C   UNL     1     -39.972  51.108 -54.096  1.00  0.00     0.038 A 
ENDBRANCH  10  11
ENDBRANCH   8  10
ENDBRANCH   7   8
ENDBRANCH   3   7
BRANCH   1  18
HETATM   18  C   UNL     1     -43.362  55.752 -58.745  1.00  0.00     0.059 A 
HETATM   19  C   UNL     1     -43.568  56.812 -59.641  1.00  0.00    -0.032 A 
HETATM   20  C   UNL     1     -42.945  58.173 -59.519  1.00  0.00     0.050 C 
HETATM   21  C   UNL     1     -44.429  56.599 -60.734  1.00  0.00     0.028 A 
HETATM   22  C   UNL     1     -45.092  55.389 -60.861  1.00  0.00     0.117 A 
HETATM   23  N   UNL     1     -44.964  54.377 -59.985  1.00  0.00    -0.271 NA
HETATM   24  C   UNL     1     -44.104  54.584 -58.960  1.00  0.00     0.146 A 
ENDBRANCH   1  18
TORSDOF 5
ENDMDL
MODEL 2
REMARK VINA RESULT:      -7.4      2.785      3.755
REMARK  5 active torsions:
REMARK  status: ('A' for Active; 'I' for Inactive)
REMARK    1  A    between atoms: C_3  and  N_4 
REMARK       I    between atoms: N_4  and  C_5 
REMARK       I    between atoms: C_5  and  N_6 
REMARK    2  A    between atoms: N_6  and  C_7 
REMARK    3  A    between atoms: C_7  and  C_8 
REMARK    4  A    between atoms: C_8  and  O_9 
REMARK    5  A    between atoms: O_9  and  C_10 
ROOT
HETATM    1  N   UNL     1     -42.525  56.732 -53.941  1.00  0.00    -0.307 N 
HETATM    2  C   UNL     1     -43.633  56.617 -53.156  1.00  0.00     0.320 C 
HETATM    3  N   UNL     1     -43.546  55.681 -52.167  1.00  0.00    -0.340 N 
HETATM    4  O   UNL     1     -44.648  57.300 -53.225  1.00  0.00    -0.247 OA
HETATM    5  H   UNL     1     -41.687  56.673 -53.376  1.00  0.00     0.170 HD
HETATM    6  H   UNL     1     -44.403  55.695 -51.626  1.00  0.00     0.164 HD
ENDROOT
BRANCH   3   7
HETATM    7  C   UNL     1     -42.862  54.387 -52.196  1.00  0.00     0.156 C 
BRANCH   7   8
HETATM    8  C   UNL     1     -41.690  54.162 -51.216  1.00  0.00     0.142 C 
HETATM    9  C   UNL     1     -41.480  55.428 -50.383  1.00  0.00     0.042 C 
BRANCH   8  10
HETATM   10  O   UNL     1     -40.518  53.885 -51.989  1.00  0.00    -0.343 OA
BRANCH  10  11
HETATM   11  C   UNL     1     -40.193  52.599 -52.327  1.00  0.00     0.091 A 
HETATM   12  C   UNL     1     -40.199  52.292 -53.699  1.00  0.00     0.067 A 
HETATM   13 CL   UNL     1     -40.575  53.493 -54.886  1.00  0.00    -0.081 Cl
HETATM   14  C   UNL     1     -39.890  51.005 -54.147  1.00  0.00     0.026 A 
HETATM   15  C   UNL     1     -39.581  50.006 -53.228  1.00  0.00     0.002 A 
HETATM   16  C   UNL     1     -39.582  50.296 -51.866  1.00  0.00     0.003 A 
HETATM   17  C   UNL     1     -39.888  51.585 -51.415  1.00  0.00     0.038 A 
ENDBRANCH  10  11
ENDBRANCH   8  10
ENDBRANCH   7   8
ENDBRANCH   3   7
BRANCH   1  18
HETATM   18  C   UNL     1     -42.405  57.483 -55.134  1.00  0.00     0.059 A 
HETATM   19  C   UNL     1     -42.582  56.997 -56.438  1.00  0.00    -0.032 A 
HETATM   20  C   UNL     1     -42.905  55.573 -56.788  1.00  0.00     0.050 C 
HETATM   21  C   UNL     1     -42.439  57.901 -57.507  1.00  0.00     0.028 A 
HETATM   22  C   UNL     1     -42.069  59.212 -57.254  1.00  0.00     0.117 A 
HETATM   23  N   UNL     1     -41.831  59.692 -56.021  1.00  0.00    -0.271 NA
HETATM   24  C   UNL     1     -42.009  58.820 -55.001  1.00  0.00     0.146 A 
ENDBRANCH   1  18
TORSDOF 5
ENDMDL
MODEL 3
REMARK VINA RESULT:      -7.3      4.965      6.075
REMARK  5 active torsions:
REMARK  status: ('A' for Active; 'I' for Inactive)
REMARK    1  A    between atoms: C_3  and  N_4 
REMARK       I    between atoms: N_4  and  C_5 
REMARK       I    between atoms: C_5  and  N_6 
REMARK    2  A    between atoms: N_6  and  C_7 
REMARK    3  A    between atoms: C_7  and  C_8 
REMARK    4  A    between atoms: C_8  and  O_9 
REMARK    5  A    between atoms: O_9  and  C_10 
ROOT
HETATM    1  N   UNL     1     -42.849  56.573 -51.349  1.00  0.00    -0.307 N 
HETATM    2  C   UNL     1     -42.404  55.755 -52.343  1.00  0.00     0.320 C 
HETATM    3  N   UNL     1     -42.363  54.428 -52.026  1.00  0.00    -0.340 N 
HETATM    4  O   UNL     1     -42.102  56.092 -53.481  1.00  0.00    -0.247 OA
HETATM    5  H   UNL     1     -43.630  56.146 -50.866  1.00  0.00     0.170 HD
HETATM    6  H   UNL     1     -42.050  53.907 -52.836  1.00  0.00     0.164 HD
ENDROOT
BRANCH   3   7
HETATM    7  C   UNL     1     -42.041  53.810 -50.738  1.00  0.00     0.156 C 
BRANCH   7   8
HETATM    8  C   UNL     1     -40.565  53.466 -50.445  1.00  0.00     0.142 C 
HETATM    9  C   UNL     1     -39.919  54.626 -49.683  1.00  0.00     0.042 C 
BRANCH   8  10
HETATM   10  O   UNL     1     -39.901  53.275 -51.699  1.00  0.00    -0.343 OA
BRANCH  10  11
HETATM   11  C   UNL     1     -39.814  52.030 -52.258  1.00  0.00     0.091 A 
HETATM   12  C   UNL     1     -39.959  51.960 -53.655  1.00  0.00     0.067 A 
HETATM   13 CL   UNL     1     -40.210  53.384 -54.604  1.00  0.00    -0.081 Cl
HETATM   14  C   UNL     1     -39.895  50.733 -54.322  1.00  0.00     0.026 A 
HETATM   15  C   UNL     1     -39.694  49.560 -53.600  1.00  0.00     0.002 A 
HETATM   16  C   UNL     1     -39.560  49.616 -52.215  1.00  0.00     0.003 A 
HETATM   17  C   UNL     1     -39.620  50.843 -51.545  1.00  0.00     0.038 A 
ENDBRANCH  10  11
ENDBRANCH   8  10
ENDBRANCH   7   8
ENDBRANCH   3   7
BRANCH   1  18
HETATM   18  C   UNL     1     -42.826  57.987 -51.339  1.00  0.00     0.059 A 
HETATM   19  C   UNL     1     -41.724  58.794 -51.016  1.00  0.00    -0.032 A 
HETATM   20  C   UNL     1     -40.377  58.280 -50.594  1.00  0.00     0.050 C 
HETATM   21  C   UNL     1     -41.884  60.191 -51.080  1.00  0.00     0.028 A 
HETATM   22  C   UNL     1     -43.123  60.727 -51.391  1.00  0.00     0.117 A 
HETATM   23  N   UNL     1     -44.213  59.982 -51.644  1.00  0.00    -0.271 NA
HETATM   24  C   UNL     1     -44.034  58.640 -51.615  1.00  0.00     0.146 A 
ENDBRANCH   1  18
TORSDOF 5
ENDMDL
MODEL 4
REMARK VINA RESULT:      -7.3      1.580      2.467
REMARK  5 active torsions:
REMARK  status: ('A' for Active; 'I' for Inactive)
REMARK    1  A    between atoms: C_3  and  N_4 
REMARK       I    between atoms: N_4  and  C_5 
REMARK       I    between atoms: C_5  and  N_6 
REMARK    2  A    between atoms: N_6  and  C_7 
REMARK    3  A    between atoms: C_7  and  C_8 
REMARK    4  A    between atoms: C_8  and  O_9 
REMARK    5  A    between atoms: O_9  and  C_10 
ROOT
HETATM    1  N   UNL     1     -42.084  57.264 -56.958  1.00  0.00    -0.307 N 
HETATM    2  C   UNL     1     -43.154  56.891 -56.201  1.00  0.00     0.320 C 
HETATM    3  N   UNL     1     -42.881  55.979 -55.223  1.00  0.00    -0.340 N 
HETATM    4  O   UNL     1     -44.294  57.332 -56.285  1.00  0.00    -0.247 OA
HETATM    5  H   UNL     1     -41.265  57.382 -56.374  1.00  0.00     0.170 HD
HETATM    6  H   UNL     1     -43.729  55.792 -54.702  1.00  0.00     0.164 HD
ENDROOT
BRANCH   3   7
HETATM    7  C   UNL     1     -41.925  54.871 -55.253  1.00  0.00     0.156 C 
BRANCH   7   8
HETATM    8  C   UNL     1     -41.974  53.835 -54.109  1.00  0.00     0.142 C 
HETATM    9  C   UNL     1     -42.688  54.451 -52.903  1.00  0.00     0.042 C 
BRANCH   8  10
HETATM   10  O   UNL     1     -40.626  53.500 -53.761  1.00  0.00    -0.343 OA
BRANCH  10  11
HETATM   11  C   UNL     1     -40.286  52.213 -53.449  1.00  0.00     0.091 A 
HETATM   12  C   UNL     1     -39.879  51.977 -52.124  1.00  0.00     0.067 A 
HETATM   13 CL   UNL     1     -39.839  53.253 -50.956  1.00  0.00    -0.081 Cl
HETATM   14  C   UNL     1     -39.502  50.698 -51.707  1.00  0.00     0.026 A 
HETATM   15  C   UNL     1     -39.518  49.640 -52.611  1.00  0.00     0.002 A 
HETATM   16  C   UNL     1     -39.910  49.863 -53.929  1.00  0.00     0.003 A 
HETATM   17  C   UNL     1     -40.291  51.143 -54.348  1.00  0.00     0.038 A 
ENDBRANCH  10  11
ENDBRANCH   8  10
ENDBRANCH   7   8
ENDBRANCH   3   7
BRANCH   1  18
HETATM   18  C   UNL     1     -42.110  58.044 -58.137  1.00  0.00     0.059 A 
HETATM   19  C   UNL     1     -42.343  57.571 -59.437  1.00  0.00    -0.032 A 
HETATM   20  C   UNL     1     -42.579  56.133 -59.798  1.00  0.00     0.050 C 
HETATM   21  C   UNL     1     -42.350  58.504 -60.491  1.00  0.00     0.028 A 
HETATM   22  C   UNL     1     -42.066  59.835 -60.232  1.00  0.00     0.117 A 
HETATM   23  N   UNL     1     -41.777  60.308 -59.008  1.00  0.00    -0.271 NA
HETATM   24  C   UNL     1     -41.811  59.406 -57.999  1.00  0.00     0.146 A 
ENDBRANCH   1  18
TORSDOF 5
ENDMDL
MODEL 5
REMARK VINA RESULT:      -7.3      1.948      2.861
REMARK  5 active torsions:
REMARK  status: ('A' for Active; 'I' for Inactive)
REMARK    1  A    between atoms: C_3  and  N_4 
REMARK       I    between atoms: N_4  and  C_5 
REMARK       I    between atoms: C_5  and  N_6 
REMARK    2  A    between atoms: N_6  and  C_7 
REMARK    3  A    between atoms: C_7  and  C_8 
REMARK    4  A    between atoms: C_8  and  O_9 
REMARK    5  A    between atoms: O_9  and  C_10 
ROOT
HETATM    1  N   UNL     1     -42.809  56.245 -54.827  1.00  0.00    -0.307 N 
HETATM    2  C   UNL     1     -43.907  56.313 -54.023  1.00  0.00     0.320 C 
HETATM    3  N   UNL     1     -43.777  55.695 -52.812  1.00  0.00    -0.340 N 
HETATM    4  O   UNL     1     -44.949  56.910 -54.263  1.00  0.00    -0.247 OA
HETATM    5  H   UNL     1     -41.966  56.378 -54.282  1.00  0.00     0.170 HD
HETATM    6  H   UNL     1     -44.630  55.828 -52.283  1.00  0.00     0.164 HD
ENDROOT
BRANCH   3   7
HETATM    7  C   UNL     1     -43.040  54.472 -52.489  1.00  0.00     0.156 C 
BRANCH   7   8
HETATM    8  C   UNL     1     -41.842  54.578 -51.521  1.00  0.00     0.142 C 
HETATM    9  C   UNL     1     -41.755  56.008 -50.982  1.00  0.00     0.042 C 
BRANCH   8  10
HETATM   10  O   UNL     1     -40.655  54.259 -52.255  1.00  0.00    -0.343 OA
BRANCH  10  11
HETATM   11  C   UNL     1     -40.276  52.957 -52.434  1.00  0.00     0.091 A 
HETATM   12  C   UNL     1     -40.217  52.500 -53.763  1.00  0.00     0.067 A 
HETATM   13 CL   UNL     1     -40.583  53.548 -55.090  1.00  0.00    -0.081 Cl
HETATM   14  C   UNL     1     -39.850  51.183 -54.053  1.00  0.00     0.026 A 
HETATM   15  C   UNL     1     -39.545  50.304 -53.017  1.00  0.00     0.002 A 
HETATM   16  C   UNL     1     -39.610  50.742 -51.697  1.00  0.00     0.003 A 
HETATM   17  C   UNL     1     -39.975  52.061 -51.404  1.00  0.00     0.038 A 
ENDBRANCH  10  11
ENDBRANCH   8  10
ENDBRANCH   7   8
ENDBRANCH   3   7
BRANCH   1  18
HETATM   18  C   UNL     1     -42.726  56.635 -56.183  1.00  0.00     0.059 A 
HETATM   19  C   UNL     1     -42.465  57.930 -56.657  1.00  0.00    -0.032 A 
HETATM   20  C   UNL     1     -42.255  59.136 -55.788  1.00  0.00     0.050 C 
HETATM   21  C   UNL     1     -42.401  58.126 -58.049  1.00  0.00     0.028 A 
HETATM   22  C   UNL     1     -42.658  57.067 -58.905  1.00  0.00     0.117 A 
HETATM   23  N   UNL     1     -42.973  55.830 -58.482  1.00  0.00    -0.271 NA
HETATM   24  C   UNL     1     -42.994  55.649 -57.141  1.00  0.00     0.146 A 
ENDBRANCH   1  18
TORSDOF 5
ENDMDL
MODEL 6
REMARK VINA RESULT:      -7.2      2.526      3.797
REMARK  5 active torsions:
REMARK  status: ('A' for Active; 'I' for Inactive)
REMARK    1  A    between atoms: C_3  and  N_4 
REMARK       I    between atoms: N_4  and  C_5 
REMARK       I    between atoms: C_5  and  N_6 
REMARK    2  A    between atoms: N_6  and  C_7 
REMARK    3  A    between atoms: C_7  and  C_8 
REMARK    4  A    between atoms: C_8  and  O_9 
REMARK    5  A    between atoms: O_9  and  C_10 
ROOT
HETATM    1  N   UNL     1     -41.811  56.177 -53.461  1.00  0.00    -0.307 N 
HETATM    2  C   UNL     1     -42.605  55.879 -52.395  1.00  0.00     0.320 C 
HETATM    3  N   UNL     1     -41.938  55.534 -51.255  1.00  0.00    -0.340 N 
HETATM    4  O   UNL     1     -43.828  55.946 -52.358  1.00  0.00    -0.247 OA
HETATM    5  H   UNL     1     -41.011  56.722 -53.162  1.00  0.00     0.170 HD
HETATM    6  H   UNL     1     -42.613  55.362 -50.519  1.00  0.00     0.164 HD
ENDROOT
BRANCH   3   7
HETATM    7  C   UNL     1     -40.686  54.787 -51.124  1.00  0.00     0.156 C 
BRANCH   7   8
HETATM    8  C   UNL     1     -40.749  53.357 -50.546  1.00  0.00     0.142 C 
HETATM    9  C   UNL     1     -40.663  53.426 -49.020  1.00  0.00     0.042 C 
BRANCH   8  10
HETATM   10  O   UNL     1     -39.634  52.624 -51.066  1.00  0.00    -0.343 OA
BRANCH  10  11
HETATM   11  C   UNL     1     -39.768  51.854 -52.189  1.00  0.00     0.091 A 
HETATM   12  C   UNL     1     -39.642  50.465 -52.013  1.00  0.00     0.067 A 
HETATM   13 CL   UNL     1     -39.357  49.779 -50.451  1.00  0.00    -0.081 Cl
HETATM   14  C   UNL     1     -39.753  49.592 -53.099  1.00  0.00     0.026 A 
HETATM   15  C   UNL     1     -39.983  50.098 -54.376  1.00  0.00     0.002 A 
HETATM   16  C   UNL     1     -40.098  51.473 -54.563  1.00  0.00     0.003 A 
HETATM   17  C   UNL     1     -39.991  52.349 -53.477  1.00  0.00     0.038 A 
ENDBRANCH  10  11
ENDBRANCH   8  10
ENDBRANCH   7   8
ENDBRANCH   3   7
BRANCH   1  18
HETATM   18  C   UNL     1     -42.227  56.389 -54.796  1.00  0.00     0.059 A 
HETATM   19  C   UNL     1     -42.680  55.404 -55.688  1.00  0.00    -0.032 A 
HETATM   20  C   UNL     1     -42.771  53.938 -55.373  1.00  0.00     0.050 C 
HETATM   21  C   UNL     1     -43.072  55.807 -56.977  1.00  0.00     0.028 A 
HETATM   22  C   UNL     1     -42.941  57.134 -57.352  1.00  0.00     0.117 A 
HETATM   23  N   UNL     1     -42.452  58.090 -56.542  1.00  0.00    -0.271 NA
HETATM   24  C   UNL     1     -42.115  57.693 -55.293  1.00  0.00     0.146 A 
ENDBRANCH   1  18
TORSDOF 5
ENDMDL
MODEL 7
REMARK VINA RESULT:      -7.2      1.980      2.551
REMARK  5 active torsions:
REMARK  status: ('A' for Active; 'I' for Inactive)
REMARK    1  A    between atoms: C_3  and  N_4 
REMARK       I    between atoms: N_4  and  C_5 
REMARK       I    between atoms: C_5  and  N_6 
REMARK    2  A    between atoms: N_6  and  C_7 
REMARK    3  A    between atoms: C_7  and  C_8 
REMARK    4  A    between atoms: C_8  and  O_9 
REMARK    5  A    between atoms: O_9  and  C_10 
ROOT
HETATM    1  N   UNL     1     -44.089  56.425 -58.128  1.00  0.00    -0.307 N 
HETATM    2  C   UNL     1     -42.859  57.009 -58.129  1.00  0.00     0.320 C 
HETATM    3  N   UNL     1     -42.073  56.705 -57.055  1.00  0.00    -0.340 N 
HETATM    4  O   UNL     1     -42.390  57.717 -59.012  1.00  0.00    -0.247 OA
HETATM    5  H   UNL     1     -44.023  55.466 -57.808  1.00  0.00     0.170 HD
HETATM    6  H   UNL     1     -41.175  57.162 -57.166  1.00  0.00     0.164 HD
ENDROOT
BRANCH   3   7
HETATM    7  C   UNL     1     -42.477  56.478 -55.666  1.00  0.00     0.156 C 
BRANCH   7   8
HETATM    8  C   UNL     1     -42.317  55.057 -55.084  1.00  0.00     0.142 C 
HETATM    9  C   UNL     1     -43.595  54.672 -54.337  1.00  0.00     0.042 C 
BRANCH   8  10
HETATM   10  O   UNL     1     -41.208  55.076 -54.179  1.00  0.00    -0.343 OA
BRANCH  10  11
HETATM   11  C   UNL     1     -40.694  53.910 -53.681  1.00  0.00     0.091 A 
HETATM   12  C   UNL     1     -40.592  53.820 -52.282  1.00  0.00     0.067 A 
HETATM   13 CL   UNL     1     -41.114  55.112 -51.257  1.00  0.00    -0.081 Cl
HETATM   14  C   UNL     1     -40.071  52.674 -51.673  1.00  0.00     0.026 A 
HETATM   15  C   UNL     1     -39.639  51.608 -52.457  1.00  0.00     0.002 A 
HETATM   16  C   UNL     1     -39.726  51.691 -53.845  1.00  0.00     0.003 A 
HETATM   17  C   UNL     1     -40.250  52.836 -54.456  1.00  0.00     0.038 A 
ENDBRANCH  10  11
ENDBRANCH   8  10
ENDBRANCH   7   8
ENDBRANCH   3   7
BRANCH   1  18
HETATM   18  C   UNL     1     -45.160  56.700 -59.010  1.00  0.00     0.059 A 
HETATM   19  C   UNL     1     -45.562  55.907 -60.095  1.00  0.00    -0.032 A 
HETATM   20  C   UNL     1     -44.894  54.631 -60.521  1.00  0.00     0.050 C 
HETATM   21  C   UNL     1     -46.668  56.333 -60.854  1.00  0.00     0.028 A 
HETATM   22  C   UNL     1     -47.281  57.540 -60.557  1.00  0.00     0.117 A 
HETATM   23  N   UNL     1     -46.880  58.352 -59.563  1.00  0.00    -0.271 NA
HETATM   24  C   UNL     1     -45.839  57.910 -58.819  1.00  0.00     0.146 A 
ENDBRANCH   1  18
TORSDOF 5
ENDMDL
MODEL 8
REMARK VINA RESULT:      -7.2      2.687      3.581
REMARK  5 active torsions:
REMARK  status: ('A' for Active; 'I' for Inactive)
REMARK    1  A    between atoms: C_3  and  N_4 
REMARK       I    between atoms: N_4  and  C_5 
REMARK       I    between atoms: C_5  and  N_6 
REMARK    2  A    between atoms: N_6  and  C_7 
REMARK    3  A    between atoms: C_7  and  C_8 
REMARK    4  A    between atoms: C_8  and  O_9 
REMARK    5  A    between atoms: O_9  and  C_10 
ROOT
HETATM    1  N   UNL     1     -43.015  57.959 -54.318  1.00  0.00    -0.307 N 
HETATM    2  C   UNL     1     -44.248  57.504 -53.962  1.00  0.00     0.320 C 
HETATM    3  N   UNL     1     -44.338  57.011 -52.692  1.00  0.00    -0.340 N 
HETATM    4  O   UNL     1     -45.265  57.550 -54.643  1.00  0.00    -0.247 OA
HETATM    5  H   UNL     1     -42.592  58.466 -53.550  1.00  0.00     0.170 HD
HETATM    6  H   UNL     1     -45.295  56.728 -52.517  1.00  0.00     0.164 HD
ENDROOT
BRANCH   3   7
HETATM    7  C   UNL     1     -43.332  56.268 -51.931  1.00  0.00     0.156 C 
BRANCH   7   8
HETATM    8  C   UNL     1     -42.963  54.846 -52.406  1.00  0.00     0.142 C 
HETATM    9  C   UNL     1     -43.543  53.822 -51.428  1.00  0.00     0.042 C 
BRANCH   8  10
HETATM   10  O   UNL     1     -41.534  54.748 -52.426  1.00  0.00    -0.343 OA
BRANCH  10  11
HETATM   11  C   UNL     1     -40.921  53.577 -52.779  1.00  0.00     0.091 A 
HETATM   12  C   UNL     1     -40.080  52.996 -51.814  1.00  0.00     0.067 A 
HETATM   13 CL   UNL     1     -39.861  53.722 -50.259  1.00  0.00    -0.081 Cl
HETATM   14  C   UNL     1     -39.400  51.804 -52.079  1.00  0.00     0.026 A 
HETATM   15  C   UNL     1     -39.546  51.183 -53.317  1.00  0.00     0.002 A 
HETATM   16  C   UNL     1     -40.368  51.755 -54.284  1.00  0.00     0.003 A 
HETATM   17  C   UNL     1     -41.052  52.947 -54.019  1.00  0.00     0.038 A 
ENDBRANCH  10  11
ENDBRANCH   8  10
ENDBRANCH   7   8
ENDBRANCH   3   7
BRANCH   1  18
HETATM   18  C   UNL     1     -42.596  58.351 -55.611  1.00  0.00     0.059 A 
HETATM   19  C   UNL     1     -42.497  57.519 -56.736  1.00  0.00    -0.032 A 
HETATM   20  C   UNL     1     -42.797  56.047 -56.745  1.00  0.00     0.050 C 
HETATM   21  C   UNL     1     -42.078  58.093 -57.951  1.00  0.00     0.028 A 
HETATM   22  C   UNL     1     -41.715  59.430 -57.990  1.00  0.00     0.117 A 
HETATM   23  N   UNL     1     -41.739  60.238 -56.915  1.00  0.00    -0.271 NA
HETATM   24  C   UNL     1     -42.181  59.680 -55.763  1.00  0.00     0.146 A 
ENDBRANCH   1  18
TORSDOF 5
ENDMDL
MODEL 9
REMARK VINA RESULT:      -6.9      4.598      6.175
REMARK  5 active torsions:
REMARK  status: ('A' for Active; 'I' for Inactive)
REMARK    1  A    between atoms: C_3  and  N_4 
REMARK       I    between atoms: N_4  and  C_5 
REMARK       I    between atoms: C_5  and  N_6 
REMARK    2  A    between atoms: N_6  and  C_7 
REMARK    3  A    between atoms: C_7  and  C_8 
REMARK    4  A    between atoms: C_8  and  O_9 
REMARK    5  A    between atoms: O_9  and  C_10 
ROOT
HETATM    1  N   UNL     1     -43.814  58.602 -50.965  1.00  0.00    -0.307 N 
HETATM    2  C   UNL     1     -43.995  57.266 -50.764  1.00  0.00     0.320 C 
HETATM    3  N   UNL     1     -42.848  56.532 -50.686  1.00  0.00    -0.340 N 
HETATM    4  O   UNL     1     -45.066  56.695 -50.596  1.00  0.00    -0.247 OA
HETATM    5  H   UNL     1     -43.038  58.938 -50.408  1.00  0.00     0.170 HD
HETATM    6  H   UNL     1     -43.089  55.564 -50.507  1.00  0.00     0.164 HD
ENDROOT
BRANCH   3   7
HETATM    7  C   UNL     1     -41.592  56.725 -51.413  1.00  0.00     0.156 C 
BRANCH   7   8
HETATM    8  C   UNL     1     -41.341  55.867 -52.673  1.00  0.00     0.142 C 
HETATM    9  C   UNL     1     -42.092  56.480 -53.857  1.00  0.00     0.042 C 
BRANCH   8  10
HETATM   10  O   UNL     1     -41.834  54.548 -52.410  1.00  0.00    -0.343 OA
BRANCH  10  11
HETATM   11  C   UNL     1     -41.106  53.448 -52.772  1.00  0.00     0.091 A 
HETATM   12  C   UNL     1     -40.301  52.874 -51.772  1.00  0.00     0.067 A 
HETATM   13 CL   UNL     1     -40.262  53.522 -50.169  1.00  0.00    -0.081 Cl
HETATM   14  C   UNL     1     -39.512  51.753 -52.042  1.00  0.00     0.026 A 
HETATM   15  C   UNL     1     -39.512  51.196 -53.318  1.00  0.00     0.002 A 
HETATM   16  C   UNL     1     -40.297  51.762 -54.319  1.00  0.00     0.003 A 
HETATM   17  C   UNL     1     -41.090  52.883 -54.050  1.00  0.00     0.038 A 
ENDBRANCH  10  11
ENDBRANCH   8  10
ENDBRANCH   7   8
ENDBRANCH   3   7
BRANCH   1  18
HETATM   18  C   UNL     1     -44.812  59.559 -51.260  1.00  0.00     0.059 A 
HETATM   19  C   UNL     1     -45.310  59.869 -52.535  1.00  0.00    -0.032 A 
HETATM   20  C   UNL     1     -44.836  59.246 -53.817  1.00  0.00     0.050 C 
HETATM   21  C   UNL     1     -46.322  60.841 -52.633  1.00  0.00     0.028 A 
HETATM   22  C   UNL     1     -46.750  61.505 -51.495  1.00  0.00     0.117 A 
HETATM   23  N   UNL     1     -46.249  61.276 -50.268  1.00  0.00    -0.271 NA
HETATM   24  C   UNL     1     -45.302  60.311 -50.185  1.00  0.00     0.146 A 
ENDBRANCH   1  18
TORSDOF 5
ENDMDL
MODEL 10
REMARK VINA RESULT:      -6.8      4.134      7.372
REMARK  5 active torsions:
REMARK  status: ('A' for Active; 'I' for Inactive)
REMARK    1  A    between atoms: C_3  and  N_4 
REMARK       I    between atoms: N_4  and  C_5 
REMARK       I    between atoms: C_5  and  N_6 
REMARK    2  A    between atoms: N_6  and  C_7 
REMARK    3  A    between atoms: C_7  and  C_8 
REMARK    4  A    between atoms: C_8  and  O_9 
REMARK    5  A    between atoms: O_9  and  C_10 
ROOT
HETATM    1  N   UNL     1     -41.128  54.801 -51.916  1.00  0.00    -0.307 N 
HETATM    2  C   UNL     1     -41.991  54.939 -50.870  1.00  0.00     0.320 C 
HETATM    3  N   UNL     1     -42.085  56.202 -50.361  1.00  0.00    -0.340 N 
HETATM    4  O   UNL     1     -42.709  54.066 -50.400  1.00  0.00    -0.247 OA
HETATM    5  H   UNL     1     -41.207  55.592 -52.543  1.00  0.00     0.170 HD
HETATM    6  H   UNL     1     -42.768  56.205 -49.613  1.00  0.00     0.164 HD
ENDROOT
BRANCH   3   7
HETATM    7  C   UNL     1     -41.032  57.212 -50.231  1.00  0.00     0.156 C 
BRANCH   7   8
HETATM    8  C   UNL     1     -40.961  58.330 -51.294  1.00  0.00     0.142 C 
HETATM    9  C   UNL     1     -40.368  59.590 -50.661  1.00  0.00     0.042 C 
BRANCH   8  10
HETATM   10  O   UNL     1     -42.295  58.591 -51.746  1.00  0.00    -0.343 OA
BRANCH  10  11
HETATM   11  C   UNL     1     -42.728  58.113 -52.952  1.00  0.00     0.091 A 
HETATM   12  C   UNL     1     -44.053  57.644 -52.999  1.00  0.00     0.067 A 
HETATM   13 CL   UNL     1     -45.075  57.698 -51.605  1.00  0.00    -0.081 Cl
HETATM   14  C   UNL     1     -44.589  57.126 -54.181  1.00  0.00     0.026 A 
HETATM   15  C   UNL     1     -43.804  57.063 -55.330  1.00  0.00     0.002 A 
HETATM   16  C   UNL     1     -42.487  57.515 -55.292  1.00  0.00     0.003 A 
HETATM   17  C   UNL     1     -41.949  58.036 -54.110  1.00  0.00     0.038 A 
ENDBRANCH  10  11
ENDBRANCH   8  10
ENDBRANCH   7   8
ENDBRANCH   3   7
BRANCH   1  18
HETATM   18  C   UNL     1     -40.705  53.591 -52.512  1.00  0.00     0.059 A 
HETATM   19  C   UNL     1     -41.092  53.110 -53.773  1.00  0.00    -0.032 A 
HETATM   20  C   UNL     1     -42.055  53.799 -54.696  1.00  0.00     0.050 C 
HETATM   21  C   UNL     1     -40.550  51.887 -54.211  1.00  0.00     0.028 A 
HETATM   22  C   UNL     1     -39.713  51.167 -53.373  1.00  0.00     0.117 A 
HETATM   23  N   UNL     1     -39.374  51.570 -52.137  1.00  0.00    -0.271 NA
HETATM   24  C   UNL     1     -39.873  52.766 -51.745  1.00  0.00     0.146 A 
ENDBRANCH   1  18
TORSDOF 5
ENDMDL
