MODEL 1
REMARK VINA RESULT:      -7.8      0.000      0.000
REMARK  8 active torsions:
REMARK  status: ('A' for Active; 'I' for Inactive)
REMARK    1  A    between atoms: C_2  and  C_3 
REMARK    2  A    between atoms: C_3  and  C_4 
REMARK    3  A    between atoms: C_8  and  C_9 
REMARK       I    between atoms: C_9  and  N_10 
REMARK    4  A    between atoms: N_10  and  C_11 
REMARK    5  A    between atoms: N_10  and  C_17 
REMARK    6  A    between atoms: C_17  and  C_18 
REMARK    7  A    between atoms: C_18  and  O_19 
REMARK    8  A    between atoms: C_18  and  C_20 
ROOT
HETATM    1  C   UNL     1     -41.571  56.340 -50.603  1.00  0.00     0.272 C 
HETATM    2  N   UNL     1     -41.690  55.484 -51.717  1.00  0.00    -0.339 N 
HETATM    3  O   UNL     1     -41.399  55.865 -49.479  1.00  0.00    -0.266 OA
ENDROOT
BRANCH   2   4
HETATM    4  C   UNL     1     -42.039  55.943 -53.089  1.00  0.00     0.087 C 
HETATM    5  C   UNL     1     -40.791  56.216 -53.945  1.00  0.00     0.025 C 
HETATM    6  C   UNL     1     -40.350  55.050 -54.821  1.00  0.00     0.002 C 
HETATM    7  C   UNL     1     -41.502  54.525 -55.663  1.00  0.00     0.000 C 
HETATM    8  C   UNL     1     -42.636  54.037 -54.777  1.00  0.00     0.002 C 
HETATM    9  C   UNL     1     -43.128  55.117 -53.812  1.00  0.00     0.025 C 
ENDBRANCH   2   4
BRANCH   2  10
HETATM   10  C   UNL     1     -41.577  54.040 -51.422  1.00  0.00     0.163 C 
BRANCH  10  11
HETATM   11  C   UNL     1     -40.127  53.518 -51.241  1.00  0.00     0.169 C 
BRANCH  11  12
HETATM   12  O   UNL     1     -39.717  53.407 -49.878  1.00  0.00    -0.389 OA
HETATM   13  H   UNL     1     -39.115  54.151 -49.678  1.00  0.00     0.210 HD
ENDBRANCH  11  12
BRANCH  11  14
HETATM   14  C   UNL     1     -39.959  52.146 -51.865  1.00  0.00    -0.028 A 
HETATM   15  C   UNL     1     -39.986  51.985 -53.258  1.00  0.00     0.010 A 
HETATM   16  C   UNL     1     -39.839  50.718 -53.829  1.00  0.00     0.001 A 
HETATM   17  C   UNL     1     -39.663  49.598 -53.018  1.00  0.00     0.000 A 
HETATM   18  C   UNL     1     -39.624  49.744 -51.633  1.00  0.00     0.001 A 
HETATM   19  C   UNL     1     -39.763  51.009 -51.061  1.00  0.00     0.010 A 
ENDBRANCH  11  14
ENDBRANCH  10  11
ENDBRANCH   2  10
BRANCH   1  20
HETATM   20  C   UNL     1     -41.673  57.764 -50.777  1.00  0.00     0.119 A 
HETATM   21  N   UNL     1     -40.734  58.692 -50.427  1.00  0.00    -0.273 N 
HETATM   22  N   UNL     1     -41.092  59.960 -50.693  1.00  0.00    -0.179 NA
HETATM   23  H   UNL     1     -39.829  58.533 -50.001  1.00  0.00     0.189 HD
HETATM   24  C   UNL     1     -42.353  59.853 -51.132  1.00  0.00     0.057 A 
HETATM   25  C   UNL     1     -42.765  58.503 -51.188  1.00  0.00     0.065 A 
BRANCH  24  26
HETATM   26  C   UNL     1     -43.152  61.063 -51.479  1.00  0.00     0.061 C 
BRANCH  26  27
HETATM   27  C   UNL     1     -43.289  62.021 -50.294  1.00  0.00     0.002 C 
HETATM   28  C   UNL     1     -44.201  61.453 -49.218  1.00  0.00     0.005 C 
ENDBRANCH  26  27
ENDBRANCH  24  26
ENDBRANCH   1  20
TORSDOF 8
ENDMDL
MODEL 2
REMARK VINA RESULT:      -7.2     15.462     17.424
REMARK  8 active torsions:
REMARK  status: ('A' for Active; 'I' for Inactive)
REMARK    1  A    between atoms: C_2  and  C_3 
REMARK    2  A    between atoms: C_3  and  C_4 
REMARK    3  A    between atoms: C_8  and  C_9 
REMARK       I    between atoms: C_9  and  N_10 
REMARK    4  A    between atoms: N_10  and  C_11 
REMARK    5  A    between atoms: N_10  and  C_17 
REMARK    6  A    between atoms: C_17  and  C_18 
REMARK    7  A    between atoms: C_18  and  O_19 
REMARK    8  A    between atoms: C_18  and  C_20 
ROOT
HETATM    1  C   UNL     1     -35.679  41.446 -52.776  1.00  0.00     0.272 C 
HETATM    2  N   UNL     1     -35.455  41.133 -54.133  1.00  0.00    -0.339 N 
HETATM    3  O   UNL     1     -36.522  42.293 -52.473  1.00  0.00    -0.266 OA
ENDROOT
BRANCH   2   4
HETATM    4  C   UNL     1     -34.370  40.235 -54.614  1.00  0.00     0.087 C 
HETATM    5  C   UNL     1     -34.805  38.761 -54.639  1.00  0.00     0.025 C 
HETATM    6  C   UNL     1     -35.330  38.273 -55.983  1.00  0.00     0.002 C 
HETATM    7  C   UNL     1     -34.354  38.588 -57.106  1.00  0.00     0.000 C 
HETATM    8  C   UNL     1     -34.124  40.086 -57.213  1.00  0.00     0.002 C 
HETATM    9  C   UNL     1     -33.641  40.698 -55.896  1.00  0.00     0.025 C 
ENDBRANCH   2   4
BRANCH   2  10
HETATM   10  C   UNL     1     -36.296  41.867 -55.101  1.00  0.00     0.163 C 
BRANCH  10  11
HETATM   11  C   UNL     1     -37.549  41.098 -55.598  1.00  0.00     0.169 C 
BRANCH  11  12
HETATM   12  O   UNL     1     -38.787  41.684 -55.198  1.00  0.00    -0.389 OA
HETATM   13  H   UNL     1     -39.350  40.981 -54.816  1.00  0.00     0.210 HD
ENDBRANCH  11  12
BRANCH  11  14
HETATM   14  C   UNL     1     -37.572  41.013 -57.113  1.00  0.00    -0.028 A 
HETATM   15  C   UNL     1     -38.076  39.876 -57.759  1.00  0.00     0.010 A 
HETATM   16  C   UNL     1     -38.088  39.799 -59.155  1.00  0.00     0.001 A 
HETATM   17  C   UNL     1     -37.596  40.855 -59.920  1.00  0.00     0.000 A 
HETATM   18  C   UNL     1     -37.101  41.995 -59.293  1.00  0.00     0.001 A 
HETATM   19  C   UNL     1     -37.096  42.077 -57.899  1.00  0.00     0.010 A 
ENDBRANCH  11  14
ENDBRANCH  10  11
ENDBRANCH   2  10
BRANCH   1  20
HETATM   20  C   UNL     1     -34.910  40.795 -51.752  1.00  0.00     0.119 A 
HETATM   21  N   UNL     1     -35.354  39.828 -50.895  1.00  0.00    -0.273 N 
HETATM   22  N   UNL     1     -34.425  39.398 -50.025  1.00  0.00    -0.179 NA
HETATM   23  H   UNL     1     -36.279  39.416 -50.847  1.00  0.00     0.189 HD
HETATM   24  C   UNL     1     -33.373  40.193 -50.259  1.00  0.00     0.057 A 
HETATM   25  C   UNL     1     -33.632  41.092 -51.317  1.00  0.00     0.065 A 
BRANCH  24  26
HETATM   26  C   UNL     1     -32.130  40.084 -49.441  1.00  0.00     0.061 C 
BRANCH  26  27
HETATM   27  C   UNL     1     -32.271  39.062 -48.312  1.00  0.00     0.002 C 
HETATM   28  C   UNL     1     -31.232  39.283 -47.225  1.00  0.00     0.005 C 
ENDBRANCH  26  27
ENDBRANCH  24  26
ENDBRANCH   1  20
TORSDOF 8
ENDMDL
MODEL 3
REMARK VINA RESULT:      -7.1      2.859      4.007
REMARK  8 active torsions:
REMARK  status: ('A' for Active; 'I' for Inactive)
REMARK    1  A    between atoms: C_2  and  C_3 
REMARK    2  A    between atoms: C_3  and  C_4 
REMARK    3  A    between atoms: C_8  and  C_9 
REMARK       I    between atoms: C_9  and  N_10 
REMARK    4  A    between atoms: N_10  and  C_11 
REMARK    5  A    between atoms: N_10  and  C_17 
REMARK    6  A    between atoms: C_17  and  C_18 
REMARK    7  A    between atoms: C_18  and  O_19 
REMARK    8  A    between atoms: C_18  and  C_20 
ROOT
HETATM    1  C   UNL     1     -42.235  56.399 -54.610  1.00  0.00     0.272 C 
HETATM    2  N   UNL     1     -41.833  55.753 -53.423  1.00  0.00    -0.339 N 
HETATM    3  O   UNL     1     -41.595  56.227 -55.649  1.00  0.00    -0.266 OA
ENDROOT
BRANCH   2   4
HETATM    4  C   UNL     1     -42.446  56.000 -52.089  1.00  0.00     0.087 C 
HETATM    5  C   UNL     1     -43.245  54.787 -51.585  1.00  0.00     0.025 C 
HETATM    6  C   UNL     1     -42.470  53.848 -50.669  1.00  0.00     0.002 C 
HETATM    7  C   UNL     1     -41.819  54.606 -49.523  1.00  0.00     0.000 C 
HETATM    8  C   UNL     1     -40.846  55.646 -50.051  1.00  0.00     0.002 C 
HETATM    9  C   UNL     1     -41.508  56.620 -51.029  1.00  0.00     0.025 C 
ENDBRANCH   2   4
BRANCH   2  10
HETATM   10  C   UNL     1     -40.644  54.884 -53.545  1.00  0.00     0.163 C 
BRANCH  10  11
HETATM   11  C   UNL     1     -40.831  53.638 -54.452  1.00  0.00     0.169 C 
BRANCH  11  12
HETATM   12  O   UNL     1     -40.121  53.708 -55.688  1.00  0.00    -0.389 OA
HETATM   13  H   UNL     1     -39.170  53.571 -55.503  1.00  0.00     0.210 HD
ENDBRANCH  11  12
BRANCH  11  14
HETATM   14  C   UNL     1     -40.367  52.376 -53.748  1.00  0.00    -0.028 A 
HETATM   15  C   UNL     1     -39.976  52.410 -52.402  1.00  0.00     0.010 A 
HETATM   16  C   UNL     1     -39.542  51.247 -51.760  1.00  0.00     0.001 A 
HETATM   17  C   UNL     1     -39.492  50.039 -52.453  1.00  0.00     0.000 A 
HETATM   18  C   UNL     1     -39.886  49.988 -53.788  1.00  0.00     0.001 A 
HETATM   19  C   UNL     1     -40.327  51.147 -54.429  1.00  0.00     0.010 A 
ENDBRANCH  11  14
ENDBRANCH  10  11
ENDBRANCH   2  10
BRANCH   1  20
HETATM   20  C   UNL     1     -43.376  57.273 -54.601  1.00  0.00     0.119 A 
HETATM   21  N   UNL     1     -44.614  56.995 -55.108  1.00  0.00    -0.273 N 
HETATM   22  N   UNL     1     -45.498  58.000 -54.976  1.00  0.00    -0.179 NA
HETATM   23  H   UNL     1     -44.926  56.143 -55.559  1.00  0.00     0.189 HD
HETATM   24  C   UNL     1     -44.772  59.001 -54.461  1.00  0.00     0.057 A 
HETATM   25  C   UNL     1     -43.439  58.601 -54.224  1.00  0.00     0.065 A 
BRANCH  24  26
HETATM   26  C   UNL     1     -45.376  60.343 -54.219  1.00  0.00     0.061 C 
BRANCH  26  27
HETATM   27  C   UNL     1     -45.300  60.750 -52.746  1.00  0.00     0.002 C 
HETATM   28  C   UNL     1     -46.638  60.574 -52.047  1.00  0.00     0.005 C 
ENDBRANCH  26  27
ENDBRANCH  24  26
ENDBRANCH   1  20
TORSDOF 8
ENDMDL
MODEL 4
REMARK VINA RESULT:      -7.1      3.610      5.291
REMARK  8 active torsions:
REMARK  status: ('A' for Active; 'I' for Inactive)
REMARK    1  A    between atoms: C_2  and  C_3 
REMARK    2  A    between atoms: C_3  and  C_4 
REMARK    3  A    between atoms: C_8  and  C_9 
REMARK       I    between atoms: C_9  and  N_10 
REMARK    4  A    between atoms: N_10  and  C_11 
REMARK    5  A    between atoms: N_10  and  C_17 
REMARK    6  A    between atoms: C_17  and  C_18 
REMARK    7  A    between atoms: C_18  and  O_19 
REMARK    8  A    between atoms: C_18  and  C_20 
ROOT
HETATM    1  C   UNL     1     -44.234  57.237 -54.091  1.00  0.00     0.272 C 
HETATM    2  N   UNL     1     -43.403  56.109 -53.930  1.00  0.00    -0.339 N 
HETATM    3  O   UNL     1     -44.833  57.702 -53.120  1.00  0.00    -0.266 OA
ENDROOT
BRANCH   2   4
HETATM    4  C   UNL     1     -42.748  55.387 -55.055  1.00  0.00     0.087 C 
HETATM    5  C   UNL     1     -41.309  55.870 -55.295  1.00  0.00     0.025 C 
HETATM    6  C   UNL     1     -40.234  55.045 -54.597  1.00  0.00     0.002 C 
HETATM    7  C   UNL     1     -40.387  53.564 -54.906  1.00  0.00     0.000 C 
HETATM    8  C   UNL     1     -41.740  53.055 -54.438  1.00  0.00     0.002 C 
HETATM    9  C   UNL     1     -42.901  53.849 -55.038  1.00  0.00     0.025 C 
ENDBRANCH   2   4
BRANCH   2  10
HETATM   10  C   UNL     1     -43.315  55.578 -52.554  1.00  0.00     0.163 C 
BRANCH  10  11
HETATM   11  C   UNL     1     -42.231  56.240 -51.662  1.00  0.00     0.169 C 
BRANCH  11  12
HETATM   12  O   UNL     1     -42.725  57.292 -50.833  1.00  0.00    -0.389 OA
HETATM   13  H   UNL     1     -42.600  58.138 -51.306  1.00  0.00     0.210 HD
ENDBRANCH  11  12
BRANCH  11  14
HETATM   14  C   UNL     1     -41.584  55.221 -50.742  1.00  0.00    -0.028 A 
HETATM   15  C   UNL     1     -41.202  53.962 -51.225  1.00  0.00     0.010 A 
HETATM   16  C   UNL     1     -40.614  53.023 -50.373  1.00  0.00     0.001 A 
HETATM   17  C   UNL     1     -40.400  53.331 -49.030  1.00  0.00     0.000 A 
HETATM   18  C   UNL     1     -40.766  54.581 -48.539  1.00  0.00     0.001 A 
HETATM   19  C   UNL     1     -41.347  55.523 -49.390  1.00  0.00     0.010 A 
ENDBRANCH  11  14
ENDBRANCH  10  11
ENDBRANCH   2  10
BRANCH   1  20
HETATM   20  C   UNL     1     -44.396  57.830 -55.390  1.00  0.00     0.119 A 
HETATM   21  N   UNL     1     -45.377  57.541 -56.296  1.00  0.00    -0.273 N 
HETATM   22  N   UNL     1     -45.286  58.238 -57.442  1.00  0.00    -0.179 NA
HETATM   23  H   UNL     1     -46.138  56.879 -56.200  1.00  0.00     0.189 HD
HETATM   24  C   UNL     1     -44.143  58.923 -57.313  1.00  0.00     0.057 A 
HETATM   25  C   UNL     1     -43.543  58.690 -56.056  1.00  0.00     0.065 A 
BRANCH  24  26
HETATM   26  C   UNL     1     -43.634  59.786 -58.417  1.00  0.00     0.061 C 
BRANCH  26  27
HETATM   27  C   UNL     1     -42.217  59.398 -58.844  1.00  0.00     0.002 C 
HETATM   28  C   UNL     1     -42.215  58.672 -60.180  1.00  0.00     0.005 C 
ENDBRANCH  26  27
ENDBRANCH  24  26
ENDBRANCH   1  20
TORSDOF 8
ENDMDL
MODEL 5
REMARK VINA RESULT:      -7.0      3.833      5.726
REMARK  8 active torsions:
REMARK  status: ('A' for Active; 'I' for Inactive)
REMARK    1  A    between atoms: C_2  and  C_3 
REMARK    2  A    between atoms: C_3  and  C_4 
REMARK    3  A    between atoms: C_8  and  C_9 
REMARK       I    between atoms: C_9  and  N_10 
REMARK    4  A    between atoms: N_10  and  C_11 
REMARK    5  A    between atoms: N_10  and  C_17 
REMARK    6  A    between atoms: C_17  and  C_18 
REMARK    7  A    between atoms: C_18  and  O_19 
REMARK    8  A    between atoms: C_18  and  C_20 
ROOT
HETATM    1  C   UNL     1     -42.149  56.187 -55.773  1.00  0.00     0.272 C 
HETATM    2  N   UNL     1     -41.708  56.615 -54.505  1.00  0.00    -0.339 N 
HETATM    3  O   UNL     1     -41.792  55.091 -56.210  1.00  0.00    -0.266 OA
ENDROOT
BRANCH   2   4
HETATM    4  C   UNL     1     -41.962  57.971 -53.946  1.00  0.00     0.087 C 
HETATM    5  C   UNL     1     -43.164  57.987 -52.987  1.00  0.00     0.025 C 
HETATM    6  C   UNL     1     -42.808  57.826 -51.514  1.00  0.00     0.002 C 
HETATM    7  C   UNL     1     -41.741  58.823 -51.091  1.00  0.00     0.000 C 
HETATM    8  C   UNL     1     -40.470  58.625 -51.900  1.00  0.00     0.002 C 
HETATM    9  C   UNL     1     -40.719  58.714 -53.407  1.00  0.00     0.025 C 
ENDBRANCH   2   4
BRANCH   2  10
HETATM   10  C   UNL     1     -40.836  55.664 -53.783  1.00  0.00     0.163 C 
BRANCH  10  11
HETATM   11  C   UNL     1     -41.584  54.600 -52.936  1.00  0.00     0.169 C 
BRANCH  11  12
HETATM   12  O   UNL     1     -42.936  54.385 -53.338  1.00  0.00    -0.389 OA
HETATM   13  H   UNL     1     -43.261  55.200 -53.768  1.00  0.00     0.210 HD
ENDBRANCH  11  12
BRANCH  11  14
HETATM   14  C   UNL     1     -40.883  53.255 -53.008  1.00  0.00    -0.028 A 
HETATM   15  C   UNL     1     -40.162  52.765 -51.911  1.00  0.00     0.010 A 
HETATM   16  C   UNL     1     -39.511  51.530 -51.984  1.00  0.00     0.001 A 
HETATM   17  C   UNL     1     -39.574  50.771 -53.152  1.00  0.00     0.000 A 
HETATM   18  C   UNL     1     -40.296  51.241 -54.246  1.00  0.00     0.001 A 
HETATM   19  C   UNL     1     -40.952  52.471 -54.173  1.00  0.00     0.010 A 
ENDBRANCH  11  14
ENDBRANCH  10  11
ENDBRANCH   2  10
BRANCH   1  20
HETATM   20  C   UNL     1     -42.996  57.037 -56.564  1.00  0.00     0.119 A 
HETATM   21  N   UNL     1     -44.358  57.112 -56.497  1.00  0.00    -0.273 N 
HETATM   22  N   UNL     1     -44.902  57.987 -57.361  1.00  0.00    -0.179 NA
HETATM   23  H   UNL     1     -44.982  56.596 -55.888  1.00  0.00     0.189 HD
HETATM   24  C   UNL     1     -43.859  58.413 -58.086  1.00  0.00     0.057 A 
HETATM   25  C   UNL     1     -42.651  57.837 -57.636  1.00  0.00     0.065 A 
BRANCH  24  26
HETATM   26  C   UNL     1     -44.047  59.363 -59.220  1.00  0.00     0.061 C 
BRANCH  26  27
HETATM   27  C   UNL     1     -43.379  58.866 -60.504  1.00  0.00     0.002 C 
HETATM   28  C   UNL     1     -42.145  59.685 -60.844  1.00  0.00     0.005 C 
ENDBRANCH  26  27
ENDBRANCH  24  26
ENDBRANCH   1  20
TORSDOF 8
ENDMDL
MODEL 6
REMARK VINA RESULT:      -6.9      4.474      7.866
REMARK  8 active torsions:
REMARK  status: ('A' for Active; 'I' for Inactive)
REMARK    1  A    between atoms: C_2  and  C_3 
REMARK    2  A    between atoms: C_3  and  C_4 
REMARK    3  A    between atoms: C_8  and  C_9 
REMARK       I    between atoms: C_9  and  N_10 
REMARK    4  A    between atoms: N_10  and  C_11 
REMARK    5  A    between atoms: N_10  and  C_17 
REMARK    6  A    between atoms: C_17  and  C_18 
REMARK    7  A    between atoms: C_18  and  O_19 
REMARK    8  A    between atoms: C_18  and  C_20 
ROOT
HETATM    1  C   UNL     1     -43.044  57.772 -56.733  1.00  0.00     0.272 C 
HETATM    2  N   UNL     1     -42.639  57.094 -55.565  1.00  0.00    -0.339 N 
HETATM    3  O   UNL     1     -43.336  58.968 -56.678  1.00  0.00    -0.266 OA
ENDROOT
BRANCH   2   4
HETATM    4  C   UNL     1     -42.401  55.626 -55.491  1.00  0.00     0.087 C 
HETATM    5  C   UNL     1     -40.966  55.292 -55.054  1.00  0.00     0.025 C 
HETATM    6  C   UNL     1     -40.795  55.044 -53.560  1.00  0.00     0.002 C 
HETATM    7  C   UNL     1     -41.790  54.011 -53.054  1.00  0.00     0.000 C 
HETATM    8  C   UNL     1     -43.216  54.481 -53.286  1.00  0.00     0.002 C 
HETATM    9  C   UNL     1     -43.489  54.812 -54.755  1.00  0.00     0.025 C 
ENDBRANCH   2   4
BRANCH   2  10
HETATM   10  C   UNL     1     -42.585  57.918 -54.339  1.00  0.00     0.163 C 
BRANCH  10  11
HETATM   11  C   UNL     1     -41.329  58.822 -54.210  1.00  0.00     0.169 C 
BRANCH  11  12
HETATM   12  O   UNL     1     -41.445  60.076 -54.881  1.00  0.00    -0.389 OA
HETATM   13  H   UNL     1     -40.597  60.261 -55.331  1.00  0.00     0.210 HD
ENDBRANCH  11  12
BRANCH  11  14
HETATM   14  C   UNL     1     -41.025  59.127 -52.755  1.00  0.00    -0.028 A 
HETATM   15  C   UNL     1     -39.742  58.912 -52.232  1.00  0.00     0.010 A 
HETATM   16  C   UNL     1     -39.468  59.187 -50.889  1.00  0.00     0.001 A 
HETATM   17  C   UNL     1     -40.470  59.680 -50.054  1.00  0.00     0.000 A 
HETATM   18  C   UNL     1     -41.746  59.908 -50.563  1.00  0.00     0.001 A 
HETATM   19  C   UNL     1     -42.020  59.641 -51.905  1.00  0.00     0.010 A 
ENDBRANCH  11  14
ENDBRANCH  10  11
ENDBRANCH   2  10
BRANCH   1  20
HETATM   20  C   UNL     1     -43.138  57.063 -57.979  1.00  0.00     0.119 A 
HETATM   21  N   UNL     1     -42.116  56.824 -58.854  1.00  0.00    -0.273 N 
HETATM   22  N   UNL     1     -42.485  56.143 -59.954  1.00  0.00    -0.179 NA
HETATM   23  H   UNL     1     -41.144  57.097 -58.768  1.00  0.00     0.189 HD
HETATM   24  C   UNL     1     -43.814  56.033 -59.833  1.00  0.00     0.057 A 
HETATM   25  C   UNL     1     -44.270  56.604 -58.625  1.00  0.00     0.065 A 
BRANCH  24  26
HETATM   26  C   UNL     1     -44.632  55.387 -60.899  1.00  0.00     0.061 C 
BRANCH  26  27
HETATM   27  C   UNL     1     -46.108  55.285 -60.509  1.00  0.00     0.002 C 
HETATM   28  C   UNL     1     -46.954  56.307 -61.252  1.00  0.00     0.005 C 
ENDBRANCH  26  27
ENDBRANCH  24  26
ENDBRANCH   1  20
TORSDOF 8
ENDMDL
MODEL 7
REMARK VINA RESULT:      -6.7      3.482      7.432
REMARK  8 active torsions:
REMARK  status: ('A' for Active; 'I' for Inactive)
REMARK    1  A    between atoms: C_2  and  C_3 
REMARK    2  A    between atoms: C_3  and  C_4 
REMARK    3  A    between atoms: C_8  and  C_9 
REMARK       I    between atoms: C_9  and  N_10 
REMARK    4  A    between atoms: N_10  and  C_11 
REMARK    5  A    between atoms: N_10  and  C_17 
REMARK    6  A    between atoms: C_17  and  C_18 
REMARK    7  A    between atoms: C_18  and  O_19 
REMARK    8  A    between atoms: C_18  and  C_20 
ROOT
HETATM    1  C   UNL     1     -43.050  54.928 -54.277  1.00  0.00     0.272 C 
HETATM    2  N   UNL     1     -43.150  56.334 -54.284  1.00  0.00    -0.339 N 
HETATM    3  O   UNL     1     -43.565  54.271 -55.184  1.00  0.00    -0.266 OA
ENDROOT
BRANCH   2   4
HETATM    4  C   UNL     1     -42.690  57.209 -53.172  1.00  0.00     0.087 C 
HETATM    5  C   UNL     1     -41.306  57.819 -53.447  1.00  0.00     0.025 C 
HETATM    6  C   UNL     1     -41.333  59.210 -54.068  1.00  0.00     0.002 C 
HETATM    7  C   UNL     1     -42.211  60.156 -53.266  1.00  0.00     0.000 C 
HETATM    8  C   UNL     1     -43.641  59.645 -53.212  1.00  0.00     0.002 C 
HETATM    9  C   UNL     1     -43.732  58.225 -52.649  1.00  0.00     0.025 C 
ENDBRANCH   2   4
BRANCH   2  10
HETATM   10  C   UNL     1     -43.880  56.912 -55.432  1.00  0.00     0.163 C 
BRANCH  10  11
HETATM   11  C   UNL     1     -43.022  57.145 -56.705  1.00  0.00     0.169 C 
BRANCH  11  12
HETATM   12  O   UNL     1     -41.777  56.449 -56.701  1.00  0.00    -0.389 OA
HETATM   13  H   UNL     1     -41.566  56.204 -55.778  1.00  0.00     0.210 HD
ENDBRANCH  11  12
BRANCH  11  14
HETATM   14  C   UNL     1     -43.767  56.708 -57.952  1.00  0.00    -0.028 A 
HETATM   15  C   UNL     1     -44.825  57.475 -58.460  1.00  0.00     0.010 A 
HETATM   16  C   UNL     1     -45.514  57.064 -59.605  1.00  0.00     0.001 A 
HETATM   17  C   UNL     1     -45.155  55.885 -60.255  1.00  0.00     0.000 A 
HETATM   18  C   UNL     1     -44.100  55.118 -59.768  1.00  0.00     0.001 A 
HETATM   19  C   UNL     1     -43.406  55.530 -58.629  1.00  0.00     0.010 A 
ENDBRANCH  11  14
ENDBRANCH  10  11
ENDBRANCH   2  10
BRANCH   1  20
HETATM   20  C   UNL     1     -42.367  54.261 -53.202  1.00  0.00     0.119 A 
HETATM   21  N   UNL     1     -42.740  54.251 -51.888  1.00  0.00    -0.273 N 
HETATM   22  N   UNL     1     -41.911  53.556 -51.089  1.00  0.00    -0.179 NA
HETATM   23  H   UNL     1     -43.545  54.697 -51.465  1.00  0.00     0.189 HD
HETATM   24  C   UNL     1     -40.910  53.195 -51.901  1.00  0.00     0.057 A 
HETATM   25  C   UNL     1     -41.141  53.625 -53.226  1.00  0.00     0.065 A 
BRANCH  24  26
HETATM   26  C   UNL     1     -39.728  52.449 -51.380  1.00  0.00     0.061 C 
BRANCH  26  27
HETATM   27  C   UNL     1     -40.137  51.258 -50.511  1.00  0.00     0.002 C 
HETATM   28  C   UNL     1     -39.545  49.957 -51.031  1.00  0.00     0.005 C 
ENDBRANCH  26  27
ENDBRANCH  24  26
ENDBRANCH   1  20
TORSDOF 8
ENDMDL
MODEL 8
REMARK VINA RESULT:      -6.7      2.596      8.120
REMARK  8 active torsions:
REMARK  status: ('A' for Active; 'I' for Inactive)
REMARK    1  A    between atoms: C_2  and  C_3 
REMARK    2  A    between atoms: C_3  and  C_4 
REMARK    3  A    between atoms: C_8  and  C_9 
REMARK       I    between atoms: C_9  and  N_10 
REMARK    4  A    between atoms: N_10  and  C_11 
REMARK    5  A    between atoms: N_10  and  C_17 
REMARK    6  A    between atoms: C_17  and  C_18 
REMARK    7  A    between atoms: C_18  and  O_19 
REMARK    8  A    between atoms: C_18  and  C_20 
ROOT
HETATM    1  C   UNL     1     -42.788  55.855 -54.625  1.00  0.00     0.272 C 
HETATM    2  N   UNL     1     -42.577  57.146 -54.101  1.00  0.00    -0.339 N 
HETATM    3  O   UNL     1     -43.877  55.567 -55.127  1.00  0.00    -0.266 OA
ENDROOT
BRANCH   2   4
HETATM    4  C   UNL     1     -41.357  57.554 -53.351  1.00  0.00     0.087 C 
HETATM    5  C   UNL     1     -41.044  59.049 -53.520  1.00  0.00     0.025 C 
HETATM    6  C   UNL     1     -41.598  59.946 -52.420  1.00  0.00     0.002 C 
HETATM    7  C   UNL     1     -41.197  59.442 -51.043  1.00  0.00     0.000 C 
HETATM    8  C   UNL     1     -41.729  58.038 -50.809  1.00  0.00     0.002 C 
HETATM    9  C   UNL     1     -41.276  57.055 -51.890  1.00  0.00     0.025 C 
ENDBRANCH   2   4
BRANCH   2  10
HETATM   10  C   UNL     1     -43.720  58.075 -54.221  1.00  0.00     0.163 C 
BRANCH  10  11
HETATM   11  C   UNL     1     -44.870  57.837 -53.206  1.00  0.00     0.169 C 
BRANCH  11  12
HETATM   12  O   UNL     1     -44.659  56.721 -52.343  1.00  0.00    -0.389 OA
HETATM   13  H   UNL     1     -45.530  56.412 -52.024  1.00  0.00     0.210 HD
ENDBRANCH  11  12
BRANCH  11  14
HETATM   14  C   UNL     1     -45.072  59.050 -52.317  1.00  0.00    -0.028 A 
HETATM   15  C   UNL     1     -45.222  58.904 -50.931  1.00  0.00     0.010 A 
HETATM   16  C   UNL     1     -45.416  60.023 -50.116  1.00  0.00     0.001 A 
HETATM   17  C   UNL     1     -45.463  61.299 -50.676  1.00  0.00     0.000 A 
HETATM   18  C   UNL     1     -45.306  61.460 -52.050  1.00  0.00     0.001 A 
HETATM   19  C   UNL     1     -45.105  60.345 -52.864  1.00  0.00     0.010 A 
ENDBRANCH  11  14
ENDBRANCH  10  11
ENDBRANCH   2  10
BRANCH   1  20
HETATM   20  C   UNL     1     -41.744  54.870 -54.554  1.00  0.00     0.119 A 
HETATM   21  N   UNL     1     -40.746  54.680 -55.467  1.00  0.00    -0.273 N 
HETATM   22  N   UNL     1     -39.904  53.678 -55.158  1.00  0.00    -0.179 NA
HETATM   23  H   UNL     1     -40.579  55.194 -56.324  1.00  0.00     0.189 HD
HETATM   24  C   UNL     1     -40.443  53.133 -54.059  1.00  0.00     0.057 A 
HETATM   25  C   UNL     1     -41.600  53.833 -53.652  1.00  0.00     0.065 A 
BRANCH  24  26
HETATM   26  C   UNL     1     -39.838  51.928 -53.423  1.00  0.00     0.061 C 
BRANCH  26  27
HETATM   27  C   UNL     1     -39.919  50.697 -54.328  1.00  0.00     0.002 C 
HETATM   28  C   UNL     1     -39.506  49.433 -53.592  1.00  0.00     0.005 C 
ENDBRANCH  26  27
ENDBRANCH  24  26
ENDBRANCH   1  20
TORSDOF 8
ENDMDL
MODEL 9
REMARK VINA RESULT:      -6.7      2.113      2.614
REMARK  8 active torsions:
REMARK  status: ('A' for Active; 'I' for Inactive)
REMARK    1  A    between atoms: C_2  and  C_3 
REMARK    2  A    between atoms: C_3  and  C_4 
REMARK    3  A    between atoms: C_8  and  C_9 
REMARK       I    between atoms: C_9  and  N_10 
REMARK    4  A    between atoms: N_10  and  C_11 
REMARK    5  A    between atoms: N_10  and  C_17 
REMARK    6  A    between atoms: C_17  and  C_18 
REMARK    7  A    between atoms: C_18  and  O_19 
REMARK    8  A    between atoms: C_18  and  C_20 
ROOT
HETATM    1  C   UNL     1     -44.072  56.728 -51.165  1.00  0.00     0.272 C 
HETATM    2  N   UNL     1     -43.419  56.172 -52.284  1.00  0.00    -0.339 N 
HETATM    3  O   UNL     1     -44.351  56.015 -50.199  1.00  0.00    -0.266 OA
ENDROOT
BRANCH   2   4
HETATM    4  C   UNL     1     -43.164  56.906 -53.553  1.00  0.00     0.087 C 
HETATM    5  C   UNL     1     -41.666  57.162 -53.784  1.00  0.00     0.025 C 
HETATM    6  C   UNL     1     -40.968  56.122 -54.652  1.00  0.00     0.002 C 
HETATM    7  C   UNL     1     -41.708  55.908 -55.962  1.00  0.00     0.000 C 
HETATM    8  C   UNL     1     -43.125  55.422 -55.705  1.00  0.00     0.002 C 
HETATM    9  C   UNL     1     -43.910  56.369 -54.795  1.00  0.00     0.025 C 
ENDBRANCH   2   4
BRANCH   2  10
HETATM   10  C   UNL     1     -43.104  54.731 -52.182  1.00  0.00     0.163 C 
BRANCH  10  11
HETATM   11  C   UNL     1     -41.768  54.399 -51.466  1.00  0.00     0.169 C 
BRANCH  11  12
HETATM   12  O   UNL     1     -41.925  53.973 -50.113  1.00  0.00    -0.389 OA
HETATM   13  H   UNL     1     -41.961  52.996 -50.102  1.00  0.00     0.210 HD
ENDBRANCH  11  12
BRANCH  11  14
HETATM   14  C   UNL     1     -41.019  53.296 -52.191  1.00  0.00    -0.028 A 
HETATM   15  C   UNL     1     -40.042  52.540 -51.529  1.00  0.00     0.010 A 
HETATM   16  C   UNL     1     -39.349  51.531 -52.202  1.00  0.00     0.001 A 
HETATM   17  C   UNL     1     -39.623  51.264 -53.543  1.00  0.00     0.000 A 
HETATM   18  C   UNL     1     -40.598  52.001 -54.210  1.00  0.00     0.001 A 
HETATM   19  C   UNL     1     -41.297  53.005 -53.538  1.00  0.00     0.010 A 
ENDBRANCH  11  14
ENDBRANCH  10  11
ENDBRANCH   2  10
BRANCH   1  20
HETATM   20  C   UNL     1     -44.431  58.120 -51.161  1.00  0.00     0.119 A 
HETATM   21  N   UNL     1     -43.647  59.158 -50.744  1.00  0.00    -0.273 N 
HETATM   22  N   UNL     1     -44.237  60.362 -50.839  1.00  0.00    -0.179 NA
HETATM   23  H   UNL     1     -42.702  59.118 -50.381  1.00  0.00     0.189 HD
HETATM   24  C   UNL     1     -45.485  60.079 -51.232  1.00  0.00     0.057 A 
HETATM   25  C   UNL     1     -45.660  58.691 -51.431  1.00  0.00     0.065 A 
BRANCH  24  26
HETATM   26  C   UNL     1     -46.504  61.156 -51.394  1.00  0.00     0.061 C 
BRANCH  26  27
HETATM   27  C   UNL     1     -46.099  62.174 -52.462  1.00  0.00     0.002 C 
HETATM   28  C   UNL     1     -46.141  61.569 -53.856  1.00  0.00     0.005 C 
ENDBRANCH  26  27
ENDBRANCH  24  26
ENDBRANCH   1  20
TORSDOF 8
ENDMDL
MODEL 10
REMARK VINA RESULT:      -6.4      2.587      4.429
REMARK  8 active torsions:
REMARK  status: ('A' for Active; 'I' for Inactive)
REMARK    1  A    between atoms: C_2  and  C_3 
REMARK    2  A    between atoms: C_3  and  C_4 
REMARK    3  A    between atoms: C_8  and  C_9 
REMARK       I    between atoms: C_9  and  N_10 
REMARK    4  A    between atoms: N_10  and  C_11 
REMARK    5  A    between atoms: N_10  and  C_17 
REMARK    6  A    between atoms: C_17  and  C_18 
REMARK    7  A    between atoms: C_18  and  O_19 
REMARK    8  A    between atoms: C_18  and  C_20 
ROOT
HETATM    1  C   UNL     1     -44.770  58.519 -51.467  1.00  0.00     0.272 C 
HETATM    2  N   UNL     1     -43.470  58.449 -52.009  1.00  0.00    -0.339 N 
HETATM    3  O   UNL     1     -45.594  57.642 -51.731  1.00  0.00    -0.266 OA
ENDROOT
BRANCH   2   4
HETATM    4  C   UNL     1     -42.448  59.521 -51.869  1.00  0.00     0.087 C 
HETATM    5  C   UNL     1     -41.793  59.521 -50.478  1.00  0.00     0.025 C 
HETATM    6  C   UNL     1     -40.486  58.743 -50.388  1.00  0.00     0.002 C 
HETATM    7  C   UNL     1     -39.508  59.179 -51.468  1.00  0.00     0.000 C 
HETATM    8  C   UNL     1     -40.094  58.943 -52.850  1.00  0.00     0.002 C 
HETATM    9  C   UNL     1     -41.443  59.640 -53.038  1.00  0.00     0.025 C 
ENDBRANCH   2   4
BRANCH   2  10
HETATM   10  C   UNL     1     -43.203  57.274 -52.865  1.00  0.00     0.163 C 
BRANCH  10  11
HETATM   11  C   UNL     1     -42.719  56.007 -52.110  1.00  0.00     0.169 C 
BRANCH  11  12
HETATM   12  O   UNL     1     -43.778  55.184 -51.621  1.00  0.00    -0.389 OA
HETATM   13  H   UNL     1     -44.535  55.760 -51.396  1.00  0.00     0.210 HD
ENDBRANCH  11  12
BRANCH  11  14
HETATM   14  C   UNL     1     -41.860  55.133 -53.004  1.00  0.00    -0.028 A 
HETATM   15  C   UNL     1     -41.066  55.702 -54.010  1.00  0.00     0.010 A 
HETATM   16  C   UNL     1     -40.281  54.894 -54.837  1.00  0.00     0.001 A 
HETATM   17  C   UNL     1     -40.280  53.510 -54.670  1.00  0.00     0.000 A 
HETATM   18  C   UNL     1     -41.057  52.932 -53.669  1.00  0.00     0.001 A 
HETATM   19  C   UNL     1     -41.835  53.738 -52.837  1.00  0.00     0.010 A 
ENDBRANCH  11  14
ENDBRANCH  10  11
ENDBRANCH   2  10
BRANCH   1  20
HETATM   20  C   UNL     1     -45.138  59.625 -50.625  1.00  0.00     0.119 A 
HETATM   21  N   UNL     1     -45.377  59.576 -49.281  1.00  0.00    -0.273 N 
HETATM   22  N   UNL     1     -45.716  60.760 -48.742  1.00  0.00    -0.179 NA
HETATM   23  H   UNL     1     -45.329  58.770 -48.669  1.00  0.00     0.189 HD
HETATM   24  C   UNL     1     -45.803  61.581 -49.796  1.00  0.00     0.057 A 
HETATM   25  C   UNL     1     -45.466  60.915 -50.996  1.00  0.00     0.065 A 
BRANCH  24  26
HETATM   26  C   UNL     1     -46.228  63.001 -49.633  1.00  0.00     0.061 C 
BRANCH  26  27
HETATM   27  C   UNL     1     -45.234  63.806 -48.793  1.00  0.00     0.002 C 
HETATM   28  C   UNL     1     -45.832  64.209 -47.455  1.00  0.00     0.005 C 
ENDBRANCH  26  27
ENDBRANCH  24  26
ENDBRANCH   1  20
TORSDOF 8
ENDMDL
