MODEL 1
REMARK VINA RESULT:      -8.5      0.000      0.000
REMARK  2 active torsions:
REMARK  status: ('A' for Active; 'I' for Inactive)
REMARK    1  A    between atoms: C_2  and  N_3 
REMARK    2  A    between atoms: N_3  and  C_4 
ROOT
HETATM    1  C   UNL     1     -42.885  55.285 -52.880  1.00  0.00     0.143 A 
HETATM    2  N   UNL     1     -43.411  56.255 -52.093  1.00  0.00    -0.223 NA
HETATM    3  C   UNL     1     -42.993  56.389 -50.830  1.00  0.00     0.236 A 
HETATM    4  N   UNL     1     -42.084  55.652 -50.201  1.00  0.00    -0.234 NA
HETATM    5  C   UNL     1     -41.562  54.700 -50.990  1.00  0.00     0.114 A 
HETATM    6  C   UNL     1     -41.873  54.455 -52.324  1.00  0.00     0.053 A 
HETATM    7  S   UNL     1     -40.400  53.630 -50.359  1.00  0.00    -0.073 SA
HETATM    8  C   UNL     1     -40.271  52.806 -51.834  1.00  0.00    -0.008 A 
HETATM    9  C   UNL     1     -41.065  53.354 -52.829  1.00  0.00    -0.028 A 
HETATM   10  C   UNL     1     -41.061  52.777 -54.219  1.00  0.00     0.041 C 
HETATM   11  C   UNL     1     -39.898  51.800 -54.455  1.00  0.00     0.005 C 
HETATM   12  C   UNL     1     -39.696  50.853 -53.268  1.00  0.00     0.005 C 
HETATM   13  C   UNL     1     -39.353  51.633 -51.993  1.00  0.00     0.047 C 
ENDROOT
BRANCH   1  14
HETATM   14  N   UNL     1     -43.335  55.139 -54.203  1.00  0.00    -0.340 N 
HETATM   15  H   UNL     1     -44.121  54.518 -54.297  1.00  0.00     0.167 HD
BRANCH  14  16
HETATM   16  C   UNL     1     -43.075  55.875 -55.375  1.00  0.00     0.036 A 
HETATM   17  C   UNL     1     -42.730  57.232 -55.242  1.00  0.00     0.032 A 
HETATM   18  C   UNL     1     -42.461  58.030 -56.358  1.00  0.00     0.042 A 
HETATM   19  C   UNL     1     -42.541  57.481 -57.632  1.00  0.00     0.102 A 
HETATM   20  C   UNL     1     -42.934  56.150 -57.788  1.00  0.00     0.104 A 
HETATM   21  O   UNL     1     -42.227  58.304 -58.682  1.00  0.00    -0.346 OA
HETATM   22  C   UNL     1     -43.195  55.357 -56.668  1.00  0.00     0.069 A 
HETATM   23  O   UNL     1     -43.068  55.548 -59.015  1.00  0.00    -0.346 OA
HETATM   24  C   UNL     1     -43.097  56.514 -60.072  1.00  0.00     0.202 C 
HETATM   25  C   UNL     1     -42.002  57.551 -59.880  1.00  0.00     0.202 C 
ENDBRANCH  14  16
ENDBRANCH   1  14
TORSDOF 2
ENDMDL
MODEL 2
REMARK VINA RESULT:      -8.5      0.819      1.646
REMARK  2 active torsions:
REMARK  status: ('A' for Active; 'I' for Inactive)
REMARK    1  A    between atoms: C_2  and  N_3 
REMARK    2  A    between atoms: N_3  and  C_4 
ROOT
HETATM    1  C   UNL     1     -42.728  55.442 -52.865  1.00  0.00     0.143 A 
HETATM    2  N   UNL     1     -43.158  56.470 -52.092  1.00  0.00    -0.223 NA
HETATM    3  C   UNL     1     -42.663  56.631 -50.860  1.00  0.00     0.236 A 
HETATM    4  N   UNL     1     -41.761  55.870 -50.250  1.00  0.00    -0.234 NA
HETATM    5  C   UNL     1     -41.335  54.861 -51.025  1.00  0.00     0.114 A 
HETATM    6  C   UNL     1     -41.732  54.581 -52.329  1.00  0.00     0.053 A 
HETATM    7  S   UNL     1     -40.196  53.755 -50.412  1.00  0.00    -0.073 SA
HETATM    8  C   UNL     1     -40.193  52.867 -51.857  1.00  0.00    -0.008 A 
HETATM    9  C   UNL     1     -41.012  53.418 -52.830  1.00  0.00    -0.028 A 
HETATM   10  C   UNL     1     -41.116  52.788 -54.192  1.00  0.00     0.041 C 
HETATM   11  C   UNL     1     -40.021  51.741 -54.449  1.00  0.00     0.005 C 
HETATM   12  C   UNL     1     -39.803  50.831 -53.235  1.00  0.00     0.005 C 
HETATM   13  C   UNL     1     -39.348  51.641 -52.015  1.00  0.00     0.047 C 
ENDROOT
BRANCH   1  14
HETATM   14  N   UNL     1     -43.258  55.269 -54.154  1.00  0.00    -0.340 N 
HETATM   15  H   UNL     1     -44.071  54.677 -54.182  1.00  0.00     0.167 HD
BRANCH  14  16
HETATM   16  C   UNL     1     -43.039  55.955 -55.364  1.00  0.00     0.036 A 
HETATM   17  C   UNL     1     -43.089  55.218 -56.561  1.00  0.00     0.032 A 
HETATM   18  C   UNL     1     -42.879  55.828 -57.802  1.00  0.00     0.042 A 
HETATM   19  C   UNL     1     -42.609  57.189 -57.864  1.00  0.00     0.102 A 
HETATM   20  C   UNL     1     -42.504  57.928 -56.684  1.00  0.00     0.104 A 
HETATM   21  O   UNL     1     -42.453  57.734 -59.112  1.00  0.00    -0.346 OA
HETATM   22  C   UNL     1     -42.720  57.314 -55.448  1.00  0.00     0.069 A 
HETATM   23  O   UNL     1     -42.206  59.268 -56.663  1.00  0.00    -0.346 OA
HETATM   24  C   UNL     1     -41.694  59.710 -57.925  1.00  0.00     0.202 C 
HETATM   25  C   UNL     1     -42.535  59.163 -59.066  1.00  0.00     0.202 C 
ENDBRANCH  14  16
ENDBRANCH   1  14
TORSDOF 2
ENDMDL
MODEL 3
REMARK VINA RESULT:      -8.2      3.325      6.700
REMARK  2 active torsions:
REMARK  status: ('A' for Active; 'I' for Inactive)
REMARK    1  A    between atoms: C_2  and  N_3 
REMARK    2  A    between atoms: N_3  and  C_4 
ROOT
HETATM    1  C   UNL     1     -42.389  57.237 -54.440  1.00  0.00     0.143 A 
HETATM    2  N   UNL     1     -42.104  58.141 -53.470  1.00  0.00    -0.223 NA
HETATM    3  C   UNL     1     -41.805  59.402 -53.799  1.00  0.00     0.236 A 
HETATM    4  N   UNL     1     -41.736  59.919 -55.021  1.00  0.00    -0.234 NA
HETATM    5  C   UNL     1     -42.028  59.021 -55.974  1.00  0.00     0.114 A 
HETATM    6  C   UNL     1     -42.383  57.688 -55.789  1.00  0.00     0.053 A 
HETATM    7  S   UNL     1     -41.966  59.482 -57.611  1.00  0.00    -0.073 SA
HETATM    8  C   UNL     1     -42.407  57.929 -58.127  1.00  0.00    -0.008 A 
HETATM    9  C   UNL     1     -42.650  57.060 -57.075  1.00  0.00    -0.028 A 
HETATM   10  C   UNL     1     -43.085  55.643 -57.335  1.00  0.00     0.041 C 
HETATM   11  C   UNL     1     -43.520  55.411 -58.790  1.00  0.00     0.005 C 
HETATM   12  C   UNL     1     -42.567  56.080 -59.786  1.00  0.00     0.005 C 
HETATM   13  C   UNL     1     -42.535  57.600 -59.582  1.00  0.00     0.047 C 
ENDROOT
BRANCH   1  14
HETATM   14  N   UNL     1     -42.691  55.911 -54.091  1.00  0.00    -0.340 N 
HETATM   15  H   UNL     1     -43.573  55.588 -54.453  1.00  0.00     0.167 HD
BRANCH  14  16
HETATM   16  C   UNL     1     -41.903  54.870 -53.563  1.00  0.00     0.036 A 
HETATM   17  C   UNL     1     -41.358  55.039 -52.277  1.00  0.00     0.032 A 
HETATM   18  C   UNL     1     -40.563  54.053 -51.686  1.00  0.00     0.042 A 
HETATM   19  C   UNL     1     -40.293  52.879 -52.379  1.00  0.00     0.102 A 
HETATM   20  C   UNL     1     -40.780  52.714 -53.677  1.00  0.00     0.104 A 
HETATM   21  O   UNL     1     -39.541  51.935 -51.729  1.00  0.00    -0.346 OA
HETATM   22  C   UNL     1     -41.580  53.701 -54.260  1.00  0.00     0.069 A 
HETATM   23  O   UNL     1     -40.528  51.598 -54.436  1.00  0.00    -0.346 OA
HETATM   24  C   UNL     1     -39.460  50.821 -53.885  1.00  0.00     0.202 C 
HETATM   25  C   UNL     1     -39.631  50.663 -52.383  1.00  0.00     0.202 C 
ENDBRANCH  14  16
ENDBRANCH   1  14
TORSDOF 2
ENDMDL
MODEL 4
REMARK VINA RESULT:      -8.2      4.021      5.427
REMARK  2 active torsions:
REMARK  status: ('A' for Active; 'I' for Inactive)
REMARK    1  A    between atoms: C_2  and  N_3 
REMARK    2  A    between atoms: N_3  and  C_4 
ROOT
HETATM    1  C   UNL     1     -41.201  55.538 -50.468  1.00  0.00     0.143 A 
HETATM    2  N   UNL     1     -41.224  55.636 -49.117  1.00  0.00    -0.223 NA
HETATM    3  C   UNL     1     -40.847  54.596 -48.365  1.00  0.00     0.236 A 
HETATM    4  N   UNL     1     -40.437  53.405 -48.788  1.00  0.00    -0.234 NA
HETATM    5  C   UNL     1     -40.408  53.320 -50.126  1.00  0.00     0.114 A 
HETATM    6  C   UNL     1     -40.742  54.318 -51.037  1.00  0.00     0.053 A 
HETATM    7  S   UNL     1     -39.937  51.861 -50.865  1.00  0.00    -0.073 SA
HETATM    8  C   UNL     1     -40.161  52.505 -52.417  1.00  0.00    -0.008 A 
HETATM    9  C   UNL     1     -40.547  53.835 -52.397  1.00  0.00    -0.028 A 
HETATM   10  C   UNL     1     -40.764  54.591 -53.680  1.00  0.00     0.041 C 
HETATM   11  C   UNL     1     -40.211  53.850 -54.908  1.00  0.00     0.005 C 
HETATM   12  C   UNL     1     -40.544  52.355 -54.872  1.00  0.00     0.005 C 
HETATM   13  C   UNL     1     -39.920  51.681 -53.644  1.00  0.00     0.047 C 
ENDROOT
BRANCH   1  14
HETATM   14  N   UNL     1     -41.608  56.627 -51.255  1.00  0.00    -0.340 N 
HETATM   15  H   UNL     1     -41.117  56.702 -52.130  1.00  0.00     0.167 HD
BRANCH  14  16
HETATM   16  C   UNL     1     -42.730  57.476 -51.183  1.00  0.00     0.036 A 
HETATM   17  C   UNL     1     -44.007  56.887 -51.177  1.00  0.00     0.032 A 
HETATM   18  C   UNL     1     -45.169  57.662 -51.111  1.00  0.00     0.042 A 
HETATM   19  C   UNL     1     -45.070  59.047 -51.057  1.00  0.00     0.102 A 
HETATM   20  C   UNL     1     -43.813  59.654 -51.116  1.00  0.00     0.104 A 
HETATM   21  O   UNL     1     -46.243  59.749 -50.953  1.00  0.00    -0.346 OA
HETATM   22  C   UNL     1     -42.656  58.873 -51.176  1.00  0.00     0.069 A 
HETATM   23  O   UNL     1     -43.638  61.016 -51.102  1.00  0.00    -0.346 OA
HETATM   24  C   UNL     1     -44.865  61.704 -51.365  1.00  0.00     0.202 C 
HETATM   25  C   UNL     1     -46.001  61.103 -50.555  1.00  0.00     0.202 C 
ENDBRANCH  14  16
ENDBRANCH   1  14
TORSDOF 2
ENDMDL
MODEL 5
REMARK VINA RESULT:      -8.0      2.452      3.465
REMARK  2 active torsions:
REMARK  status: ('A' for Active; 'I' for Inactive)
REMARK    1  A    between atoms: C_2  and  N_3 
REMARK    2  A    between atoms: N_3  and  C_4 
ROOT
HETATM    1  C   UNL     1     -42.303  57.407 -55.490  1.00  0.00     0.143 A 
HETATM    2  N   UNL     1     -42.787  58.651 -55.253  1.00  0.00    -0.223 NA
HETATM    3  C   UNL     1     -42.876  59.105 -53.999  1.00  0.00     0.236 A 
HETATM    4  N   UNL     1     -42.543  58.461 -52.885  1.00  0.00    -0.234 NA
HETATM    5  C   UNL     1     -42.056  57.235 -53.129  1.00  0.00     0.114 A 
HETATM    6  C   UNL     1     -41.878  56.637 -54.373  1.00  0.00     0.053 A 
HETATM    7  S   UNL     1     -41.599  56.238 -51.828  1.00  0.00    -0.073 SA
HETATM    8  C   UNL     1     -41.150  54.980 -52.872  1.00  0.00    -0.008 A 
HETATM    9  C   UNL     1     -41.296  55.312 -54.209  1.00  0.00    -0.028 A 
HETATM   10  C   UNL     1     -40.918  54.334 -55.288  1.00  0.00     0.041 C 
HETATM   11  C   UNL     1     -40.095  53.149 -54.757  1.00  0.00     0.005 C 
HETATM   12  C   UNL     1     -40.658  52.607 -53.439  1.00  0.00     0.005 C 
HETATM   13  C   UNL     1     -40.628  53.680 -52.344  1.00  0.00     0.047 C 
ENDROOT
BRANCH   1  14
HETATM   14  N   UNL     1     -42.222  56.929 -56.808  1.00  0.00    -0.340 N 
HETATM   15  H   UNL     1     -41.328  56.531 -57.041  1.00  0.00     0.167 HD
BRANCH  14  16
HETATM   16  C   UNL     1     -43.208  56.662 -57.778  1.00  0.00     0.036 A 
HETATM   17  C   UNL     1     -43.099  55.476 -58.526  1.00  0.00     0.032 A 
HETATM   18  C   UNL     1     -44.036  55.143 -59.508  1.00  0.00     0.042 A 
HETATM   19  C   UNL     1     -45.100  55.999 -59.763  1.00  0.00     0.102 A 
HETATM   20  C   UNL     1     -45.198  57.207 -59.069  1.00  0.00     0.104 A 
HETATM   21  O   UNL     1     -46.006  55.597 -60.709  1.00  0.00    -0.346 OA
HETATM   22  C   UNL     1     -44.261  57.531 -58.084  1.00  0.00     0.069 A 
HETATM   23  O   UNL     1     -46.200  58.119 -59.290  1.00  0.00    -0.346 OA
HETATM   24  C   UNL     1     -46.895  57.848 -60.511  1.00  0.00     0.202 C 
HETATM   25  C   UNL     1     -47.212  56.366 -60.630  1.00  0.00     0.202 C 
ENDBRANCH  14  16
ENDBRANCH   1  14
TORSDOF 2
ENDMDL
MODEL 6
REMARK VINA RESULT:      -8.0      3.522      6.957
REMARK  2 active torsions:
REMARK  status: ('A' for Active; 'I' for Inactive)
REMARK    1  A    between atoms: C_2  and  N_3 
REMARK    2  A    between atoms: N_3  and  C_4 
ROOT
HETATM    1  C   UNL     1     -41.989  56.298 -53.179  1.00  0.00     0.143 A 
HETATM    2  N   UNL     1     -42.099  56.616 -51.866  1.00  0.00    -0.223 NA
HETATM    3  C   UNL     1     -43.072  57.437 -51.457  1.00  0.00     0.236 A 
HETATM    4  N   UNL     1     -43.996  58.026 -52.209  1.00  0.00    -0.234 NA
HETATM    5  C   UNL     1     -43.885  57.699 -53.505  1.00  0.00     0.114 A 
HETATM    6  C   UNL     1     -42.949  56.841 -54.076  1.00  0.00     0.053 A 
HETATM    7  S   UNL     1     -44.960  58.375 -54.637  1.00  0.00    -0.073 SA
HETATM    8  C   UNL     1     -44.219  57.554 -55.921  1.00  0.00    -0.008 A 
HETATM    9  C   UNL     1     -43.186  56.728 -55.508  1.00  0.00    -0.028 A 
HETATM   10  C   UNL     1     -42.428  55.891 -56.502  1.00  0.00     0.041 C 
HETATM   11  C   UNL     1     -43.121  55.820 -57.873  1.00  0.00     0.005 C 
HETATM   12  C   UNL     1     -43.650  57.188 -58.317  1.00  0.00     0.005 C 
HETATM   13  C   UNL     1     -44.697  57.720 -57.331  1.00  0.00     0.047 C 
ENDROOT
BRANCH   1  14
HETATM   14  N   UNL     1     -40.959  55.444 -53.606  1.00  0.00    -0.340 N 
HETATM   15  H   UNL     1     -40.224  55.915 -54.108  1.00  0.00     0.167 HD
BRANCH  14  16
HETATM   16  C   UNL     1     -40.622  54.123 -53.256  1.00  0.00     0.036 A 
HETATM   17  C   UNL     1     -40.341  53.214 -54.292  1.00  0.00     0.032 A 
HETATM   18  C   UNL     1     -40.002  51.884 -54.024  1.00  0.00     0.042 A 
HETATM   19  C   UNL     1     -39.944  51.439 -52.710  1.00  0.00     0.102 A 
HETATM   20  C   UNL     1     -40.271  52.312 -51.669  1.00  0.00     0.104 A 
HETATM   21  O   UNL     1     -39.567  50.136 -52.512  1.00  0.00    -0.346 OA
HETATM   22  C   UNL     1     -40.603  53.641 -51.943  1.00  0.00     0.069 A 
HETATM   23  O   UNL     1     -40.269  51.936 -50.349  1.00  0.00    -0.346 OA
HETATM   24  C   UNL     1     -40.238  50.512 -50.209  1.00  0.00     0.202 C 
HETATM   25  C   UNL     1     -39.206  49.904 -51.145  1.00  0.00     0.202 C 
ENDBRANCH  14  16
ENDBRANCH   1  14
TORSDOF 2
ENDMDL
MODEL 7
REMARK VINA RESULT:      -7.9      3.188      6.582
REMARK  2 active torsions:
REMARK  status: ('A' for Active; 'I' for Inactive)
REMARK    1  A    between atoms: C_2  and  N_3 
REMARK    2  A    between atoms: N_3  and  C_4 
ROOT
HETATM    1  C   UNL     1     -42.251  56.333 -52.974  1.00  0.00     0.143 A 
HETATM    2  N   UNL     1     -42.521  56.569 -51.667  1.00  0.00    -0.223 NA
HETATM    3  C   UNL     1     -43.602  57.278 -51.326  1.00  0.00     0.236 A 
HETATM    4  N   UNL     1     -44.497  57.823 -52.143  1.00  0.00    -0.234 NA
HETATM    5  C   UNL     1     -44.228  57.576 -53.434  1.00  0.00     0.114 A 
HETATM    6  C   UNL     1     -43.164  56.836 -53.941  1.00  0.00     0.053 A 
HETATM    7  S   UNL     1     -45.244  58.214 -54.640  1.00  0.00    -0.073 SA
HETATM    8  C   UNL     1     -44.305  57.531 -55.876  1.00  0.00    -0.008 A 
HETATM    9  C   UNL     1     -43.246  56.779 -55.394  1.00  0.00    -0.028 A 
HETATM   10  C   UNL     1     -42.318  56.067 -56.340  1.00  0.00     0.041 C 
HETATM   11  C   UNL     1     -42.861  56.008 -57.777  1.00  0.00     0.005 C 
HETATM   12  C   UNL     1     -43.469  57.345 -58.213  1.00  0.00     0.005 C 
HETATM   13  C   UNL     1     -44.654  57.729 -57.318  1.00  0.00     0.047 C 
ENDROOT
BRANCH   1  14
HETATM   14  N   UNL     1     -41.108  55.598 -53.329  1.00  0.00    -0.340 N 
HETATM   15  H   UNL     1     -40.371  56.160 -53.722  1.00  0.00     0.167 HD
BRANCH  14  16
HETATM   16  C   UNL     1     -40.691  54.291 -53.014  1.00  0.00     0.036 A 
HETATM   17  C   UNL     1     -40.303  54.021 -51.689  1.00  0.00     0.032 A 
HETATM   18  C   UNL     1     -39.874  52.749 -51.299  1.00  0.00     0.042 A 
HETATM   19  C   UNL     1     -39.819  51.723 -52.235  1.00  0.00     0.102 A 
HETATM   20  C   UNL     1     -40.149  51.984 -53.566  1.00  0.00     0.104 A 
HETATM   21  O   UNL     1     -39.428  50.490 -51.781  1.00  0.00    -0.346 OA
HETATM   22  C   UNL     1     -40.583  53.256 -53.948  1.00  0.00     0.069 A 
HETATM   23  O   UNL     1     -40.087  51.031 -54.553  1.00  0.00    -0.346 OA
HETATM   24  C   UNL     1     -39.338  49.887 -54.131  1.00  0.00     0.202 C 
HETATM   25  C   UNL     1     -39.748  49.465 -52.729  1.00  0.00     0.202 C 
ENDBRANCH  14  16
ENDBRANCH   1  14
TORSDOF 2
ENDMDL
MODEL 8
REMARK VINA RESULT:      -7.9      3.950      6.817
REMARK  2 active torsions:
REMARK  status: ('A' for Active; 'I' for Inactive)
REMARK    1  A    between atoms: C_2  and  N_3 
REMARK    2  A    between atoms: N_3  and  C_4 
ROOT
HETATM    1  C   UNL     1     -42.567  56.893 -54.216  1.00  0.00     0.143 A 
HETATM    2  N   UNL     1     -43.616  56.604 -55.025  1.00  0.00    -0.223 NA
HETATM    3  C   UNL     1     -44.766  57.274 -54.893  1.00  0.00     0.236 A 
HETATM    4  N   UNL     1     -45.039  58.237 -54.020  1.00  0.00    -0.234 NA
HETATM    5  C   UNL     1     -43.993  58.524 -53.230  1.00  0.00     0.114 A 
HETATM    6  C   UNL     1     -42.732  57.937 -53.264  1.00  0.00     0.053 A 
HETATM    7  S   UNL     1     -44.153  59.713 -52.024  1.00  0.00    -0.073 SA
HETATM    8  C   UNL     1     -42.554  59.488 -51.506  1.00  0.00    -0.008 A 
HETATM    9  C   UNL     1     -41.870  58.550 -52.263  1.00  0.00    -0.028 A 
HETATM   10  C   UNL     1     -40.427  58.236 -51.975  1.00  0.00     0.041 C 
HETATM   11  C   UNL     1     -39.772  59.258 -51.033  1.00  0.00     0.005 C 
HETATM   12  C   UNL     1     -40.690  59.628 -49.863  1.00  0.00     0.005 C 
HETATM   13  C   UNL     1     -41.988  60.273 -50.364  1.00  0.00     0.047 C 
ENDROOT
BRANCH   1  14
HETATM   14  N   UNL     1     -41.365  56.179 -54.349  1.00  0.00    -0.340 N 
HETATM   15  H   UNL     1     -40.591  56.743 -54.658  1.00  0.00     0.167 HD
BRANCH  14  16
HETATM   16  C   UNL     1     -40.969  54.906 -53.895  1.00  0.00     0.036 A 
HETATM   17  C   UNL     1     -40.703  53.914 -54.855  1.00  0.00     0.032 A 
HETATM   18  C   UNL     1     -40.308  52.625 -54.483  1.00  0.00     0.042 A 
HETATM   19  C   UNL     1     -40.177  52.307 -53.137  1.00  0.00     0.102 A 
HETATM   20  C   UNL     1     -40.486  53.262 -52.167  1.00  0.00     0.104 A 
HETATM   21  O   UNL     1     -39.747  51.040 -52.839  1.00  0.00    -0.346 OA
HETATM   22  C   UNL     1     -40.876  54.550 -52.546  1.00  0.00     0.069 A 
HETATM   23  O   UNL     1     -40.414  53.011 -50.819  1.00  0.00    -0.346 OA
HETATM   24  C   UNL     1     -40.328  51.608 -50.551  1.00  0.00     0.202 C 
HETATM   25  C   UNL     1     -39.318  50.947 -51.475  1.00  0.00     0.202 C 
ENDBRANCH  14  16
ENDBRANCH   1  14
TORSDOF 2
ENDMDL
MODEL 9
REMARK VINA RESULT:      -7.9     14.739     16.690
REMARK  2 active torsions:
REMARK  status: ('A' for Active; 'I' for Inactive)
REMARK    1  A    between atoms: C_2  and  N_3 
REMARK    2  A    between atoms: N_3  and  C_4 
ROOT
HETATM    1  C   UNL     1     -35.348  41.765 -55.279  1.00  0.00     0.143 A 
HETATM    2  N   UNL     1     -36.356  42.248 -54.513  1.00  0.00    -0.223 NA
HETATM    3  C   UNL     1     -36.400  41.960 -53.208  1.00  0.00     0.236 A 
HETATM    4  N   UNL     1     -35.544  41.212 -52.520  1.00  0.00    -0.234 NA
HETATM    5  C   UNL     1     -34.544  40.746 -53.284  1.00  0.00     0.114 A 
HETATM    6  C   UNL     1     -34.347  40.981 -54.641  1.00  0.00     0.053 A 
HETATM    7  S   UNL     1     -33.357  39.742 -52.593  1.00  0.00    -0.073 SA
HETATM    8  C   UNL     1     -32.544  39.585 -54.072  1.00  0.00    -0.008 A 
HETATM    9  C   UNL     1     -33.128  40.321 -55.089  1.00  0.00    -0.028 A 
HETATM   10  C   UNL     1     -32.530  40.334 -56.469  1.00  0.00     0.041 C 
HETATM   11  C   UNL     1     -31.110  39.747 -56.508  1.00  0.00     0.005 C 
HETATM   12  C   UNL     1     -30.996  38.469 -55.671  1.00  0.00     0.005 C 
HETATM   13  C   UNL     1     -31.309  38.747 -54.195  1.00  0.00     0.047 C 
ENDROOT
BRANCH   1  14
HETATM   14  N   UNL     1     -35.310  42.061 -56.652  1.00  0.00    -0.340 N 
HETATM   15  H   UNL     1     -34.596  42.723 -56.904  1.00  0.00     0.167 HD
BRANCH  14  16
HETATM   16  C   UNL     1     -35.893  41.431 -57.769  1.00  0.00     0.036 A 
HETATM   17  C   UNL     1     -36.751  42.190 -58.584  1.00  0.00     0.032 A 
HETATM   18  C   UNL     1     -37.369  41.635 -59.709  1.00  0.00     0.042 A 
HETATM   19  C   UNL     1     -37.142  40.303 -60.033  1.00  0.00     0.102 A 
HETATM   20  C   UNL     1     -36.335  39.518 -59.206  1.00  0.00     0.104 A 
HETATM   21  O   UNL     1     -37.745  39.830 -61.169  1.00  0.00    -0.346 OA
HETATM   22  C   UNL     1     -35.715  40.081 -58.087  1.00  0.00     0.069 A 
HETATM   23  O   UNL     1     -36.091  38.188 -59.442  1.00  0.00    -0.346 OA
HETATM   24  C   UNL     1     -37.011  37.648 -60.397  1.00  0.00     0.202 C 
HETATM   25  C   UNL     1     -37.165  38.587 -61.583  1.00  0.00     0.202 C 
ENDBRANCH  14  16
ENDBRANCH   1  14
TORSDOF 2
ENDMDL
MODEL 10
REMARK VINA RESULT:      -7.9      1.712      2.668
REMARK  2 active torsions:
REMARK  status: ('A' for Active; 'I' for Inactive)
REMARK    1  A    between atoms: C_2  and  N_3 
REMARK    2  A    between atoms: N_3  and  C_4 
ROOT
HETATM    1  C   UNL     1     -43.962  56.591 -54.539  1.00  0.00     0.143 A 
HETATM    2  N   UNL     1     -44.771  57.558 -54.042  1.00  0.00    -0.223 NA
HETATM    3  C   UNL     1     -44.702  57.887 -52.748  1.00  0.00     0.236 A 
HETATM    4  N   UNL     1     -43.906  57.357 -51.825  1.00  0.00    -0.234 NA
HETATM    5  C   UNL     1     -43.102  56.408 -52.327  1.00  0.00     0.114 A 
HETATM    6  C   UNL     1     -43.038  55.978 -53.648  1.00  0.00     0.053 A 
HETATM    7  S   UNL     1     -42.026  55.587 -51.295  1.00  0.00    -0.073 SA
HETATM    8  C   UNL     1     -41.440  54.633 -52.568  1.00  0.00    -0.008 A 
HETATM    9  C   UNL     1     -42.013  54.952 -53.789  1.00  0.00    -0.028 A 
HETATM   10  C   UNL     1     -41.596  54.234 -55.043  1.00  0.00     0.041 C 
HETATM   11  C   UNL     1     -40.312  53.410 -54.859  1.00  0.00     0.005 C 
HETATM   12  C   UNL     1     -40.313  52.636 -53.537  1.00  0.00     0.005 C 
HETATM   13  C   UNL     1     -40.389  53.591 -52.340  1.00  0.00     0.047 C 
ENDROOT
BRANCH   1  14
HETATM   14  N   UNL     1     -44.045  56.240 -55.896  1.00  0.00    -0.340 N 
HETATM   15  H   UNL     1     -44.763  55.564 -56.097  1.00  0.00     0.167 HD
BRANCH  14  16
HETATM   16  C   UNL     1     -43.506  56.827 -57.057  1.00  0.00     0.036 A 
HETATM   17  C   UNL     1     -43.074  55.975 -58.091  1.00  0.00     0.032 A 
HETATM   18  C   UNL     1     -42.526  56.482 -59.272  1.00  0.00     0.042 A 
HETATM   19  C   UNL     1     -42.394  57.855 -59.437  1.00  0.00     0.102 A 
HETATM   20  C   UNL     1     -42.767  58.715 -58.402  1.00  0.00     0.104 A 
HETATM   21  O   UNL     1     -41.886  58.290 -60.634  1.00  0.00    -0.346 OA
HETATM   22  C   UNL     1     -43.320  58.203 -57.226  1.00  0.00     0.069 A 
HETATM   23  O   UNL     1     -42.634  60.080 -58.478  1.00  0.00    -0.346 OA
HETATM   24  C   UNL     1     -41.778  60.464 -59.559  1.00  0.00     0.202 C 
HETATM   25  C   UNL     1     -42.127  59.690 -60.819  1.00  0.00     0.202 C 
ENDBRANCH  14  16
ENDBRANCH   1  14
TORSDOF 2
ENDMDL
