MODEL 1
REMARK VINA RESULT:      -8.7      0.000      0.000
REMARK  6 active torsions:
REMARK  status: ('A' for Active; 'I' for Inactive)
REMARK    1  A    between atoms: O_2  and  C_3 
REMARK    2  A    between atoms: C_4  and  C_5 
REMARK       I    between atoms: C_5  and  N_6 
REMARK    3  A    between atoms: N_6  and  C_7 
REMARK    4  A    between atoms: C_9  and  C_10 
REMARK    5  A    between atoms: C_10  and  C_11 
REMARK    6  A    between atoms: C_11  and  C_12 
ROOT
HETATM    1  C   UNL     1     -42.684  55.135 -55.752  1.00  0.00     0.725 A 
HETATM    2  N   UNL     1     -43.042  54.881 -54.518  1.00  0.00    -0.046 NA
HETATM    3  C   UNL     1     -41.880  54.979 -53.800  1.00  0.00     0.166 A 
HETATM    4  N   UNL     1     -40.804  55.300 -54.531  1.00  0.00    -0.144 NA
HETATM    5  N   UNL     1     -41.338  55.381 -55.761  1.00  0.00    -0.106 N 
HETATM    6  H   UNL     1     -40.738  55.611 -56.542  1.00  0.00     0.208 HD
ENDROOT
BRANCH   1   7
HETATM    7  N   UNL     1     -43.445  55.161 -56.896  1.00  0.00    -0.152 N 
HETATM    8  C   UNL     1     -43.305  56.170 -57.836  1.00  0.00     0.272 C 
HETATM    9  O   UNL     1     -42.514  57.101 -57.818  1.00  0.00    -0.267 OA
HETATM   10  H   UNL     1     -44.150  54.453 -57.031  1.00  0.00     0.187 HD
BRANCH   8  11
HETATM   11  C   UNL     1     -44.258  56.060 -58.970  1.00  0.00     0.066 A 
HETATM   12  C   UNL     1     -45.265  57.013 -59.177  1.00  0.00     0.084 A 
HETATM   13  C   UNL     1     -46.100  56.909 -60.294  1.00  0.00     0.038 A 
HETATM   14  C   UNL     1     -45.960  55.844 -61.184  1.00  0.00     0.003 A 
HETATM   15  C   UNL     1     -44.967  54.888 -60.978  1.00  0.00     0.001 A 
HETATM   16  C   UNL     1     -44.111  54.998 -59.879  1.00  0.00     0.020 A 
BRANCH  12  17
HETATM   17  O   UNL     1     -45.460  58.114 -58.388  1.00  0.00    -0.355 OA
HETATM   18  C   UNL     1     -46.677  58.037 -57.648  1.00  0.00     0.210 C 
ENDBRANCH  12  17
ENDBRANCH   8  11
ENDBRANCH   1   7
BRANCH   3  19
HETATM   19  C   UNL     1     -41.859  54.762 -52.330  1.00  0.00     0.087 C 
BRANCH  19  20
HETATM   20  C   UNL     1     -40.468  54.458 -51.773  1.00  0.00     0.048 C 
BRANCH  20  21
HETATM   21  C   UNL     1     -40.282  53.000 -51.483  1.00  0.00    -0.030 A 
HETATM   22  C   UNL     1     -40.026  51.955 -52.430  1.00  0.00    -0.002 A 
HETATM   23  C   UNL     1     -39.889  50.765 -51.714  1.00  0.00     0.042 A 
HETATM   24  C   UNL     1     -39.884  51.913 -53.833  1.00  0.00     0.014 A 
HETATM   25  C   UNL     1     -39.613  49.537 -52.326  1.00  0.00     0.030 A 
HETATM   26  N   UNL     1     -40.071  51.070 -50.385  1.00  0.00    -0.365 N 
HETATM   27  C   UNL     1     -39.473  49.525 -53.717  1.00  0.00     0.002 A 
HETATM   28  C   UNL     1     -39.607  50.694 -54.462  1.00  0.00     0.001 A 
HETATM   29  H   UNL     1     -40.026  50.398 -49.632  1.00  0.00     0.165 HD
HETATM   30  C   UNL     1     -40.308  52.409 -50.234  1.00  0.00     0.096 A 
ENDBRANCH  20  21
ENDBRANCH  19  20
ENDBRANCH   3  19
TORSDOF 6
ENDMDL
MODEL 2
REMARK VINA RESULT:      -8.5      3.620      7.857
REMARK  6 active torsions:
REMARK  status: ('A' for Active; 'I' for Inactive)
REMARK    1  A    between atoms: O_2  and  C_3 
REMARK    2  A    between atoms: C_4  and  C_5 
REMARK       I    between atoms: C_5  and  N_6 
REMARK    3  A    between atoms: N_6  and  C_7 
REMARK    4  A    between atoms: C_9  and  C_10 
REMARK    5  A    between atoms: C_10  and  C_11 
REMARK    6  A    between atoms: C_11  and  C_12 
ROOT
HETATM    1  C   UNL     1     -42.696  54.842 -54.316  1.00  0.00     0.725 A 
HETATM    2  N   UNL     1     -43.510  55.676 -53.718  1.00  0.00    -0.046 NA
HETATM    3  C   UNL     1     -43.827  56.592 -54.685  1.00  0.00     0.166 A 
HETATM    4  N   UNL     1     -43.257  56.361 -55.875  1.00  0.00    -0.144 NA
HETATM    5  N   UNL     1     -42.539  55.257 -55.610  1.00  0.00    -0.106 N 
HETATM    6  H   UNL     1     -41.983  54.845 -56.348  1.00  0.00     0.208 HD
ENDROOT
BRANCH   1   7
HETATM    7  N   UNL     1     -42.057  53.733 -53.815  1.00  0.00    -0.152 N 
HETATM    8  C   UNL     1     -40.767  53.405 -54.200  1.00  0.00     0.272 C 
HETATM    9  O   UNL     1     -40.034  54.025 -54.955  1.00  0.00    -0.267 OA
HETATM   10  H   UNL     1     -42.556  53.123 -53.186  1.00  0.00     0.187 HD
BRANCH   8  11
HETATM   11  C   UNL     1     -40.273  52.138 -53.600  1.00  0.00     0.066 A 
HETATM   12  C   UNL     1     -39.845  52.075 -52.267  1.00  0.00     0.084 A 
HETATM   13  C   UNL     1     -39.449  50.850 -51.722  1.00  0.00     0.038 A 
HETATM   14  C   UNL     1     -39.444  49.697 -52.507  1.00  0.00     0.003 A 
HETATM   15  C   UNL     1     -39.858  49.755 -53.836  1.00  0.00     0.001 A 
HETATM   16  C   UNL     1     -40.281  50.970 -54.382  1.00  0.00     0.020 A 
BRANCH  12  17
HETATM   17  O   UNL     1     -39.851  53.138 -51.404  1.00  0.00    -0.355 OA
HETATM   18  C   UNL     1     -40.516  52.831 -50.180  1.00  0.00     0.210 C 
ENDBRANCH  12  17
ENDBRANCH   8  11
ENDBRANCH   1   7
BRANCH   3  19
HETATM   19  C   UNL     1     -44.750  57.723 -54.405  1.00  0.00     0.087 C 
BRANCH  19  20
HETATM   20  C   UNL     1     -44.039  59.059 -54.192  1.00  0.00     0.048 C 
BRANCH  20  21
HETATM   21  C   UNL     1     -43.479  59.188 -52.808  1.00  0.00    -0.030 A 
HETATM   22  C   UNL     1     -42.100  59.130 -52.424  1.00  0.00    -0.002 A 
HETATM   23  C   UNL     1     -42.040  59.332 -51.045  1.00  0.00     0.042 A 
HETATM   24  C   UNL     1     -40.891  58.937 -53.125  1.00  0.00     0.014 A 
HETATM   25  C   UNL     1     -40.836  59.356 -50.331  1.00  0.00     0.030 A 
HETATM   26  N   UNL     1     -43.333  59.490 -50.603  1.00  0.00    -0.365 N 
HETATM   27  C   UNL     1     -39.653  59.167 -51.051  1.00  0.00     0.002 A 
HETATM   28  C   UNL     1     -39.677  58.960 -52.428  1.00  0.00     0.001 A 
HETATM   29  H   UNL     1     -43.594  59.655 -49.641  1.00  0.00     0.165 HD
HETATM   30  C   UNL     1     -44.206  59.406 -51.654  1.00  0.00     0.096 A 
ENDBRANCH  20  21
ENDBRANCH  19  20
ENDBRANCH   3  19
TORSDOF 6
ENDMDL
MODEL 3
REMARK VINA RESULT:      -8.4      2.419      8.491
REMARK  6 active torsions:
REMARK  status: ('A' for Active; 'I' for Inactive)
REMARK    1  A    between atoms: O_2  and  C_3 
REMARK    2  A    between atoms: C_4  and  C_5 
REMARK       I    between atoms: C_5  and  N_6 
REMARK    3  A    between atoms: N_6  and  C_7 
REMARK    4  A    between atoms: C_9  and  C_10 
REMARK    5  A    between atoms: C_10  and  C_11 
REMARK    6  A    between atoms: C_11  and  C_12 
ROOT
HETATM    1  C   UNL     1     -42.316  55.232 -53.914  1.00  0.00     0.725 A 
HETATM    2  N   UNL     1     -43.580  55.571 -53.973  1.00  0.00    -0.046 NA
HETATM    3  C   UNL     1     -43.565  56.856 -54.447  1.00  0.00     0.166 A 
HETATM    4  N   UNL     1     -42.341  57.336 -54.705  1.00  0.00    -0.144 NA
HETATM    5  N   UNL     1     -41.571  56.295 -54.348  1.00  0.00    -0.106 N 
HETATM    6  H   UNL     1     -40.567  56.376 -54.433  1.00  0.00     0.208 HD
ENDROOT
BRANCH   1   7
HETATM    7  N   UNL     1     -41.745  54.054 -53.496  1.00  0.00    -0.152 N 
HETATM    8  C   UNL     1     -40.671  53.493 -54.166  1.00  0.00     0.272 C 
HETATM    9  O   UNL     1     -40.080  53.941 -55.136  1.00  0.00    -0.267 OA
HETATM   10  H   UNL     1     -42.146  53.569 -52.708  1.00  0.00     0.187 HD
BRANCH   8  11
HETATM   11  C   UNL     1     -40.235  52.189 -53.602  1.00  0.00     0.066 A 
HETATM   12  C   UNL     1     -39.806  52.071 -52.272  1.00  0.00     0.084 A 
HETATM   13  C   UNL     1     -39.467  50.815 -51.760  1.00  0.00     0.038 A 
HETATM   14  C   UNL     1     -39.518  49.683 -52.575  1.00  0.00     0.003 A 
HETATM   15  C   UNL     1     -39.933  49.796 -53.900  1.00  0.00     0.001 A 
HETATM   16  C   UNL     1     -40.300  51.043 -54.413  1.00  0.00     0.020 A 
BRANCH  12  17
HETATM   17  O   UNL     1     -39.759  53.110 -51.382  1.00  0.00    -0.355 OA
HETATM   18  C   UNL     1     -40.466  52.818 -50.178  1.00  0.00     0.210 C 
ENDBRANCH  12  17
ENDBRANCH   8  11
ENDBRANCH   1   7
BRANCH   3  19
HETATM   19  C   UNL     1     -44.824  57.613 -54.667  1.00  0.00     0.087 C 
BRANCH  19  20
HETATM   20  C   UNL     1     -44.753  58.602 -55.831  1.00  0.00     0.048 C 
BRANCH  20  21
HETATM   21  C   UNL     1     -45.324  58.031 -57.093  1.00  0.00    -0.030 A 
HETATM   22  C   UNL     1     -44.631  57.268 -58.089  1.00  0.00    -0.002 A 
HETATM   23  C   UNL     1     -45.560  56.917 -59.069  1.00  0.00     0.042 A 
HETATM   24  C   UNL     1     -43.299  56.830 -58.240  1.00  0.00     0.014 A 
HETATM   25  C   UNL     1     -45.228  56.147 -60.190  1.00  0.00     0.030 A 
HETATM   26  N   UNL     1     -46.767  57.459 -58.694  1.00  0.00    -0.365 N 
HETATM   27  C   UNL     1     -43.902  55.722 -60.313  1.00  0.00     0.002 A 
HETATM   28  C   UNL     1     -42.949  56.058 -59.355  1.00  0.00     0.001 A 
HETATM   29  H   UNL     1     -47.625  57.363 -59.218  1.00  0.00     0.165 HD
HETATM   30  C   UNL     1     -46.638  58.131 -57.509  1.00  0.00     0.096 A 
ENDBRANCH  20  21
ENDBRANCH  19  20
ENDBRANCH   3  19
TORSDOF 6
ENDMDL
MODEL 4
REMARK VINA RESULT:      -8.4      1.458      1.701
REMARK  6 active torsions:
REMARK  status: ('A' for Active; 'I' for Inactive)
REMARK    1  A    between atoms: O_2  and  C_3 
REMARK    2  A    between atoms: C_4  and  C_5 
REMARK       I    between atoms: C_5  and  N_6 
REMARK    3  A    between atoms: N_6  and  C_7 
REMARK    4  A    between atoms: C_9  and  C_10 
REMARK    5  A    between atoms: C_10  and  C_11 
REMARK    6  A    between atoms: C_11  and  C_12 
ROOT
HETATM    1  C   UNL     1     -43.053  57.091 -55.704  1.00  0.00     0.725 A 
HETATM    2  N   UNL     1     -42.766  56.422 -54.614  1.00  0.00    -0.046 NA
HETATM    3  C   UNL     1     -41.937  57.256 -53.913  1.00  0.00     0.166 A 
HETATM    4  N   UNL     1     -41.702  58.433 -54.509  1.00  0.00    -0.144 NA
HETATM    5  N   UNL     1     -42.410  58.297 -55.643  1.00  0.00    -0.106 N 
HETATM    6  H   UNL     1     -42.413  59.055 -56.313  1.00  0.00     0.208 HD
ENDROOT
BRANCH   1   7
HETATM    7  N   UNL     1     -43.837  56.727 -56.772  1.00  0.00    -0.152 N 
HETATM    8  C   UNL     1     -43.419  56.927 -58.078  1.00  0.00     0.272 C 
HETATM    9  O   UNL     1     -42.352  57.384 -58.458  1.00  0.00    -0.267 OA
HETATM   10  H   UNL     1     -44.754  56.346 -56.599  1.00  0.00     0.187 HD
BRANCH   8  11
HETATM   11  C   UNL     1     -44.430  56.528 -59.092  1.00  0.00     0.066 A 
HETATM   12  C   UNL     1     -45.638  57.223 -59.236  1.00  0.00     0.084 A 
HETATM   13  C   UNL     1     -46.534  56.858 -60.246  1.00  0.00     0.038 A 
HETATM   14  C   UNL     1     -46.248  55.782 -61.088  1.00  0.00     0.003 A 
HETATM   15  C   UNL     1     -45.053  55.081 -60.942  1.00  0.00     0.001 A 
HETATM   16  C   UNL     1     -44.139  55.456 -59.954  1.00  0.00     0.020 A 
BRANCH  12  17
HETATM   17  O   UNL     1     -45.994  58.315 -58.490  1.00  0.00    -0.355 OA
HETATM   18  C   UNL     1     -47.101  58.041 -57.633  1.00  0.00     0.210 C 
ENDBRANCH  12  17
ENDBRANCH   8  11
ENDBRANCH   1   7
BRANCH   3  19
HETATM   19  C   UNL     1     -41.383  56.863 -52.591  1.00  0.00     0.087 C 
BRANCH  19  20
HETATM   20  C   UNL     1     -42.167  55.746 -51.903  1.00  0.00     0.048 C 
BRANCH  20  21
HETATM   21  C   UNL     1     -41.298  54.575 -51.558  1.00  0.00    -0.030 A 
HETATM   22  C   UNL     1     -40.905  53.504 -52.426  1.00  0.00    -0.002 A 
HETATM   23  C   UNL     1     -40.071  52.658 -51.695  1.00  0.00     0.042 A 
HETATM   24  C   UNL     1     -41.171  53.183 -53.773  1.00  0.00     0.014 A 
HETATM   25  C   UNL     1     -39.484  51.510 -52.242  1.00  0.00     0.030 A 
HETATM   26  N   UNL     1     -39.973  53.183 -50.427  1.00  0.00    -0.365 N 
HETATM   27  C   UNL     1     -39.761  51.218 -53.580  1.00  0.00     0.002 A 
HETATM   28  C   UNL     1     -40.592  52.040 -54.337  1.00  0.00     0.001 A 
HETATM   29  H   UNL     1     -39.428  52.777 -49.680  1.00  0.00     0.165 HD
HETATM   30  C   UNL     1     -40.706  54.334 -50.333  1.00  0.00     0.096 A 
ENDBRANCH  20  21
ENDBRANCH  19  20
ENDBRANCH   3  19
TORSDOF 6
ENDMDL
MODEL 5
REMARK VINA RESULT:      -8.4      2.087      2.462
REMARK  6 active torsions:
REMARK  status: ('A' for Active; 'I' for Inactive)
REMARK    1  A    between atoms: O_2  and  C_3 
REMARK    2  A    between atoms: C_4  and  C_5 
REMARK       I    between atoms: C_5  and  N_6 
REMARK    3  A    between atoms: N_6  and  C_7 
REMARK    4  A    between atoms: C_9  and  C_10 
REMARK    5  A    between atoms: C_10  and  C_11 
REMARK    6  A    between atoms: C_11  and  C_12 
ROOT
HETATM    1  C   UNL     1     -43.121  56.308 -56.823  1.00  0.00     0.725 A 
HETATM    2  N   UNL     1     -42.735  56.437 -55.578  1.00  0.00    -0.046 NA
HETATM    3  C   UNL     1     -42.798  55.166 -55.071  1.00  0.00     0.166 A 
HETATM    4  N   UNL     1     -43.194  54.237 -55.952  1.00  0.00    -0.144 NA
HETATM    5  N   UNL     1     -43.403  54.988 -57.047  1.00  0.00    -0.106 N 
HETATM    6  H   UNL     1     -43.723  54.540 -57.895  1.00  0.00     0.208 HD
ENDROOT
BRANCH   1   7
HETATM    7  N   UNL     1     -43.261  57.267 -57.799  1.00  0.00    -0.152 N 
HETATM    8  C   UNL     1     -42.869  57.031 -59.107  1.00  0.00     0.272 C 
HETATM    9  O   UNL     1     -42.410  56.000 -59.573  1.00  0.00    -0.267 OA
HETATM   10  H   UNL     1     -43.619  58.175 -57.545  1.00  0.00     0.187 HD
BRANCH   8  11
HETATM   11  C   UNL     1     -43.040  58.207 -59.998  1.00  0.00     0.066 A 
HETATM   12  C   UNL     1     -44.308  58.732 -60.285  1.00  0.00     0.084 A 
HETATM   13  C   UNL     1     -44.422  59.880 -61.076  1.00  0.00     0.038 A 
HETATM   14  C   UNL     1     -43.284  60.485 -61.611  1.00  0.00     0.003 A 
HETATM   15  C   UNL     1     -42.022  59.961 -61.338  1.00  0.00     0.001 A 
HETATM   16  C   UNL     1     -41.896  58.830 -60.526  1.00  0.00     0.020 A 
BRANCH  12  17
HETATM   17  O   UNL     1     -45.480  58.239 -59.779  1.00  0.00    -0.355 OA
HETATM   18  C   UNL     1     -46.147  59.187 -58.948  1.00  0.00     0.210 C 
ENDBRANCH  12  17
ENDBRANCH   8  11
ENDBRANCH   1   7
BRANCH   3  19
HETATM   19  C   UNL     1     -42.428  54.877 -53.662  1.00  0.00     0.087 C 
BRANCH  19  20
HETATM   20  C   UNL     1     -40.920  54.853 -53.414  1.00  0.00     0.048 C 
BRANCH  20  21
HETATM   21  C   UNL     1     -40.505  53.689 -52.565  1.00  0.00    -0.030 A 
HETATM   22  C   UNL     1     -40.258  52.346 -53.000  1.00  0.00    -0.002 A 
HETATM   23  C   UNL     1     -39.864  51.611 -51.882  1.00  0.00     0.042 A 
HETATM   24  C   UNL     1     -40.321  51.689 -54.246  1.00  0.00     0.014 A 
HETATM   25  C   UNL     1     -39.524  50.254 -51.945  1.00  0.00     0.030 A 
HETATM   26  N   UNL     1     -39.885  52.467 -50.806  1.00  0.00    -0.365 N 
HETATM   27  C   UNL     1     -39.590  49.628 -53.194  1.00  0.00     0.002 A 
HETATM   28  C   UNL     1     -39.983  50.333 -54.329  1.00  0.00     0.001 A 
HETATM   29  H   UNL     1     -39.642  52.206 -49.861  1.00  0.00     0.165 HD
HETATM   30  C   UNL     1     -40.269  53.719 -51.205  1.00  0.00     0.096 A 
ENDBRANCH  20  21
ENDBRANCH  19  20
ENDBRANCH   3  19
TORSDOF 6
ENDMDL
MODEL 6
REMARK VINA RESULT:      -8.3      5.823      7.882
REMARK  6 active torsions:
REMARK  status: ('A' for Active; 'I' for Inactive)
REMARK    1  A    between atoms: O_2  and  C_3 
REMARK    2  A    between atoms: C_4  and  C_5 
REMARK       I    between atoms: C_5  and  N_6 
REMARK    3  A    between atoms: N_6  and  C_7 
REMARK    4  A    between atoms: C_9  and  C_10 
REMARK    5  A    between atoms: C_10  and  C_11 
REMARK    6  A    between atoms: C_11  and  C_12 
ROOT
HETATM    1  C   UNL     1     -44.006  58.300 -51.460  1.00  0.00     0.725 A 
HETATM    2  N   UNL     1     -43.274  57.214 -51.458  1.00  0.00    -0.046 NA
HETATM    3  C   UNL     1     -43.573  56.602 -52.646  1.00  0.00     0.166 A 
HETATM    4  N   UNL     1     -44.453  57.267 -53.406  1.00  0.00    -0.144 NA
HETATM    5  N   UNL     1     -44.719  58.330 -52.628  1.00  0.00    -0.106 N 
HETATM    6  H   UNL     1     -45.377  59.024 -52.955  1.00  0.00     0.208 HD
ENDROOT
BRANCH   1   7
HETATM    7  N   UNL     1     -44.115  59.283 -50.506  1.00  0.00    -0.152 N 
HETATM    8  C   UNL     1     -45.327  59.897 -50.234  1.00  0.00     0.272 C 
HETATM    9  O   UNL     1     -46.415  59.652 -50.731  1.00  0.00    -0.267 OA
HETATM   10  H   UNL     1     -43.284  59.592 -50.025  1.00  0.00     0.187 HD
BRANCH   8  11
HETATM   11  C   UNL     1     -45.230  60.978 -49.218  1.00  0.00     0.066 A 
HETATM   12  C   UNL     1     -45.682  60.792 -47.904  1.00  0.00     0.084 A 
HETATM   13  C   UNL     1     -45.513  61.811 -46.961  1.00  0.00     0.038 A 
HETATM   14  C   UNL     1     -44.929  63.024 -47.329  1.00  0.00     0.003 A 
HETATM   15  C   UNL     1     -44.487  63.217 -48.636  1.00  0.00     0.001 A 
HETATM   16  C   UNL     1     -44.628  62.196 -49.579  1.00  0.00     0.020 A 
BRANCH  12  17
HETATM   17  O   UNL     1     -46.229  59.629 -47.433  1.00  0.00    -0.355 OA
HETATM   18  C   UNL     1     -46.544  59.708 -46.044  1.00  0.00     0.210 C 
ENDBRANCH  12  17
ENDBRANCH   8  11
ENDBRANCH   1   7
BRANCH   3  19
HETATM   19  C   UNL     1     -42.935  55.317 -53.035  1.00  0.00     0.087 C 
BRANCH  19  20
HETATM   20  C   UNL     1     -41.407  55.366 -53.041  1.00  0.00     0.048 C 
BRANCH  20  21
HETATM   21  C   UNL     1     -40.801  54.191 -52.336  1.00  0.00    -0.030 A 
HETATM   22  C   UNL     1     -40.516  52.901 -52.892  1.00  0.00    -0.002 A 
HETATM   23  C   UNL     1     -39.926  52.133 -51.888  1.00  0.00     0.042 A 
HETATM   24  C   UNL     1     -40.693  52.319 -54.165  1.00  0.00     0.014 A 
HETATM   25  C   UNL     1     -39.500  50.815 -52.090  1.00  0.00     0.030 A 
HETATM   26  N   UNL     1     -39.870  52.918 -50.760  1.00  0.00    -0.365 N 
HETATM   27  C   UNL     1     -39.683  50.264 -53.361  1.00  0.00     0.002 A 
HETATM   28  C   UNL     1     -40.271  51.002 -54.386  1.00  0.00     0.001 A 
HETATM   29  H   UNL     1     -39.487  52.620 -49.874  1.00  0.00     0.165 HD
HETATM   30  C   UNL     1     -40.392  54.156 -51.017  1.00  0.00     0.096 A 
ENDBRANCH  20  21
ENDBRANCH  19  20
ENDBRANCH   3  19
TORSDOF 6
ENDMDL
MODEL 7
REMARK VINA RESULT:      -8.2      2.842      8.349
REMARK  6 active torsions:
REMARK  status: ('A' for Active; 'I' for Inactive)
REMARK    1  A    between atoms: O_2  and  C_3 
REMARK    2  A    between atoms: C_4  and  C_5 
REMARK       I    between atoms: C_5  and  N_6 
REMARK    3  A    between atoms: N_6  and  C_7 
REMARK    4  A    between atoms: C_9  and  C_10 
REMARK    5  A    between atoms: C_10  and  C_11 
REMARK    6  A    between atoms: C_11  and  C_12 
ROOT
HETATM    1  C   UNL     1     -42.565  55.127 -53.645  1.00  0.00     0.725 A 
HETATM    2  N   UNL     1     -42.096  56.348 -53.715  1.00  0.00    -0.046 NA
HETATM    3  C   UNL     1     -43.165  57.098 -54.128  1.00  0.00     0.166 A 
HETATM    4  N   UNL     1     -44.295  56.401 -54.306  1.00  0.00    -0.144 NA
HETATM    5  N   UNL     1     -43.885  55.157 -54.005  1.00  0.00    -0.106 N 
HETATM    6  H   UNL     1     -44.548  54.396 -54.059  1.00  0.00     0.208 HD
ENDROOT
BRANCH   1   7
HETATM    7  N   UNL     1     -41.923  53.963 -53.296  1.00  0.00    -0.152 N 
HETATM    8  C   UNL     1     -40.849  53.481 -54.025  1.00  0.00     0.272 C 
HETATM    9  O   UNL     1     -40.316  53.996 -54.996  1.00  0.00    -0.267 OA
HETATM   10  H   UNL     1     -42.272  53.428 -52.515  1.00  0.00     0.187 HD
BRANCH   8  11
HETATM   11  C   UNL     1     -40.331  52.179 -53.530  1.00  0.00     0.066 A 
HETATM   12  C   UNL     1     -39.834  52.034 -52.228  1.00  0.00     0.084 A 
HETATM   13  C   UNL     1     -39.418  50.777 -51.778  1.00  0.00     0.038 A 
HETATM   14  C   UNL     1     -39.460  49.673 -52.631  1.00  0.00     0.003 A 
HETATM   15  C   UNL     1     -39.943  49.813 -53.930  1.00  0.00     0.001 A 
HETATM   16  C   UNL     1     -40.387  51.060 -54.379  1.00  0.00     0.020 A 
BRANCH  12  17
HETATM   17  O   UNL     1     -39.789  53.043 -51.303  1.00  0.00    -0.355 OA
HETATM   18  C   UNL     1     -40.461  52.694 -50.094  1.00  0.00     0.210 C 
ENDBRANCH  12  17
ENDBRANCH   8  11
ENDBRANCH   1   7
BRANCH   3  19
HETATM   19  C   UNL     1     -43.048  58.566 -54.328  1.00  0.00     0.087 C 
BRANCH  19  20
HETATM   20  C   UNL     1     -43.830  59.087 -55.533  1.00  0.00     0.048 C 
BRANCH  20  21
HETATM   21  C   UNL     1     -43.014  59.060 -56.791  1.00  0.00    -0.030 A 
HETATM   22  C   UNL     1     -42.939  57.997 -57.750  1.00  0.00    -0.002 A 
HETATM   23  C   UNL     1     -42.089  58.417 -58.773  1.00  0.00     0.042 A 
HETATM   24  C   UNL     1     -43.527  56.719 -57.848  1.00  0.00     0.014 A 
HETATM   25  C   UNL     1     -41.800  57.628 -59.893  1.00  0.00     0.030 A 
HETATM   26  N   UNL     1     -41.651  59.678 -58.444  1.00  0.00    -0.365 N 
HETATM   27  C   UNL     1     -42.400  56.367 -59.968  1.00  0.00     0.002 A 
HETATM   28  C   UNL     1     -43.250  55.916 -58.962  1.00  0.00     0.001 A 
HETATM   29  H   UNL     1     -41.021  60.231 -59.008  1.00  0.00     0.165 HD
HETATM   30  C   UNL     1     -42.200  60.075 -57.255  1.00  0.00     0.096 A 
ENDBRANCH  20  21
ENDBRANCH  19  20
ENDBRANCH   3  19
TORSDOF 6
ENDMDL
MODEL 8
REMARK VINA RESULT:      -8.0      5.053      6.592
REMARK  6 active torsions:
REMARK  status: ('A' for Active; 'I' for Inactive)
REMARK    1  A    between atoms: O_2  and  C_3 
REMARK    2  A    between atoms: C_4  and  C_5 
REMARK       I    between atoms: C_5  and  N_6 
REMARK    3  A    between atoms: N_6  and  C_7 
REMARK    4  A    between atoms: C_9  and  C_10 
REMARK    5  A    between atoms: C_10  and  C_11 
REMARK    6  A    between atoms: C_11  and  C_12 
ROOT
HETATM    1  C   UNL     1     -43.712  58.051 -52.666  1.00  0.00     0.725 A 
HETATM    2  N   UNL     1     -42.435  57.889 -52.906  1.00  0.00    -0.046 NA
HETATM    3  C   UNL     1     -42.309  56.555 -53.186  1.00  0.00     0.166 A 
HETATM    4  N   UNL     1     -43.460  55.870 -53.149  1.00  0.00    -0.144 NA
HETATM    5  N   UNL     1     -44.328  56.837 -52.806  1.00  0.00    -0.106 N 
HETATM    6  H   UNL     1     -45.305  56.602 -52.695  1.00  0.00     0.208 HD
ENDROOT
BRANCH   1   7
HETATM    7  N   UNL     1     -44.400  59.189 -52.318  1.00  0.00    -0.152 N 
HETATM    8  C   UNL     1     -45.384  59.172 -51.343  1.00  0.00     0.272 C 
HETATM    9  O   UNL     1     -45.740  58.224 -50.661  1.00  0.00    -0.267 OA
HETATM   10  H   UNL     1     -44.210  60.046 -52.815  1.00  0.00     0.187 HD
BRANCH   8  11
HETATM   11  C   UNL     1     -46.055  60.484 -51.154  1.00  0.00     0.066 A 
HETATM   12  C   UNL     1     -45.818  61.273 -50.020  1.00  0.00     0.084 A 
HETATM   13  C   UNL     1     -46.419  62.531 -49.911  1.00  0.00     0.038 A 
HETATM   14  C   UNL     1     -47.282  62.990 -50.907  1.00  0.00     0.003 A 
HETATM   15  C   UNL     1     -47.530  62.205 -52.032  1.00  0.00     0.001 A 
HETATM   16  C   UNL     1     -46.912  60.958 -52.162  1.00  0.00     0.020 A 
BRANCH  12  17
HETATM   17  O   UNL     1     -44.960  60.933 -49.009  1.00  0.00    -0.355 OA
HETATM   18  C   UNL     1     -45.623  60.846 -47.749  1.00  0.00     0.210 C 
ENDBRANCH  12  17
ENDBRANCH   8  11
ENDBRANCH   1   7
BRANCH   3  19
HETATM   19  C   UNL     1     -40.991  55.957 -53.524  1.00  0.00     0.087 C 
BRANCH  19  20
HETATM   20  C   UNL     1     -41.079  54.515 -54.023  1.00  0.00     0.048 C 
BRANCH  20  21
HETATM   21  C   UNL     1     -40.606  53.531 -52.996  1.00  0.00    -0.030 A 
HETATM   22  C   UNL     1     -40.298  52.147 -53.202  1.00  0.00    -0.002 A 
HETATM   23  C   UNL     1     -39.865  51.628 -51.981  1.00  0.00     0.042 A 
HETATM   24  C   UNL     1     -40.334  51.288 -54.320  1.00  0.00     0.014 A 
HETATM   25  C   UNL     1     -39.462  50.298 -51.821  1.00  0.00     0.030 A 
HETATM   26  N   UNL     1     -39.923  52.652 -51.064  1.00  0.00    -0.365 N 
HETATM   27  C   UNL     1     -39.503  49.469 -52.946  1.00  0.00     0.002 A 
HETATM   28  C   UNL     1     -39.933  49.954 -54.179  1.00  0.00     0.001 A 
HETATM   29  H   UNL     1     -39.664  52.564 -50.092  1.00  0.00     0.165 HD
HETATM   30  C   UNL     1     -40.367  53.799 -51.662  1.00  0.00     0.096 A 
ENDBRANCH  20  21
ENDBRANCH  19  20
ENDBRANCH   3  19
TORSDOF 6
ENDMDL
MODEL 9
REMARK VINA RESULT:      -8.0      2.434      8.510
REMARK  6 active torsions:
REMARK  status: ('A' for Active; 'I' for Inactive)
REMARK    1  A    between atoms: O_2  and  C_3 
REMARK    2  A    between atoms: C_4  and  C_5 
REMARK       I    between atoms: C_5  and  N_6 
REMARK    3  A    between atoms: N_6  and  C_7 
REMARK    4  A    between atoms: C_9  and  C_10 
REMARK    5  A    between atoms: C_10  and  C_11 
REMARK    6  A    between atoms: C_11  and  C_12 
ROOT
HETATM    1  C   UNL     1     -43.086  55.928 -53.457  1.00  0.00     0.725 A 
HETATM    2  N   UNL     1     -43.994  56.038 -54.395  1.00  0.00    -0.046 NA
HETATM    3  C   UNL     1     -44.335  57.364 -54.382  1.00  0.00     0.166 A 
HETATM    4  N   UNL     1     -43.667  58.099 -53.482  1.00  0.00    -0.144 NA
HETATM    5  N   UNL     1     -42.894  57.165 -52.904  1.00  0.00    -0.106 N 
HETATM    6  H   UNL     1     -42.267  57.439 -52.160  1.00  0.00     0.208 HD
ENDROOT
BRANCH   1   7
HETATM    7  N   UNL     1     -42.404  54.815 -53.026  1.00  0.00    -0.152 N 
HETATM    8  C   UNL     1     -41.092  54.580 -53.402  1.00  0.00     0.272 C 
HETATM    9  O   UNL     1     -40.374  55.290 -54.088  1.00  0.00    -0.267 OA
HETATM   10  H   UNL     1     -42.887  54.135 -52.459  1.00  0.00     0.187 HD
BRANCH   8  11
HETATM   11  C   UNL     1     -40.549  53.295 -52.888  1.00  0.00     0.066 A 
HETATM   12  C   UNL     1     -40.479  53.025 -51.515  1.00  0.00     0.084 A 
HETATM   13  C   UNL     1     -40.022  51.779 -51.074  1.00  0.00     0.038 A 
HETATM   14  C   UNL     1     -39.603  50.816 -51.993  1.00  0.00     0.003 A 
HETATM   15  C   UNL     1     -39.660  51.083 -53.359  1.00  0.00     0.001 A 
HETATM   16  C   UNL     1     -40.140  52.315 -53.810  1.00  0.00     0.020 A 
BRANCH  12  17
HETATM   17  O   UNL     1     -40.902  53.884 -50.536  1.00  0.00    -0.355 OA
HETATM   18  C   UNL     1     -39.824  54.350 -49.728  1.00  0.00     0.210 C 
ENDBRANCH  12  17
ENDBRANCH   8  11
ENDBRANCH   1   7
BRANCH   3  19
HETATM   19  C   UNL     1     -45.350  57.910 -55.319  1.00  0.00     0.087 C 
BRANCH  19  20
HETATM   20  C   UNL     1     -44.750  58.646 -56.516  1.00  0.00     0.048 C 
BRANCH  20  21
HETATM   21  C   UNL     1     -44.169  57.704 -57.527  1.00  0.00    -0.030 A 
HETATM   22  C   UNL     1     -44.856  57.069 -58.612  1.00  0.00    -0.002 A 
HETATM   23  C   UNL     1     -43.919  56.307 -59.311  1.00  0.00     0.042 A 
HETATM   24  C   UNL     1     -46.188  57.082 -59.075  1.00  0.00     0.014 A 
HETATM   25  C   UNL     1     -44.244  55.562 -60.451  1.00  0.00     0.030 A 
HETATM   26  N   UNL     1     -42.714  56.458 -58.668  1.00  0.00    -0.365 N 
HETATM   27  C   UNL     1     -45.571  55.596 -60.891  1.00  0.00     0.002 A 
HETATM   28  C   UNL     1     -46.531  56.344 -60.214  1.00  0.00     0.001 A 
HETATM   29  H   UNL     1     -41.851  56.019 -58.957  1.00  0.00     0.165 HD
HETATM   30  C   UNL     1     -42.851  57.295 -57.594  1.00  0.00     0.096 A 
ENDBRANCH  20  21
ENDBRANCH  19  20
ENDBRANCH   3  19
TORSDOF 6
ENDMDL
MODEL 10
REMARK VINA RESULT:      -7.9      3.231      8.639
REMARK  6 active torsions:
REMARK  status: ('A' for Active; 'I' for Inactive)
REMARK    1  A    between atoms: O_2  and  C_3 
REMARK    2  A    between atoms: C_4  and  C_5 
REMARK       I    between atoms: C_5  and  N_6 
REMARK    3  A    between atoms: N_6  and  C_7 
REMARK    4  A    between atoms: C_9  and  C_10 
REMARK    5  A    between atoms: C_10  and  C_11 
REMARK    6  A    between atoms: C_11  and  C_12 
ROOT
HETATM    1  C   UNL     1     -42.162  55.454 -53.224  1.00  0.00     0.725 A 
HETATM    2  N   UNL     1     -43.366  55.797 -53.610  1.00  0.00    -0.046 NA
HETATM    3  C   UNL     1     -43.334  57.165 -53.645  1.00  0.00     0.166 A 
HETATM    4  N   UNL     1     -42.152  57.700 -53.313  1.00  0.00    -0.144 NA
HETATM    5  N   UNL     1     -41.434  56.598 -53.040  1.00  0.00    -0.106 N 
HETATM    6  H   UNL     1     -40.471  56.699 -52.747  1.00  0.00     0.208 HD
ENDROOT
BRANCH   1   7
HETATM    7  N   UNL     1     -41.637  54.203 -53.006  1.00  0.00    -0.152 N 
HETATM    8  C   UNL     1     -40.609  53.703 -53.789  1.00  0.00     0.272 C 
HETATM    9  O   UNL     1     -40.025  54.266 -54.701  1.00  0.00    -0.267 OA
HETATM   10  H   UNL     1     -42.039  53.623 -52.285  1.00  0.00     0.187 HD
BRANCH   8  11
HETATM   11  C   UNL     1     -40.221  52.311 -53.439  1.00  0.00     0.066 A 
HETATM   12  C   UNL     1     -39.751  51.979 -52.161  1.00  0.00     0.084 A 
HETATM   13  C   UNL     1     -39.459  50.647 -51.853  1.00  0.00     0.038 A 
HETATM   14  C   UNL     1     -39.597  49.652 -52.821  1.00  0.00     0.003 A 
HETATM   15  C   UNL     1     -40.054  49.977 -54.096  1.00  0.00     0.001 A 
HETATM   16  C   UNL     1     -40.374  51.302 -54.406  1.00  0.00     0.020 A 
BRANCH  12  17
HETATM   17  O   UNL     1     -39.619  52.872 -51.132  1.00  0.00    -0.355 OA
HETATM   18  C   UNL     1     -40.441  52.531 -50.017  1.00  0.00     0.210 C 
ENDBRANCH  12  17
ENDBRANCH   8  11
ENDBRANCH   1   7
BRANCH   3  19
HETATM   19  C   UNL     1     -44.526  57.956 -54.048  1.00  0.00     0.087 C 
BRANCH  19  20
HETATM   20  C   UNL     1     -44.945  57.741 -55.502  1.00  0.00     0.048 C 
BRANCH  20  21
HETATM   21  C   UNL     1     -43.822  58.005 -56.459  1.00  0.00    -0.030 A 
HETATM   22  C   UNL     1     -43.250  59.276 -56.791  1.00  0.00    -0.002 A 
HETATM   23  C   UNL     1     -42.212  59.044 -57.695  1.00  0.00     0.042 A 
HETATM   24  C   UNL     1     -43.509  60.604 -56.395  1.00  0.00     0.014 A 
HETATM   25  C   UNL     1     -41.417  60.070 -58.219  1.00  0.00     0.030 A 
HETATM   26  N   UNL     1     -42.165  57.688 -57.918  1.00  0.00    -0.365 N 
HETATM   27  C   UNL     1     -41.693  61.377 -57.807  1.00  0.00     0.002 A 
HETATM   28  C   UNL     1     -42.724  61.644 -56.909  1.00  0.00     0.001 A 
HETATM   29  H   UNL     1     -41.506  57.230 -58.531  1.00  0.00     0.165 HD
HETATM   30  C   UNL     1     -43.128  57.053 -57.181  1.00  0.00     0.096 A 
ENDBRANCH  20  21
ENDBRANCH  19  20
ENDBRANCH   3  19
TORSDOF 6
ENDMDL
