MODEL 1
REMARK VINA RESULT:      -8.7      0.000      0.000
REMARK  3 active torsions:
REMARK  status: ('A' for Active; 'I' for Inactive)
REMARK    1  A    between atoms: O_2  and  C_3 
REMARK    2  A    between atoms: C_9  and  C_10 
REMARK       I    between atoms: C_10  and  N_11 
REMARK    3  A    between atoms: N_11  and  C_12 
ROOT
HETATM    1  C   UNL     1     -39.801  51.725 -51.687  1.00  0.00     0.068 A 
HETATM    2  C   UNL     1     -39.896  51.969 -53.060  1.00  0.00     0.044 A 
HETATM    3  C   UNL     1     -40.431  53.173 -53.538  1.00  0.00    -0.043 A 
HETATM    4  C   UNL     1     -40.856  54.158 -52.618  1.00  0.00    -0.001 A 
HETATM    5  C   UNL     1     -41.410  55.376 -53.185  1.00  0.00     0.069 A 
HETATM    6  C   UNL     1     -41.738  55.531 -54.512  1.00  0.00     0.007 A 
HETATM    7  C   UNL     1     -42.265  56.839 -54.629  1.00  0.00     0.153 A 
HETATM    8  N   UNL     1     -42.233  57.477 -53.434  1.00  0.00    -0.168 NA
HETATM    9  N   UNL     1     -41.709  56.561 -52.587  1.00  0.00    -0.276 N 
HETATM   10  H   UNL     1     -41.585  56.819 -51.614  1.00  0.00     0.189 HD
HETATM   11  C   UNL     1     -41.561  54.431 -55.497  1.00  0.00     0.048 C 
HETATM   12  C   UNL     1     -40.457  53.451 -55.038  1.00  0.00     0.044 C 
HETATM   13  C   UNL     1     -40.765  53.911 -51.247  1.00  0.00     0.017 A 
HETATM   14  C   UNL     1     -40.241  52.697 -50.785  1.00  0.00     0.037 A 
ENDROOT
BRANCH   7  15
HETATM   15  C   UNL     1     -42.826  57.476 -55.836  1.00  0.00     0.277 C 
HETATM   16  N   UNL     1     -41.910  57.520 -56.871  1.00  0.00    -0.320 N 
HETATM   17  H   UNL     1     -40.963  57.334 -56.550  1.00  0.00     0.169 HD
HETATM   18  O   UNL     1     -43.946  57.971 -55.838  1.00  0.00    -0.266 OA
BRANCH  16  19
HETATM   19  C   UNL     1     -42.097  58.150 -58.120  1.00  0.00     0.057 A 
HETATM   20  C   UNL     1     -42.562  57.527 -59.295  1.00  0.00     0.063 A 
HETATM   21 CL   UNL     1     -42.690  55.811 -59.483  1.00  0.00    -0.082 Cl
HETATM   22  C   UNL     1     -42.784  58.284 -60.451  1.00  0.00     0.068 A 
HETATM   23  C   UNL     1     -42.505  59.643 -60.450  1.00  0.00     0.118 A 
HETATM   24  F   UNL     1     -42.715  60.361 -61.561  1.00  0.00    -0.206 F 
HETATM   25  C   UNL     1     -41.981  60.262 -59.325  1.00  0.00     0.044 A 
HETATM   26  C   UNL     1     -41.766  59.514 -58.166  1.00  0.00     0.034 A 
ENDBRANCH  16  19
ENDBRANCH   7  15
BRANCH   1  27
HETATM   27  O   UNL     1     -39.267  50.509 -51.364  1.00  0.00    -0.356 OA
HETATM   28  C   UNL     1     -39.590  49.415 -52.212  1.00  0.00     0.210 C 
ENDBRANCH   1  27
TORSDOF 3
ENDMDL
MODEL 2
REMARK VINA RESULT:      -8.6      1.823      1.993
REMARK  3 active torsions:
REMARK  status: ('A' for Active; 'I' for Inactive)
REMARK    1  A    between atoms: O_2  and  C_3 
REMARK    2  A    between atoms: C_9  and  C_10 
REMARK       I    between atoms: C_10  and  N_11 
REMARK    3  A    between atoms: N_11  and  C_12 
ROOT
HETATM    1  C   UNL     1     -39.874  51.746 -51.726  1.00  0.00     0.068 A 
HETATM    2  C   UNL     1     -39.889  52.043 -53.091  1.00  0.00     0.044 A 
HETATM    3  C   UNL     1     -40.415  53.257 -53.554  1.00  0.00    -0.043 A 
HETATM    4  C   UNL     1     -40.912  54.198 -52.624  1.00  0.00    -0.001 A 
HETATM    5  C   UNL     1     -41.452  55.429 -53.175  1.00  0.00     0.069 A 
HETATM    6  C   UNL     1     -41.703  55.632 -54.514  1.00  0.00     0.007 A 
HETATM    7  C   UNL     1     -42.244  56.936 -54.611  1.00  0.00     0.153 A 
HETATM    8  N   UNL     1     -42.296  57.525 -53.393  1.00  0.00    -0.168 NA
HETATM    9  N   UNL     1     -41.808  56.585 -52.551  1.00  0.00    -0.276 N 
HETATM   10  H   UNL     1     -41.747  56.806 -51.563  1.00  0.00     0.189 HD
HETATM   11  C   UNL     1     -41.446  54.575 -55.528  1.00  0.00     0.048 C 
HETATM   12  C   UNL     1     -40.356  53.594 -55.040  1.00  0.00     0.044 C 
HETATM   13  C   UNL     1     -40.900  53.898 -51.261  1.00  0.00     0.017 A 
HETATM   14  C   UNL     1     -40.384  52.674 -50.815  1.00  0.00     0.037 A 
ENDROOT
BRANCH   7  15
HETATM   15  C   UNL     1     -42.743  57.611 -55.824  1.00  0.00     0.277 C 
HETATM   16  N   UNL     1     -43.894  57.018 -56.312  1.00  0.00    -0.320 N 
HETATM   17  H   UNL     1     -44.051  56.100 -55.903  1.00  0.00     0.169 HD
HETATM   18  O   UNL     1     -42.123  58.528 -56.349  1.00  0.00    -0.266 OA
BRANCH  16  19
HETATM   19  C   UNL     1     -44.561  57.358 -57.507  1.00  0.00     0.057 A 
HETATM   20  C   UNL     1     -44.260  56.860 -58.790  1.00  0.00     0.063 A 
HETATM   21 CL   UNL     1     -42.817  55.980 -59.160  1.00  0.00    -0.082 Cl
HETATM   22  C   UNL     1     -45.055  57.215 -59.886  1.00  0.00     0.068 A 
HETATM   23  C   UNL     1     -46.116  58.091 -59.714  1.00  0.00     0.118 A 
HETATM   24  F   UNL     1     -46.871  58.430 -60.767  1.00  0.00    -0.206 F 
HETATM   25  C   UNL     1     -46.388  58.647 -58.472  1.00  0.00     0.044 A 
HETATM   26  C   UNL     1     -45.604  58.290 -57.373  1.00  0.00     0.034 A 
ENDBRANCH  16  19
ENDBRANCH   7  15
BRANCH   1  27
HETATM   27  O   UNL     1     -39.338  50.526 -51.418  1.00  0.00    -0.356 OA
HETATM   28  C   UNL     1     -39.556  49.472 -52.346  1.00  0.00     0.210 C 
ENDBRANCH   1  27
TORSDOF 3
ENDMDL
MODEL 3
REMARK VINA RESULT:      -8.4      3.998      8.689
REMARK  3 active torsions:
REMARK  status: ('A' for Active; 'I' for Inactive)
REMARK    1  A    between atoms: O_2  and  C_3 
REMARK    2  A    between atoms: C_9  and  C_10 
REMARK       I    between atoms: C_10  and  N_11 
REMARK    3  A    between atoms: N_11  and  C_12 
ROOT
HETATM    1  C   UNL     1     -42.782  59.196 -59.471  1.00  0.00     0.068 A 
HETATM    2  C   UNL     1     -43.057  57.844 -59.252  1.00  0.00     0.044 A 
HETATM    3  C   UNL     1     -42.874  57.272 -57.986  1.00  0.00    -0.043 A 
HETATM    4  C   UNL     1     -42.428  58.081 -56.916  1.00  0.00    -0.001 A 
HETATM    5  C   UNL     1     -42.250  57.419 -55.636  1.00  0.00     0.069 A 
HETATM    6  C   UNL     1     -42.275  56.054 -55.460  1.00  0.00     0.007 A 
HETATM    7  C   UNL     1     -42.033  55.837 -54.083  1.00  0.00     0.153 A 
HETATM    8  N   UNL     1     -41.898  57.015 -53.429  1.00  0.00    -0.168 NA
HETATM    9  N   UNL     1     -42.036  57.948 -54.400  1.00  0.00    -0.276 N 
HETATM   10  H   UNL     1     -41.973  58.926 -54.141  1.00  0.00     0.189 HD
HETATM   11  C   UNL     1     -42.479  55.121 -56.601  1.00  0.00     0.048 C 
HETATM   12  C   UNL     1     -43.250  55.813 -57.749  1.00  0.00     0.044 C 
HETATM   13  C   UNL     1     -42.149  59.431 -57.138  1.00  0.00     0.017 A 
HETATM   14  C   UNL     1     -42.324  59.985 -58.413  1.00  0.00     0.037 A 
ENDROOT
BRANCH   7  15
HETATM   15  C   UNL     1     -41.894  54.542 -53.391  1.00  0.00     0.277 C 
HETATM   16  N   UNL     1     -40.684  53.931 -53.672  1.00  0.00    -0.320 N 
HETATM   17  H   UNL     1     -40.222  54.353 -54.474  1.00  0.00     0.169 HD
HETATM   18  O   UNL     1     -42.808  54.066 -52.728  1.00  0.00    -0.266 OA
BRANCH  16  19
HETATM   19  C   UNL     1     -40.285  52.646 -53.251  1.00  0.00     0.057 A 
HETATM   20  C   UNL     1     -39.903  52.288 -51.942  1.00  0.00     0.063 A 
HETATM   21 CL   UNL     1     -39.564  53.441 -50.697  1.00  0.00    -0.082 Cl
HETATM   22  C   UNL     1     -39.607  50.956 -51.636  1.00  0.00     0.068 A 
HETATM   23  C   UNL     1     -39.650  49.992 -52.633  1.00  0.00     0.118 A 
HETATM   24  F   UNL     1     -39.362  48.719 -52.334  1.00  0.00    -0.206 F 
HETATM   25  C   UNL     1     -39.957  50.334 -53.942  1.00  0.00     0.044 A 
HETATM   26  C   UNL     1     -40.261  51.661 -54.253  1.00  0.00     0.034 A 
ENDBRANCH  16  19
ENDBRANCH   7  15
BRANCH   1  27
HETATM   27  O   UNL     1     -43.000  59.617 -60.753  1.00  0.00    -0.356 OA
HETATM   28  C   UNL     1     -42.139  60.631 -61.256  1.00  0.00     0.210 C 
ENDBRANCH   1  27
TORSDOF 3
ENDMDL
MODEL 4
REMARK VINA RESULT:      -8.2      2.636      3.205
REMARK  3 active torsions:
REMARK  status: ('A' for Active; 'I' for Inactive)
REMARK    1  A    between atoms: O_2  and  C_3 
REMARK    2  A    between atoms: C_9  and  C_10 
REMARK       I    between atoms: C_10  and  N_11 
REMARK    3  A    between atoms: N_11  and  C_12 
ROOT
HETATM    1  C   UNL     1     -40.892  54.107 -51.080  1.00  0.00     0.068 A 
HETATM    2  C   UNL     1     -41.098  53.601 -52.365  1.00  0.00     0.044 A 
HETATM    3  C   UNL     1     -41.426  54.454 -53.427  1.00  0.00    -0.043 A 
HETATM    4  C   UNL     1     -41.524  55.845 -53.196  1.00  0.00    -0.001 A 
HETATM    5  C   UNL     1     -41.879  56.667 -54.339  1.00  0.00     0.069 A 
HETATM    6  C   UNL     1     -42.325  56.168 -55.542  1.00  0.00     0.007 A 
HETATM    7  C   UNL     1     -42.580  57.297 -56.357  1.00  0.00     0.153 A 
HETATM    8  N   UNL     1     -42.273  58.441 -55.700  1.00  0.00    -0.168 NA
HETATM    9  N   UNL     1     -41.853  58.020 -54.486  1.00  0.00    -0.276 N 
HETATM   10  H   UNL     1     -41.561  58.716 -53.808  1.00  0.00     0.189 HD
HETATM   11  C   UNL     1     -42.498  54.709 -55.769  1.00  0.00     0.048 C 
HETATM   12  C   UNL     1     -41.574  53.891 -54.837  1.00  0.00     0.044 C 
HETATM   13  C   UNL     1     -41.323  56.349 -51.910  1.00  0.00     0.017 A 
HETATM   14  C   UNL     1     -41.010  55.481 -50.855  1.00  0.00     0.037 A 
ENDROOT
BRANCH   7  15
HETATM   15  C   UNL     1     -43.138  57.309 -57.723  1.00  0.00     0.277 C 
HETATM   16  N   UNL     1     -44.505  57.097 -57.726  1.00  0.00    -0.320 N 
HETATM   17  H   UNL     1     -44.837  56.738 -56.833  1.00  0.00     0.169 HD
HETATM   18  O   UNL     1     -42.419  57.408 -58.709  1.00  0.00    -0.266 OA
BRANCH  16  19
HETATM   19  C   UNL     1     -45.321  56.951 -58.867  1.00  0.00     0.057 A 
HETATM   20  C   UNL     1     -45.389  55.811 -59.692  1.00  0.00     0.063 A 
HETATM   21 CL   UNL     1     -44.251  54.509 -59.619  1.00  0.00    -0.082 Cl
HETATM   22  C   UNL     1     -46.304  55.762 -60.750  1.00  0.00     0.068 A 
HETATM   23  C   UNL     1     -47.116  56.856 -61.010  1.00  0.00     0.118 A 
HETATM   24  F   UNL     1     -47.987  56.804 -62.027  1.00  0.00    -0.206 F 
HETATM   25  C   UNL     1     -47.017  58.014 -60.254  1.00  0.00     0.044 A 
HETATM   26  C   UNL     1     -46.112  58.066 -59.192  1.00  0.00     0.034 A 
ENDBRANCH  16  19
ENDBRANCH   7  15
BRANCH   1  27
HETATM   27  O   UNL     1     -40.585  53.162 -50.141  1.00  0.00    -0.356 OA
HETATM   28  C   UNL     1     -40.212  51.875 -50.617  1.00  0.00     0.210 C 
ENDBRANCH   1  27
TORSDOF 3
ENDMDL
MODEL 5
REMARK VINA RESULT:      -8.1      4.304      5.488
REMARK  3 active torsions:
REMARK  status: ('A' for Active; 'I' for Inactive)
REMARK    1  A    between atoms: O_2  and  C_3 
REMARK    2  A    between atoms: C_9  and  C_10 
REMARK       I    between atoms: C_10  and  N_11 
REMARK    3  A    between atoms: N_11  and  C_12 
ROOT
HETATM    1  C   UNL     1     -39.843  51.088 -52.885  1.00  0.00     0.068 A 
HETATM    2  C   UNL     1     -40.197  52.068 -51.955  1.00  0.00     0.044 A 
HETATM    3  C   UNL     1     -40.569  53.352 -52.373  1.00  0.00    -0.043 A 
HETATM    4  C   UNL     1     -40.608  53.648 -53.756  1.00  0.00    -0.001 A 
HETATM    5  C   UNL     1     -40.991  55.002 -54.116  1.00  0.00     0.069 A 
HETATM    6  C   UNL     1     -41.100  56.040 -53.219  1.00  0.00     0.007 A 
HETATM    7  C   UNL     1     -41.462  57.175 -53.983  1.00  0.00     0.153 A 
HETATM    8  N   UNL     1     -41.604  56.846 -55.289  1.00  0.00    -0.168 NA
HETATM    9  N   UNL     1     -41.312  55.526 -55.330  1.00  0.00    -0.276 N 
HETATM   10  H   UNL     1     -41.355  55.050 -56.225  1.00  0.00     0.189 HD
HETATM   11  C   UNL     1     -40.813  55.857 -51.771  1.00  0.00     0.048 C 
HETATM   12  C   UNL     1     -41.023  54.385 -51.347  1.00  0.00     0.044 C 
HETATM   13  C   UNL     1     -40.249  52.669 -54.684  1.00  0.00     0.017 A 
HETATM   14  C   UNL     1     -39.867  51.394 -54.248  1.00  0.00     0.037 A 
ENDROOT
BRANCH   7  15
HETATM   15  C   UNL     1     -41.639  58.559 -53.504  1.00  0.00     0.277 C 
HETATM   16  N   UNL     1     -42.730  58.681 -52.663  1.00  0.00    -0.320 N 
HETATM   17  H   UNL     1     -43.343  57.871 -52.714  1.00  0.00     0.169 HD
HETATM   18  O   UNL     1     -40.930  59.473 -53.907  1.00  0.00    -0.266 OA
BRANCH  16  19
HETATM   19  C   UNL     1     -43.229  59.882 -52.117  1.00  0.00     0.057 A 
HETATM   20  C   UNL     1     -42.613  60.647 -51.106  1.00  0.00     0.063 A 
HETATM   21 CL   UNL     1     -41.291  60.076 -50.146  1.00  0.00    -0.082 Cl
HETATM   22  C   UNL     1     -43.171  61.867 -50.710  1.00  0.00     0.068 A 
HETATM   23  C   UNL     1     -44.355  62.304 -51.286  1.00  0.00     0.118 A 
HETATM   24  F   UNL     1     -44.887  63.471 -50.900  1.00  0.00    -0.206 F 
HETATM   25  C   UNL     1     -45.014  61.534 -52.233  1.00  0.00     0.044 A 
HETATM   26  C   UNL     1     -44.458  60.319 -52.639  1.00  0.00     0.034 A 
ENDBRANCH  16  19
ENDBRANCH   7  15
BRANCH   1  27
HETATM   27  O   UNL     1     -39.497  49.885 -52.336  1.00  0.00    -0.356 OA
HETATM   28  C   UNL     1     -39.500  49.796 -50.917  1.00  0.00     0.210 C 
ENDBRANCH   1  27
TORSDOF 3
ENDMDL
MODEL 6
REMARK VINA RESULT:      -8.1      2.115      2.915
REMARK  3 active torsions:
REMARK  status: ('A' for Active; 'I' for Inactive)
REMARK    1  A    between atoms: O_2  and  C_3 
REMARK    2  A    between atoms: C_9  and  C_10 
REMARK       I    between atoms: C_10  and  N_11 
REMARK    3  A    between atoms: N_11  and  C_12 
ROOT
HETATM    1  C   UNL     1     -40.249  54.009 -50.313  1.00  0.00     0.068 A 
HETATM    2  C   UNL     1     -40.686  55.287 -50.670  1.00  0.00     0.044 A 
HETATM    3  C   UNL     1     -41.258  55.524 -51.927  1.00  0.00    -0.043 A 
HETATM    4  C   UNL     1     -41.417  54.448 -52.831  1.00  0.00    -0.001 A 
HETATM    5  C   UNL     1     -42.007  54.769 -54.119  1.00  0.00     0.069 A 
HETATM    6  C   UNL     1     -42.211  56.050 -54.579  1.00  0.00     0.007 A 
HETATM    7  C   UNL     1     -42.773  55.911 -55.870  1.00  0.00     0.153 A 
HETATM    8  N   UNL     1     -42.940  54.603 -56.182  1.00  0.00    -0.168 NA
HETATM    9  N   UNL     1     -42.467  53.944 -55.099  1.00  0.00    -0.276 N 
HETATM   10  H   UNL     1     -42.493  52.931 -55.102  1.00  0.00     0.189 HD
HETATM   11  C   UNL     1     -41.820  57.241 -53.779  1.00  0.00     0.048 C 
HETATM   12  C   UNL     1     -41.796  56.909 -52.269  1.00  0.00     0.044 C 
HETATM   13  C   UNL     1     -40.976  53.173 -52.475  1.00  0.00     0.017 A 
HETATM   14  C   UNL     1     -40.393  52.956 -51.219  1.00  0.00     0.037 A 
ENDROOT
BRANCH   7  15
HETATM   15  C   UNL     1     -43.117  56.987 -56.819  1.00  0.00     0.277 C 
HETATM   16  N   UNL     1     -42.025  57.382 -57.572  1.00  0.00    -0.320 N 
HETATM   17  H   UNL     1     -41.150  57.042 -57.182  1.00  0.00     0.169 HD
HETATM   18  O   UNL     1     -44.230  57.498 -56.834  1.00  0.00    -0.266 OA
BRANCH  16  19
HETATM   19  C   UNL     1     -41.994  58.450 -58.493  1.00  0.00     0.057 A 
HETATM   20  C   UNL     1     -41.870  59.816 -58.168  1.00  0.00     0.063 A 
HETATM   21 CL   UNL     1     -42.045  60.436 -56.562  1.00  0.00    -0.082 Cl
HETATM   22  C   UNL     1     -41.768  60.773 -59.184  1.00  0.00     0.068 A 
HETATM   23  C   UNL     1     -41.830  60.379 -60.512  1.00  0.00     0.118 A 
HETATM   24  F   UNL     1     -41.735  61.301 -61.480  1.00  0.00    -0.206 F 
HETATM   25  C   UNL     1     -42.021  59.049 -60.853  1.00  0.00     0.044 A 
HETATM   26  C   UNL     1     -42.116  58.087 -59.845  1.00  0.00     0.034 A 
ENDBRANCH  16  19
ENDBRANCH   7  15
BRANCH   1  27
HETATM   27  O   UNL     1     -39.706  53.925 -49.061  1.00  0.00    -0.356 OA
HETATM   28  C   UNL     1     -40.610  53.892 -47.964  1.00  0.00     0.210 C 
ENDBRANCH   1  27
TORSDOF 3
ENDMDL
MODEL 7
REMARK VINA RESULT:      -8.0     15.641     17.255
REMARK  3 active torsions:
REMARK  status: ('A' for Active; 'I' for Inactive)
REMARK    1  A    between atoms: O_2  and  C_3 
REMARK    2  A    between atoms: C_9  and  C_10 
REMARK       I    between atoms: C_10  and  N_11 
REMARK    3  A    between atoms: N_11  and  C_12 
ROOT
HETATM    1  C   UNL     1     -32.070  39.025 -48.379  1.00  0.00     0.068 A 
HETATM    2  C   UNL     1     -32.236  40.038 -49.325  1.00  0.00     0.044 A 
HETATM    3  C   UNL     1     -33.391  40.098 -50.117  1.00  0.00    -0.043 A 
HETATM    4  C   UNL     1     -34.408  39.133 -49.934  1.00  0.00    -0.001 A 
HETATM    5  C   UNL     1     -35.572  39.249 -50.796  1.00  0.00     0.069 A 
HETATM    6  C   UNL     1     -35.643  40.080 -51.891  1.00  0.00     0.007 A 
HETATM    7  C   UNL     1     -36.922  39.864 -52.456  1.00  0.00     0.153 A 
HETATM    8  N   UNL     1     -37.624  38.966 -51.724  1.00  0.00    -0.168 NA
HETATM    9  N   UNL     1     -36.775  38.618 -50.730  1.00  0.00    -0.276 N 
HETATM   10  H   UNL     1     -37.090  37.943 -50.041  1.00  0.00     0.189 HD
HETATM   11  C   UNL     1     -34.499  40.938 -52.299  1.00  0.00     0.048 C 
HETATM   12  C   UNL     1     -33.586  41.254 -51.092  1.00  0.00     0.044 C 
HETATM   13  C   UNL     1     -34.239  38.118 -48.991  1.00  0.00     0.017 A 
HETATM   14  C   UNL     1     -33.072  38.064 -48.217  1.00  0.00     0.037 A 
ENDROOT
BRANCH   7  15
HETATM   15  C   UNL     1     -37.471  40.464 -53.687  1.00  0.00     0.277 C 
HETATM   16  N   UNL     1     -36.717  40.141 -54.802  1.00  0.00    -0.320 N 
HETATM   17  H   UNL     1     -35.807  39.762 -54.549  1.00  0.00     0.169 HD
HETATM   18  O   UNL     1     -38.431  41.224 -53.658  1.00  0.00    -0.266 OA
BRANCH  16  19
HETATM   19  C   UNL     1     -36.913  40.633 -56.109  1.00  0.00     0.057 A 
HETATM   20  C   UNL     1     -36.164  41.655 -56.726  1.00  0.00     0.063 A 
HETATM   21 CL   UNL     1     -35.073  42.691 -55.872  1.00  0.00    -0.082 Cl
HETATM   22  C   UNL     1     -36.407  41.995 -58.062  1.00  0.00     0.068 A 
HETATM   23  C   UNL     1     -37.415  41.352 -58.765  1.00  0.00     0.118 A 
HETATM   24  F   UNL     1     -37.645  41.684 -60.042  1.00  0.00    -0.206 F 
HETATM   25  C   UNL     1     -38.210  40.393 -58.156  1.00  0.00     0.044 A 
HETATM   26  C   UNL     1     -37.968  40.043 -56.826  1.00  0.00     0.034 A 
ENDBRANCH  16  19
ENDBRANCH   7  15
BRANCH   1  27
HETATM   27  O   UNL     1     -30.894  39.086 -47.684  1.00  0.00    -0.356 OA
HETATM   28  C   UNL     1     -30.965  38.903 -46.276  1.00  0.00     0.210 C 
ENDBRANCH   1  27
TORSDOF 3
ENDMDL
MODEL 8
REMARK VINA RESULT:      -7.8      5.921      7.347
REMARK  3 active torsions:
REMARK  status: ('A' for Active; 'I' for Inactive)
REMARK    1  A    between atoms: O_2  and  C_3 
REMARK    2  A    between atoms: C_9  and  C_10 
REMARK       I    between atoms: C_10  and  N_11 
REMARK    3  A    between atoms: N_11  and  C_12 
ROOT
HETATM    1  C   UNL     1     -40.504  52.757 -53.105  1.00  0.00     0.068 A 
HETATM    2  C   UNL     1     -40.348  53.608 -52.008  1.00  0.00     0.044 A 
HETATM    3  C   UNL     1     -41.186  54.718 -51.836  1.00  0.00    -0.043 A 
HETATM    4  C   UNL     1     -42.217  54.961 -52.774  1.00  0.00    -0.001 A 
HETATM    5  C   UNL     1     -43.040  56.134 -52.539  1.00  0.00     0.069 A 
HETATM    6  C   UNL     1     -42.748  57.112 -51.616  1.00  0.00     0.007 A 
HETATM    7  C   UNL     1     -43.779  58.074 -51.732  1.00  0.00     0.153 A 
HETATM    8  N   UNL     1     -44.687  57.691 -52.662  1.00  0.00    -0.168 NA
HETATM    9  N   UNL     1     -44.207  56.515 -53.127  1.00  0.00    -0.276 N 
HETATM   10  H   UNL     1     -44.733  56.029 -53.845  1.00  0.00     0.189 HD
HETATM   11  C   UNL     1     -41.525  57.052 -50.771  1.00  0.00     0.048 C 
HETATM   12  C   UNL     1     -41.047  55.592 -50.594  1.00  0.00     0.044 C 
HETATM   13  C   UNL     1     -42.369  54.112 -53.871  1.00  0.00     0.017 A 
HETATM   14  C   UNL     1     -41.513  53.015 -54.036  1.00  0.00     0.037 A 
ENDROOT
BRANCH   7  15
HETATM   15  C   UNL     1     -43.898  59.354 -51.009  1.00  0.00     0.277 C 
HETATM   16  N   UNL     1     -45.116  59.474 -50.363  1.00  0.00    -0.320 N 
HETATM   17  H   UNL     1     -45.790  58.786 -50.692  1.00  0.00     0.169 HD
HETATM   18  O   UNL     1     -43.028  60.214 -51.079  1.00  0.00    -0.266 OA
BRANCH  16  19
HETATM   19  C   UNL     1     -45.581  60.611 -49.671  1.00  0.00     0.057 A 
HETATM   20  C   UNL     1     -46.197  61.736 -50.254  1.00  0.00     0.063 A 
HETATM   21 CL   UNL     1     -46.209  62.046 -51.956  1.00  0.00    -0.082 Cl
HETATM   22  C   UNL     1     -46.691  62.766 -49.444  1.00  0.00     0.068 A 
HETATM   23  C   UNL     1     -46.534  62.695 -48.068  1.00  0.00     0.118 A 
HETATM   24  F   UNL     1     -47.005  63.686 -47.298  1.00  0.00    -0.206 F 
HETATM   25  C   UNL     1     -45.869  61.630 -47.478  1.00  0.00     0.044 A 
HETATM   26  C   UNL     1     -45.382  60.596 -48.280  1.00  0.00     0.034 A 
ENDBRANCH  16  19
ENDBRANCH   7  15
BRANCH   1  27
HETATM   27  O   UNL     1     -39.614  51.721 -53.149  1.00  0.00    -0.356 OA
HETATM   28  C   UNL     1     -39.868  50.689 -54.093  1.00  0.00     0.210 C 
ENDBRANCH   1  27
TORSDOF 3
ENDMDL
MODEL 9
REMARK VINA RESULT:      -7.8      3.237      4.100
REMARK  3 active torsions:
REMARK  status: ('A' for Active; 'I' for Inactive)
REMARK    1  A    between atoms: O_2  and  C_3 
REMARK    2  A    between atoms: C_9  and  C_10 
REMARK       I    between atoms: C_10  and  N_11 
REMARK    3  A    between atoms: N_11  and  C_12 
ROOT
HETATM    1  C   UNL     1     -39.570  51.377 -52.300  1.00  0.00     0.068 A 
HETATM    2  C   UNL     1     -40.135  52.465 -51.629  1.00  0.00     0.044 A 
HETATM    3  C   UNL     1     -40.686  53.538 -52.341  1.00  0.00    -0.043 A 
HETATM    4  C   UNL     1     -40.691  53.505 -53.754  1.00  0.00    -0.001 A 
HETATM    5  C   UNL     1     -41.269  54.656 -54.426  1.00  0.00     0.069 A 
HETATM    6  C   UNL     1     -41.600  55.834 -53.795  1.00  0.00     0.007 A 
HETATM    7  C   UNL     1     -42.097  56.688 -54.808  1.00  0.00     0.153 A 
HETATM    8  N   UNL     1     -42.105  56.055 -56.006  1.00  0.00    -0.168 NA
HETATM    9  N   UNL     1     -41.599  54.831 -55.735  1.00  0.00    -0.276 N 
HETATM   10  H   UNL     1     -41.510  54.166 -56.495  1.00  0.00     0.189 HD
HETATM   11  C   UNL     1     -41.373  56.034 -52.339  1.00  0.00     0.048 C 
HETATM   12  C   UNL     1     -41.364  54.680 -51.591  1.00  0.00     0.044 C 
HETATM   13  C   UNL     1     -40.123  52.420 -54.424  1.00  0.00     0.017 A 
HETATM   14  C   UNL     1     -39.562  51.361 -53.697  1.00  0.00     0.037 A 
ENDROOT
BRANCH   7  15
HETATM   15  C   UNL     1     -42.527  58.092 -54.667  1.00  0.00     0.277 C 
HETATM   16  N   UNL     1     -43.905  58.212 -54.637  1.00  0.00    -0.320 N 
HETATM   17  H   UNL     1     -44.367  57.363 -54.955  1.00  0.00     0.169 HD
HETATM   18  O   UNL     1     -41.720  59.014 -54.670  1.00  0.00    -0.266 OA
BRANCH  16  19
HETATM   19  C   UNL     1     -44.633  59.419 -54.611  1.00  0.00     0.057 A 
HETATM   20  C   UNL     1     -44.935  60.224 -55.728  1.00  0.00     0.063 A 
HETATM   21 CL   UNL     1     -44.196  60.023 -57.280  1.00  0.00    -0.082 Cl
HETATM   22  C   UNL     1     -45.740  61.359 -55.579  1.00  0.00     0.068 A 
HETATM   23  C   UNL     1     -46.207  61.714 -54.322  1.00  0.00     0.118 A 
HETATM   24  F   UNL     1     -46.974  62.803 -54.185  1.00  0.00    -0.206 F 
HETATM   25  C   UNL     1     -45.865  60.974 -53.199  1.00  0.00     0.044 A 
HETATM   26  C   UNL     1     -45.069  59.836 -53.342  1.00  0.00     0.034 A 
ENDBRANCH  16  19
ENDBRANCH   7  15
BRANCH   1  27
HETATM   27  O   UNL     1     -39.065  50.407 -51.481  1.00  0.00    -0.356 OA
HETATM   28  C   UNL     1     -39.938  49.874 -50.494  1.00  0.00     0.210 C 
ENDBRANCH   1  27
TORSDOF 3
ENDMDL
MODEL 10
REMARK VINA RESULT:      -7.6     16.178     17.210
REMARK  3 active torsions:
REMARK  status: ('A' for Active; 'I' for Inactive)
REMARK    1  A    between atoms: O_2  and  C_3 
REMARK    2  A    between atoms: C_9  and  C_10 
REMARK       I    between atoms: C_10  and  N_11 
REMARK    3  A    between atoms: N_11  and  C_12 
ROOT
HETATM    1  C   UNL     1     -32.049  39.967 -50.089  1.00  0.00     0.068 A 
HETATM    2  C   UNL     1     -31.653  39.853 -51.424  1.00  0.00     0.044 A 
HETATM    3  C   UNL     1     -32.531  40.190 -52.463  1.00  0.00    -0.043 A 
HETATM    4  C   UNL     1     -33.823  40.673 -52.152  1.00  0.00    -0.001 A 
HETATM    5  C   UNL     1     -34.683  40.991 -53.278  1.00  0.00     0.069 A 
HETATM    6  C   UNL     1     -34.404  40.655 -54.584  1.00  0.00     0.007 A 
HETATM    7  C   UNL     1     -35.502  41.121 -55.345  1.00  0.00     0.153 A 
HETATM    8  N   UNL     1     -36.403  41.748 -54.552  1.00  0.00    -0.168 NA
HETATM    9  N   UNL     1     -35.873  41.650 -53.311  1.00  0.00    -0.276 N 
HETATM   10  H   UNL     1     -36.382  42.060 -52.535  1.00  0.00     0.189 HD
HETATM   11  C   UNL     1     -33.174  39.905 -54.954  1.00  0.00     0.048 C 
HETATM   12  C   UNL     1     -32.055  40.130 -53.911  1.00  0.00     0.044 C 
HETATM   13  C   UNL     1     -34.219  40.781 -50.818  1.00  0.00     0.017 A 
HETATM   14  C   UNL     1     -33.334  40.427 -49.791  1.00  0.00     0.037 A 
ENDROOT
BRANCH   7  15
HETATM   15  C   UNL     1     -35.724  40.952 -56.794  1.00  0.00     0.277 C 
HETATM   16  N   UNL     1     -36.928  40.325 -57.063  1.00  0.00    -0.320 N 
HETATM   17  H   UNL     1     -37.322  39.885 -56.235  1.00  0.00     0.169 HD
HETATM   18  O   UNL     1     -34.872  41.265 -57.615  1.00  0.00    -0.266 OA
BRANCH  16  19
HETATM   19  C   UNL     1     -37.392  39.927 -58.334  1.00  0.00     0.057 A 
HETATM   20  C   UNL     1     -37.437  40.738 -59.486  1.00  0.00     0.063 A 
HETATM   21 CL   UNL     1     -37.217  42.455 -59.457  1.00  0.00    -0.082 Cl
HETATM   22  C   UNL     1     -37.843  40.197 -60.711  1.00  0.00     0.068 A 
HETATM   23  C   UNL     1     -38.241  38.870 -60.781  1.00  0.00     0.118 A 
HETATM   24  F   UNL     1     -38.632  38.358 -61.956  1.00  0.00    -0.206 F 
HETATM   25  C   UNL     1     -38.269  38.073 -59.646  1.00  0.00     0.044 A 
HETATM   26  C   UNL     1     -37.858  38.605 -58.422  1.00  0.00     0.034 A 
ENDBRANCH  16  19
ENDBRANCH   7  15
BRANCH   1  27
HETATM   27  O   UNL     1     -31.095  39.598 -49.183  1.00  0.00    -0.356 OA
HETATM   28  C   UNL     1     -31.459  39.637 -47.809  1.00  0.00     0.210 C 
ENDBRANCH   1  27
TORSDOF 3
ENDMDL
