MODEL 1
REMARK VINA RESULT:      -8.5      0.000      0.000
REMARK  6 active torsions:
REMARK  status: ('A' for Active; 'I' for Inactive)
REMARK    1  A    between atoms: C_6  and  S_7 
REMARK    2  A    between atoms: S_7  and  C_8 
REMARK    3  A    between atoms: C_8  and  C_9 
REMARK    4  A    between atoms: C_9  and  C_10 
REMARK    5  A    between atoms: C_19  and  N_20 
REMARK    6  A    between atoms: N_20  and  C_21 
ROOT
HETATM    1  C   UNL     1     -39.879  50.043 -54.310  1.00  0.00     0.001 A 
HETATM    2  C   UNL     1     -40.247  51.385 -54.380  1.00  0.00     0.018 A 
HETATM    3  C   UNL     1     -40.237  52.206 -53.221  1.00  0.00     0.039 A 
HETATM    4  C   UNL     1     -39.868  51.650 -51.991  1.00  0.00     0.073 A 
HETATM    5  N   UNL     1     -39.857  52.350 -50.854  1.00  0.00    -0.222 NA
HETATM    6  C   UNL     1     -40.224  53.636 -50.922  1.00  0.00     0.191 A 
HETATM    7  N   UNL     1     -40.588  54.271 -52.040  1.00  0.00    -0.204 NA
HETATM    8  C   UNL     1     -40.588  53.569 -53.186  1.00  0.00     0.143 A 
HETATM    9  C   UNL     1     -39.502  50.310 -51.947  1.00  0.00     0.032 A 
HETATM   10  C   UNL     1     -39.501  49.505 -53.089  1.00  0.00     0.002 A 
ENDROOT
BRANCH   6  11
HETATM   11  S   UNL     1     -40.236  54.598 -49.430  1.00  0.00    -0.082 SA
BRANCH  11  12
HETATM   12  C   UNL     1     -41.720  55.602 -49.725  1.00  0.00     0.166 C 
BRANCH  12  13
HETATM   13  C   UNL     1     -41.412  56.898 -50.454  1.00  0.00     0.169 C 
HETATM   14  O   UNL     1     -40.284  57.370 -50.579  1.00  0.00    -0.291 OA
BRANCH  13  15
HETATM   15  C   UNL     1     -42.563  57.657 -51.045  1.00  0.00     0.011 A 
HETATM   16  C   UNL     1     -43.708  57.023 -51.545  1.00  0.00     0.017 A 
HETATM   17  C   UNL     1     -44.753  57.780 -52.088  1.00  0.00     0.025 A 
HETATM   18  C   UNL     1     -44.659  59.170 -52.130  1.00  0.00     0.034 A 
HETATM   19 CL   UNL     1     -45.947  60.093 -52.797  1.00  0.00    -0.084 Cl
HETATM   20  C   UNL     1     -43.530  59.813 -51.633  1.00  0.00     0.025 A 
HETATM   21  C   UNL     1     -42.484  59.058 -51.091  1.00  0.00     0.017 A 
ENDBRANCH  13  15
ENDBRANCH  12  13
ENDBRANCH  11  12
ENDBRANCH   6  11
BRANCH   8  22
HETATM   22  N   UNL     1     -40.948  54.211 -54.402  1.00  0.00    -0.340 N 
HETATM   23  H   UNL     1     -40.197  54.093 -55.075  1.00  0.00     0.167 HD
BRANCH  22  24
HETATM   24  C   UNL     1     -41.637  55.429 -54.609  1.00  0.00     0.036 A 
HETATM   25  C   UNL     1     -40.976  56.631 -54.298  1.00  0.00     0.069 A 
HETATM   26  C   UNL     1     -41.602  57.828 -54.582  1.00  0.00     0.107 A 
HETATM   27  C   UNL     1     -42.838  57.875 -55.176  1.00  0.00     0.105 A 
HETATM   28  O   UNL     1     -41.096  59.066 -54.335  1.00  0.00    -0.323 OA
HETATM   29  O   UNL     1     -43.271  59.147 -55.376  1.00  0.00    -0.323 OA
HETATM   30  C   UNL     1     -43.511  56.727 -55.525  1.00  0.00     0.042 A 
HETATM   31  C   UNL     1     -42.161  59.897 -54.843  1.00  0.00     0.352 A 
HETATM   32  C   UNL     1     -42.892  55.499 -55.251  1.00  0.00     0.032 A 
ENDBRANCH  22  24
ENDBRANCH   8  22
TORSDOF 6
ENDMDL
MODEL 2
REMARK VINA RESULT:      -8.4      1.426      1.719
REMARK  6 active torsions:
REMARK  status: ('A' for Active; 'I' for Inactive)
REMARK    1  A    between atoms: C_6  and  S_7 
REMARK    2  A    between atoms: S_7  and  C_8 
REMARK    3  A    between atoms: C_8  and  C_9 
REMARK    4  A    between atoms: C_9  and  C_10 
REMARK    5  A    between atoms: C_19  and  N_20 
REMARK    6  A    between atoms: N_20  and  C_21 
ROOT
HETATM    1  C   UNL     1     -39.780  49.899 -54.230  1.00  0.00     0.001 A 
HETATM    2  C   UNL     1     -40.227  51.214 -54.341  1.00  0.00     0.018 A 
HETATM    3  C   UNL     1     -40.311  52.055 -53.199  1.00  0.00     0.039 A 
HETATM    4  C   UNL     1     -39.954  51.546 -51.946  1.00  0.00     0.073 A 
HETATM    5  N   UNL     1     -40.028  52.265 -50.823  1.00  0.00    -0.222 NA
HETATM    6  C   UNL     1     -40.472  53.524 -50.930  1.00  0.00     0.191 A 
HETATM    7  N   UNL     1     -40.833  54.115 -52.074  1.00  0.00    -0.204 NA
HETATM    8  C   UNL     1     -40.747  53.394 -53.205  1.00  0.00     0.143 A 
HETATM    9  C   UNL     1     -39.508  50.232 -51.862  1.00  0.00     0.032 A 
HETATM   10  C   UNL     1     -39.414  49.408 -52.986  1.00  0.00     0.002 A 
ENDROOT
BRANCH   6  11
HETATM   11  S   UNL     1     -40.599  54.510 -49.460  1.00  0.00    -0.082 SA
BRANCH  11  12
HETATM   12  C   UNL     1     -40.712  56.161 -50.208  1.00  0.00     0.166 C 
BRANCH  12  13
HETATM   13  C   UNL     1     -42.114  56.485 -50.695  1.00  0.00     0.169 C 
HETATM   14  O   UNL     1     -43.122  55.862 -50.367  1.00  0.00    -0.291 OA
BRANCH  13  15
HETATM   15  C   UNL     1     -42.273  57.631 -51.649  1.00  0.00     0.011 A 
HETATM   16  C   UNL     1     -43.442  58.402 -51.714  1.00  0.00     0.017 A 
HETATM   17  C   UNL     1     -43.538  59.460 -52.626  1.00  0.00     0.025 A 
HETATM   18  C   UNL     1     -42.469  59.754 -53.470  1.00  0.00     0.034 A 
HETATM   19 CL   UNL     1     -42.595  61.057 -54.586  1.00  0.00    -0.084 Cl
HETATM   20  C   UNL     1     -41.301  59.000 -53.413  1.00  0.00     0.025 A 
HETATM   21  C   UNL     1     -41.204  57.941 -52.504  1.00  0.00     0.017 A 
ENDBRANCH  13  15
ENDBRANCH  12  13
ENDBRANCH  11  12
ENDBRANCH   6  11
BRANCH   8  22
HETATM   22  N   UNL     1     -41.100  53.989 -54.445  1.00  0.00    -0.340 N 
HETATM   23  H   UNL     1     -40.270  54.068 -55.025  1.00  0.00     0.167 HD
BRANCH  22  24
HETATM   24  C   UNL     1     -42.016  55.033 -54.716  1.00  0.00     0.036 A 
HETATM   25  C   UNL     1     -41.697  55.955 -55.729  1.00  0.00     0.069 A 
HETATM   26  C   UNL     1     -42.623  56.922 -56.065  1.00  0.00     0.107 A 
HETATM   27  C   UNL     1     -43.850  56.993 -55.454  1.00  0.00     0.105 A 
HETATM   28  O   UNL     1     -42.459  57.883 -57.014  1.00  0.00    -0.323 OA
HETATM   29  O   UNL     1     -44.614  58.008 -55.935  1.00  0.00    -0.323 OA
HETATM   30  C   UNL     1     -44.219  56.096 -54.479  1.00  0.00     0.042 A 
HETATM   31  C   UNL     1     -43.726  58.567 -56.925  1.00  0.00     0.352 A 
HETATM   32  C   UNL     1     -43.297  55.101 -54.124  1.00  0.00     0.032 A 
ENDBRANCH  22  24
ENDBRANCH   8  22
TORSDOF 6
ENDMDL
MODEL 3
REMARK VINA RESULT:      -8.2      2.112      2.711
REMARK  6 active torsions:
REMARK  status: ('A' for Active; 'I' for Inactive)
REMARK    1  A    between atoms: C_6  and  S_7 
REMARK    2  A    between atoms: S_7  and  C_8 
REMARK    3  A    between atoms: C_8  and  C_9 
REMARK    4  A    between atoms: C_9  and  C_10 
REMARK    5  A    between atoms: C_19  and  N_20 
REMARK    6  A    between atoms: N_20  and  C_21 
ROOT
HETATM    1  C   UNL     1     -40.356  51.246 -54.292  1.00  0.00     0.001 A 
HETATM    2  C   UNL     1     -41.214  52.336 -54.425  1.00  0.00     0.018 A 
HETATM    3  C   UNL     1     -41.275  53.343 -53.426  1.00  0.00     0.039 A 
HETATM    4  C   UNL     1     -40.473  53.226 -52.286  1.00  0.00     0.073 A 
HETATM    5  N   UNL     1     -40.491  54.118 -51.292  1.00  0.00    -0.222 NA
HETATM    6  C   UNL     1     -41.326  55.157 -51.417  1.00  0.00     0.191 A 
HETATM    7  N   UNL     1     -42.130  55.373 -52.463  1.00  0.00    -0.204 NA
HETATM    8  C   UNL     1     -42.104  54.481 -53.467  1.00  0.00     0.143 A 
HETATM    9  C   UNL     1     -39.623  52.131 -52.176  1.00  0.00     0.032 A 
HETATM   10  C   UNL     1     -39.555  51.146 -53.165  1.00  0.00     0.002 A 
ENDROOT
BRANCH   6  11
HETATM   11  S   UNL     1     -41.392  56.359 -50.112  1.00  0.00    -0.082 SA
BRANCH  11  12
HETATM   12  C   UNL     1     -40.655  57.781 -50.968  1.00  0.00     0.166 C 
BRANCH  12  13
HETATM   13  C   UNL     1     -41.511  59.031 -50.865  1.00  0.00     0.169 C 
HETATM   14  O   UNL     1     -41.450  59.836 -49.937  1.00  0.00    -0.291 OA
BRANCH  13  15
HETATM   15  C   UNL     1     -42.504  59.290 -51.959  1.00  0.00     0.011 A 
HETATM   16  C   UNL     1     -43.749  58.649 -52.015  1.00  0.00     0.017 A 
HETATM   17  C   UNL     1     -44.638  58.927 -53.060  1.00  0.00     0.025 A 
HETATM   18  C   UNL     1     -44.289  59.847 -54.048  1.00  0.00     0.034 A 
HETATM   19 CL   UNL     1     -45.387  60.183 -55.328  1.00  0.00    -0.084 Cl
HETATM   20  C   UNL     1     -43.057  60.493 -54.003  1.00  0.00     0.025 A 
HETATM   21  C   UNL     1     -42.167  60.215 -52.960  1.00  0.00     0.017 A 
ENDBRANCH  13  15
ENDBRANCH  12  13
ENDBRANCH  11  12
ENDBRANCH   6  11
BRANCH   8  22
HETATM   22  N   UNL     1     -42.926  54.683 -54.607  1.00  0.00    -0.340 N 
HETATM   23  H   UNL     1     -43.288  53.787 -54.919  1.00  0.00     0.167 HD
BRANCH  22  24
HETATM   24  C   UNL     1     -42.761  55.575 -55.692  1.00  0.00     0.036 A 
HETATM   25  C   UNL     1     -42.975  55.090 -56.995  1.00  0.00     0.069 A 
HETATM   26  C   UNL     1     -42.906  55.973 -58.054  1.00  0.00     0.107 A 
HETATM   27  C   UNL     1     -42.656  57.309 -57.868  1.00  0.00     0.105 A 
HETATM   28  O   UNL     1     -43.083  55.655 -59.365  1.00  0.00    -0.323 OA
HETATM   29  O   UNL     1     -42.640  58.003 -59.036  1.00  0.00    -0.323 OA
HETATM   30  C   UNL     1     -42.469  57.835 -56.611  1.00  0.00     0.042 A 
HETATM   31  C   UNL     1     -42.913  56.949 -59.981  1.00  0.00     0.352 A 
HETATM   32  C   UNL     1     -42.540  56.959 -55.519  1.00  0.00     0.032 A 
ENDBRANCH  22  24
ENDBRANCH   8  22
TORSDOF 6
ENDMDL
MODEL 4
REMARK VINA RESULT:      -8.2      2.818      3.771
REMARK  6 active torsions:
REMARK  status: ('A' for Active; 'I' for Inactive)
REMARK    1  A    between atoms: C_6  and  S_7 
REMARK    2  A    between atoms: S_7  and  C_8 
REMARK    3  A    between atoms: C_8  and  C_9 
REMARK    4  A    between atoms: C_9  and  C_10 
REMARK    5  A    between atoms: C_19  and  N_20 
REMARK    6  A    between atoms: N_20  and  C_21 
ROOT
HETATM    1  C   UNL     1     -39.791  51.812 -53.607  1.00  0.00     0.001 A 
HETATM    2  C   UNL     1     -40.723  52.623 -54.251  1.00  0.00     0.018 A 
HETATM    3  C   UNL     1     -41.503  53.560 -53.522  1.00  0.00     0.039 A 
HETATM    4  C   UNL     1     -41.341  53.653 -52.135  1.00  0.00     0.073 A 
HETATM    5  N   UNL     1     -42.053  54.491 -51.377  1.00  0.00    -0.222 NA
HETATM    6  C   UNL     1     -42.958  55.259 -51.997  1.00  0.00     0.191 A 
HETATM    7  N   UNL     1     -43.192  55.258 -53.313  1.00  0.00    -0.204 NA
HETATM    8  C   UNL     1     -42.467  54.423 -54.077  1.00  0.00     0.143 A 
HETATM    9  C   UNL     1     -40.403  52.835 -51.516  1.00  0.00     0.032 A 
HETATM   10  C   UNL     1     -39.628  51.922 -52.235  1.00  0.00     0.002 A 
ENDROOT
BRANCH   6  11
HETATM   11  S   UNL     1     -43.936  56.377 -51.025  1.00  0.00    -0.082 SA
BRANCH  11  12
HETATM   12  C   UNL     1     -44.528  57.485 -52.335  1.00  0.00     0.166 C 
BRANCH  12  13
HETATM   13  C   UNL     1     -43.920  58.874 -52.244  1.00  0.00     0.169 C 
HETATM   14  O   UNL     1     -44.541  59.916 -52.444  1.00  0.00    -0.291 OA
BRANCH  13  15
HETATM   15  C   UNL     1     -42.464  58.977 -51.901  1.00  0.00     0.011 A 
HETATM   16  C   UNL     1     -41.450  58.581 -52.785  1.00  0.00     0.017 A 
HETATM   17  C   UNL     1     -40.106  58.697 -52.414  1.00  0.00     0.025 A 
HETATM   18  C   UNL     1     -39.769  59.211 -51.162  1.00  0.00     0.034 A 
HETATM   19 CL   UNL     1     -38.115  59.351 -50.713  1.00  0.00    -0.084 Cl
HETATM   20  C   UNL     1     -40.765  59.611 -50.276  1.00  0.00     0.025 A 
HETATM   21  C   UNL     1     -42.109  59.494 -50.645  1.00  0.00     0.017 A 
ENDBRANCH  13  15
ENDBRANCH  12  13
ENDBRANCH  11  12
ENDBRANCH   6  11
BRANCH   8  22
HETATM   22  N   UNL     1     -42.668  54.406 -55.483  1.00  0.00    -0.340 N 
HETATM   23  H   UNL     1     -42.244  53.567 -55.869  1.00  0.00     0.167 HD
BRANCH  22  24
HETATM   24  C   UNL     1     -42.634  55.472 -56.412  1.00  0.00     0.036 A 
HETATM   25  C   UNL     1     -43.122  55.240 -57.711  1.00  0.00     0.069 A 
HETATM   26  C   UNL     1     -43.180  56.297 -58.598  1.00  0.00     0.107 A 
HETATM   27  C   UNL     1     -42.796  57.564 -58.240  1.00  0.00     0.105 A 
HETATM   28  O   UNL     1     -43.619  56.230 -59.884  1.00  0.00    -0.323 OA
HETATM   29  O   UNL     1     -42.940  58.458 -59.254  1.00  0.00    -0.323 OA
HETATM   30  C   UNL     1     -42.340  57.845 -56.974  1.00  0.00     0.042 A 
HETATM   31  C   UNL     1     -43.463  57.605 -60.293  1.00  0.00     0.352 A 
HETATM   32  C   UNL     1     -42.278  56.790 -56.053  1.00  0.00     0.032 A 
ENDBRANCH  22  24
ENDBRANCH   8  22
TORSDOF 6
ENDMDL
MODEL 5
REMARK VINA RESULT:      -8.1      3.373      6.958
REMARK  6 active torsions:
REMARK  status: ('A' for Active; 'I' for Inactive)
REMARK    1  A    between atoms: C_6  and  S_7 
REMARK    2  A    between atoms: S_7  and  C_8 
REMARK    3  A    between atoms: C_8  and  C_9 
REMARK    4  A    between atoms: C_9  and  C_10 
REMARK    5  A    between atoms: C_19  and  N_20 
REMARK    6  A    between atoms: N_20  and  C_21 
ROOT
HETATM    1  C   UNL     1     -45.894  60.578 -52.716  1.00  0.00     0.001 A 
HETATM    2  C   UNL     1     -44.961  59.764 -53.355  1.00  0.00     0.018 A 
HETATM    3  C   UNL     1     -44.515  58.556 -52.756  1.00  0.00     0.039 A 
HETATM    4  C   UNL     1     -45.009  58.191 -51.499  1.00  0.00     0.073 A 
HETATM    5  N   UNL     1     -44.621  57.084 -50.861  1.00  0.00    -0.222 NA
HETATM    6  C   UNL     1     -43.714  56.311 -51.471  1.00  0.00     0.191 A 
HETATM    7  N   UNL     1     -43.180  56.558 -52.672  1.00  0.00    -0.204 NA
HETATM    8  C   UNL     1     -43.580  57.666 -53.319  1.00  0.00     0.143 A 
HETATM    9  C   UNL     1     -45.942  59.018 -50.883  1.00  0.00     0.032 A 
HETATM   10  C   UNL     1     -46.389  60.200 -51.477  1.00  0.00     0.002 A 
ENDROOT
BRANCH   6  11
HETATM   11  S   UNL     1     -43.160  54.838 -50.651  1.00  0.00    -0.082 SA
BRANCH  11  12
HETATM   12  C   UNL     1     -41.366  55.105 -50.720  1.00  0.00     0.166 C 
BRANCH  12  13
HETATM   13  C   UNL     1     -40.576  53.846 -50.407  1.00  0.00     0.169 C 
HETATM   14  O   UNL     1     -40.114  53.576 -49.300  1.00  0.00    -0.291 OA
BRANCH  13  15
HETATM   15  C   UNL     1     -40.334  52.877 -51.526  1.00  0.00     0.011 A 
HETATM   16  C   UNL     1     -40.620  53.183 -52.864  1.00  0.00     0.017 A 
HETATM   17  C   UNL     1     -40.376  52.240 -53.870  1.00  0.00     0.025 A 
HETATM   18  C   UNL     1     -39.844  50.993 -53.545  1.00  0.00     0.034 A 
HETATM   19 CL   UNL     1     -39.547  49.841 -54.786  1.00  0.00    -0.084 Cl
HETATM   20  C   UNL     1     -39.552  50.678 -52.221  1.00  0.00     0.025 A 
HETATM   21  C   UNL     1     -39.797  51.618 -51.214  1.00  0.00     0.017 A 
ENDBRANCH  13  15
ENDBRANCH  12  13
ENDBRANCH  11  12
ENDBRANCH   6  11
BRANCH   8  22
HETATM   22  N   UNL     1     -43.054  57.955 -54.606  1.00  0.00    -0.340 N 
HETATM   23  H   UNL     1     -42.950  58.960 -54.705  1.00  0.00     0.167 HD
BRANCH  22  24
HETATM   24  C   UNL     1     -43.330  57.343 -55.851  1.00  0.00     0.036 A 
HETATM   25  C   UNL     1     -44.083  58.063 -56.797  1.00  0.00     0.069 A 
HETATM   26  C   UNL     1     -44.281  57.514 -58.048  1.00  0.00     0.107 A 
HETATM   27  C   UNL     1     -43.747  56.300 -58.398  1.00  0.00     0.105 A 
HETATM   28  O   UNL     1     -44.987  58.084 -59.061  1.00  0.00    -0.323 OA
HETATM   29  O   UNL     1     -44.051  55.946 -59.674  1.00  0.00    -0.323 OA
HETATM   30  C   UNL     1     -42.980  55.573 -57.518  1.00  0.00     0.042 A 
HETATM   31  C   UNL     1     -44.836  57.083 -60.090  1.00  0.00     0.352 A 
HETATM   32  C   UNL     1     -42.761  56.112 -56.243  1.00  0.00     0.032 A 
ENDBRANCH  22  24
ENDBRANCH   8  22
TORSDOF 6
ENDMDL
MODEL 6
REMARK VINA RESULT:      -8.0      3.822      6.705
REMARK  6 active torsions:
REMARK  status: ('A' for Active; 'I' for Inactive)
REMARK    1  A    between atoms: C_6  and  S_7 
REMARK    2  A    between atoms: S_7  and  C_8 
REMARK    3  A    between atoms: C_8  and  C_9 
REMARK    4  A    between atoms: C_9  and  C_10 
REMARK    5  A    between atoms: C_19  and  N_20 
REMARK    6  A    between atoms: N_20  and  C_21 
ROOT
HETATM    1  C   UNL     1     -44.855  54.597 -60.172  1.00  0.00     0.001 A 
HETATM    2  C   UNL     1     -43.944  54.897 -59.162  1.00  0.00     0.018 A 
HETATM    3  C   UNL     1     -43.792  56.227 -58.687  1.00  0.00     0.039 A 
HETATM    4  C   UNL     1     -44.558  57.249 -59.258  1.00  0.00     0.073 A 
HETATM    5  N   UNL     1     -44.456  58.526 -58.883  1.00  0.00    -0.222 NA
HETATM    6  C   UNL     1     -43.570  58.814 -57.922  1.00  0.00     0.191 A 
HETATM    7  N   UNL     1     -42.792  57.919 -57.303  1.00  0.00    -0.204 NA
HETATM    8  C   UNL     1     -42.904  56.632 -57.673  1.00  0.00     0.143 A 
HETATM    9  C   UNL     1     -45.463  56.924 -60.263  1.00  0.00     0.032 A 
HETATM   10  C   UNL     1     -45.620  55.614 -60.721  1.00  0.00     0.002 A 
ENDROOT
BRANCH   6  11
HETATM   11  S   UNL     1     -43.392  60.503 -57.404  1.00  0.00    -0.082 SA
BRANCH  11  12
HETATM   12  C   UNL     1     -42.459  60.255 -55.866  1.00  0.00     0.166 C 
BRANCH  12  13
HETATM   13  C   UNL     1     -43.355  59.911 -54.689  1.00  0.00     0.169 C 
HETATM   14  O   UNL     1     -44.515  60.300 -54.566  1.00  0.00    -0.291 OA
BRANCH  13  15
HETATM   15  C   UNL     1     -42.780  59.053 -53.602  1.00  0.00     0.011 A 
HETATM   16  C   UNL     1     -43.476  58.767 -52.419  1.00  0.00     0.017 A 
HETATM   17  C   UNL     1     -42.891  57.961 -51.435  1.00  0.00     0.025 A 
HETATM   18  C   UNL     1     -41.614  57.436 -51.630  1.00  0.00     0.034 A 
HETATM   19 CL   UNL     1     -40.903  56.446 -50.417  1.00  0.00    -0.084 Cl
HETATM   20  C   UNL     1     -40.914  57.709 -52.801  1.00  0.00     0.025 A 
HETATM   21  C   UNL     1     -41.496  58.515 -53.785  1.00  0.00     0.017 A 
ENDBRANCH  13  15
ENDBRANCH  12  13
ENDBRANCH  11  12
ENDBRANCH   6  11
BRANCH   8  22
HETATM   22  N   UNL     1     -42.112  55.646 -57.027  1.00  0.00    -0.340 N 
HETATM   23  H   UNL     1     -41.852  54.933 -57.702  1.00  0.00     0.167 HD
BRANCH  22  24
HETATM   24  C   UNL     1     -42.234  55.101 -55.728  1.00  0.00     0.036 A 
HETATM   25  C   UNL     1     -41.105  54.491 -55.151  1.00  0.00     0.069 A 
HETATM   26  C   UNL     1     -41.185  54.038 -53.849  1.00  0.00     0.107 A 
HETATM   27  C   UNL     1     -42.325  54.185 -53.100  1.00  0.00     0.105 A 
HETATM   28  O   UNL     1     -40.185  53.425 -53.159  1.00  0.00    -0.323 OA
HETATM   29  O   UNL     1     -42.193  53.681 -51.845  1.00  0.00    -0.323 OA
HETATM   30  C   UNL     1     -43.445  54.800 -53.611  1.00  0.00     0.042 A 
HETATM   31  C   UNL     1     -40.833  53.202 -51.889  1.00  0.00     0.352 A 
HETATM   32  C   UNL     1     -43.386  55.273 -54.929  1.00  0.00     0.032 A 
ENDBRANCH  22  24
ENDBRANCH   8  22
TORSDOF 6
ENDMDL
MODEL 7
REMARK VINA RESULT:      -8.0      4.554      7.740
REMARK  6 active torsions:
REMARK  status: ('A' for Active; 'I' for Inactive)
REMARK    1  A    between atoms: C_6  and  S_7 
REMARK    2  A    between atoms: S_7  and  C_8 
REMARK    3  A    between atoms: C_8  and  C_9 
REMARK    4  A    between atoms: C_9  and  C_10 
REMARK    5  A    between atoms: C_19  and  N_20 
REMARK    6  A    between atoms: N_20  and  C_21 
ROOT
HETATM    1  C   UNL     1     -41.829  60.611 -59.856  1.00  0.00     0.001 A 
HETATM    2  C   UNL     1     -42.039  59.329 -59.352  1.00  0.00     0.018 A 
HETATM    3  C   UNL     1     -42.099  59.097 -57.952  1.00  0.00     0.039 A 
HETATM    4  C   UNL     1     -41.928  60.170 -57.071  1.00  0.00     0.073 A 
HETATM    5  N   UNL     1     -41.948  60.029 -55.744  1.00  0.00    -0.222 NA
HETATM    6  C   UNL     1     -42.136  58.794 -55.262  1.00  0.00     0.191 A 
HETATM    7  N   UNL     1     -42.317  57.699 -56.008  1.00  0.00    -0.204 NA
HETATM    8  C   UNL     1     -42.309  57.844 -57.344  1.00  0.00     0.143 A 
HETATM    9  C   UNL     1     -41.723  61.440 -57.599  1.00  0.00     0.032 A 
HETATM   10  C   UNL     1     -41.675  61.671 -58.976  1.00  0.00     0.002 A 
ENDROOT
BRANCH   6  11
HETATM   11  S   UNL     1     -42.155  58.559 -53.502  1.00  0.00    -0.082 SA
BRANCH  11  12
HETATM   12  C   UNL     1     -40.963  57.198 -53.362  1.00  0.00     0.166 C 
BRANCH  12  13
HETATM   13  C   UNL     1     -41.540  55.989 -52.645  1.00  0.00     0.169 C 
HETATM   14  O   UNL     1     -42.401  56.050 -51.769  1.00  0.00    -0.291 OA
BRANCH  13  15
HETATM   15  C   UNL     1     -41.012  54.637 -53.022  1.00  0.00     0.011 A 
HETATM   16  C   UNL     1     -40.820  54.246 -54.354  1.00  0.00     0.017 A 
HETATM   17  C   UNL     1     -40.326  52.970 -54.649  1.00  0.00     0.025 A 
HETATM   18  C   UNL     1     -40.020  52.083 -53.618  1.00  0.00     0.034 A 
HETATM   19 CL   UNL     1     -39.413  50.518 -53.989  1.00  0.00    -0.084 Cl
HETATM   20  C   UNL     1     -40.202  52.460 -52.291  1.00  0.00     0.025 A 
HETATM   21  C   UNL     1     -40.697  53.734 -51.993  1.00  0.00     0.017 A 
ENDBRANCH  13  15
ENDBRANCH  12  13
ENDBRANCH  11  12
ENDBRANCH   6  11
BRANCH   8  22
HETATM   22  N   UNL     1     -42.518  56.711 -58.174  1.00  0.00    -0.340 N 
HETATM   23  H   UNL     1     -41.649  56.477 -58.644  1.00  0.00     0.167 HD
BRANCH  22  24
HETATM   24  C   UNL     1     -43.638  56.369 -58.967  1.00  0.00     0.036 A 
HETATM   25  C   UNL     1     -44.762  57.215 -58.934  1.00  0.00     0.069 A 
HETATM   26  C   UNL     1     -45.825  56.942 -59.772  1.00  0.00     0.107 A 
HETATM   27  C   UNL     1     -45.805  55.885 -60.647  1.00  0.00     0.105 A 
HETATM   28  O   UNL     1     -46.978  57.660 -59.851  1.00  0.00    -0.323 OA
HETATM   29  O   UNL     1     -46.942  55.799 -61.386  1.00  0.00    -0.323 OA
HETATM   30  C   UNL     1     -44.717  55.048 -60.736  1.00  0.00     0.042 A 
HETATM   31  C   UNL     1     -47.680  56.928 -60.878  1.00  0.00     0.352 A 
HETATM   32  C   UNL     1     -43.623  55.308 -59.898  1.00  0.00     0.032 A 
ENDBRANCH  22  24
ENDBRANCH   8  22
TORSDOF 6
ENDMDL
MODEL 8
REMARK VINA RESULT:      -7.9      3.465      6.392
REMARK  6 active torsions:
REMARK  status: ('A' for Active; 'I' for Inactive)
REMARK    1  A    between atoms: C_6  and  S_7 
REMARK    2  A    between atoms: S_7  and  C_8 
REMARK    3  A    between atoms: C_8  and  C_9 
REMARK    4  A    between atoms: C_9  and  C_10 
REMARK    5  A    between atoms: C_19  and  N_20 
REMARK    6  A    between atoms: N_20  and  C_21 
ROOT
HETATM    1  C   UNL     1     -43.463  55.929 -59.972  1.00  0.00     0.001 A 
HETATM    2  C   UNL     1     -42.851  55.739 -58.735  1.00  0.00     0.018 A 
HETATM    3  C   UNL     1     -43.269  56.472 -57.593  1.00  0.00     0.039 A 
HETATM    4  C   UNL     1     -44.299  57.410 -57.722  1.00  0.00     0.073 A 
HETATM    5  N   UNL     1     -44.732  58.156 -56.702  1.00  0.00    -0.222 NA
HETATM    6  C   UNL     1     -44.132  57.980 -55.517  1.00  0.00     0.191 A 
HETATM    7  N   UNL     1     -43.145  57.110 -55.279  1.00  0.00    -0.204 NA
HETATM    8  C   UNL     1     -42.718  56.353 -56.303  1.00  0.00     0.143 A 
HETATM    9  C   UNL     1     -44.896  57.581 -58.965  1.00  0.00     0.032 A 
HETATM   10  C   UNL     1     -44.493  56.850 -60.086  1.00  0.00     0.002 A 
ENDROOT
BRANCH   6  11
HETATM   11  S   UNL     1     -44.667  58.961 -54.138  1.00  0.00    -0.082 SA
BRANCH  11  12
HETATM   12  C   UNL     1     -44.800  57.665 -52.873  1.00  0.00     0.166 C 
BRANCH  12  13
HETATM   13  C   UNL     1     -44.535  58.187 -51.472  1.00  0.00     0.169 C 
HETATM   14  O   UNL     1     -45.388  58.267 -50.591  1.00  0.00    -0.291 OA
BRANCH  13  15
HETATM   15  C   UNL     1     -43.145  58.650 -51.151  1.00  0.00     0.011 A 
HETATM   16  C   UNL     1     -42.842  59.988 -50.864  1.00  0.00     0.017 A 
HETATM   17  C   UNL     1     -41.526  60.366 -50.573  1.00  0.00     0.025 A 
HETATM   18  C   UNL     1     -40.511  59.410 -50.563  1.00  0.00     0.034 A 
HETATM   19 CL   UNL     1     -38.897  59.882 -50.203  1.00  0.00    -0.084 Cl
HETATM   20  C   UNL     1     -40.798  58.078 -50.842  1.00  0.00     0.025 A 
HETATM   21  C   UNL     1     -42.112  57.699 -51.135  1.00  0.00     0.017 A 
ENDBRANCH  13  15
ENDBRANCH  12  13
ENDBRANCH  11  12
ENDBRANCH   6  11
BRANCH   8  22
HETATM   22  N   UNL     1     -41.687  55.400 -56.089  1.00  0.00    -0.340 N 
HETATM   23  H   UNL     1     -41.556  54.855 -56.936  1.00  0.00     0.167 HD
BRANCH  22  24
HETATM   24  C   UNL     1     -41.390  54.636 -54.936  1.00  0.00     0.036 A 
HETATM   25  C   UNL     1     -40.597  53.483 -55.085  1.00  0.00     0.069 A 
HETATM   26  C   UNL     1     -40.225  52.781 -53.956  1.00  0.00     0.107 A 
HETATM   27  C   UNL     1     -40.589  53.188 -52.697  1.00  0.00     0.105 A 
HETATM   28  O   UNL     1     -39.469  51.650 -53.938  1.00  0.00    -0.323 OA
HETATM   29  O   UNL     1     -40.114  52.365 -51.726  1.00  0.00    -0.323 OA
HETATM   30  C   UNL     1     -41.339  54.324 -52.500  1.00  0.00     0.042 A 
HETATM   31  C   UNL     1     -39.403  51.393 -52.520  1.00  0.00     0.352 A 
HETATM   32  C   UNL     1     -41.725  55.057 -53.630  1.00  0.00     0.032 A 
ENDBRANCH  22  24
ENDBRANCH   8  22
TORSDOF 6
ENDMDL
MODEL 9
REMARK VINA RESULT:      -7.8      3.265      5.718
REMARK  6 active torsions:
REMARK  status: ('A' for Active; 'I' for Inactive)
REMARK    1  A    between atoms: C_6  and  S_7 
REMARK    2  A    between atoms: S_7  and  C_8 
REMARK    3  A    between atoms: C_8  and  C_9 
REMARK    4  A    between atoms: C_9  and  C_10 
REMARK    5  A    between atoms: C_19  and  N_20 
REMARK    6  A    between atoms: N_20  and  C_21 
ROOT
HETATM    1  C   UNL     1     -39.663  52.215 -51.273  1.00  0.00     0.001 A 
HETATM    2  C   UNL     1     -40.444  53.368 -51.286  1.00  0.00     0.018 A 
HETATM    3  C   UNL     1     -41.066  53.815 -52.483  1.00  0.00     0.039 A 
HETATM    4  C   UNL     1     -40.874  53.092 -53.665  1.00  0.00     0.073 A 
HETATM    5  N   UNL     1     -41.405  53.461 -54.834  1.00  0.00    -0.222 NA
HETATM    6  C   UNL     1     -42.144  54.577 -54.846  1.00  0.00     0.191 A 
HETATM    7  N   UNL     1     -42.399  55.340 -53.778  1.00  0.00    -0.204 NA
HETATM    8  C   UNL     1     -41.875  54.962 -52.600  1.00  0.00     0.143 A 
HETATM    9  C   UNL     1     -40.093  51.943 -53.626  1.00  0.00     0.032 A 
HETATM   10  C   UNL     1     -39.491  51.498 -52.447  1.00  0.00     0.002 A 
ENDROOT
BRANCH   6  11
HETATM   11  S   UNL     1     -42.857  55.110 -56.382  1.00  0.00    -0.082 SA
BRANCH  11  12
HETATM   12  C   UNL     1     -42.444  56.876 -56.316  1.00  0.00     0.166 C 
BRANCH  12  13
HETATM   13  C   UNL     1     -42.561  57.554 -57.670  1.00  0.00     0.169 C 
HETATM   14  O   UNL     1     -41.725  58.331 -58.129  1.00  0.00    -0.291 OA
BRANCH  13  15
HETATM   15  C   UNL     1     -43.782  57.267 -58.491  1.00  0.00     0.011 A 
HETATM   16  C   UNL     1     -45.051  57.757 -58.152  1.00  0.00     0.017 A 
HETATM   17  C   UNL     1     -46.159  57.457 -58.954  1.00  0.00     0.025 A 
HETATM   18  C   UNL     1     -46.003  56.672 -60.096  1.00  0.00     0.034 A 
HETATM   19 CL   UNL     1     -47.369  56.308 -61.075  1.00  0.00    -0.084 Cl
HETATM   20  C   UNL     1     -44.748  56.182 -60.445  1.00  0.00     0.025 A 
HETATM   21  C   UNL     1     -43.640  56.479 -59.644  1.00  0.00     0.017 A 
ENDBRANCH  13  15
ENDBRANCH  12  13
ENDBRANCH  11  12
ENDBRANCH   6  11
BRANCH   8  22
HETATM   22  N   UNL     1     -42.138  55.732 -51.436  1.00  0.00    -0.340 N 
HETATM   23  H   UNL     1     -42.956  55.356 -50.967  1.00  0.00     0.167 HD
BRANCH  22  24
HETATM   24  C   UNL     1     -42.024  57.127 -51.233  1.00  0.00     0.036 A 
HETATM   25  C   UNL     1     -43.140  57.936 -51.517  1.00  0.00     0.069 A 
HETATM   26  C   UNL     1     -43.072  59.286 -51.236  1.00  0.00     0.107 A 
HETATM   27  C   UNL     1     -41.958  59.852 -50.670  1.00  0.00     0.105 A 
HETATM   28  O   UNL     1     -44.061  60.193 -51.459  1.00  0.00    -0.323 OA
HETATM   29  O   UNL     1     -42.100  61.188 -50.467  1.00  0.00    -0.323 OA
HETATM   30  C   UNL     1     -40.855  59.098 -50.347  1.00  0.00     0.042 A 
HETATM   31  C   UNL     1     -43.436  61.397 -50.968  1.00  0.00     0.352 A 
HETATM   32  C   UNL     1     -40.902  57.723 -50.618  1.00  0.00     0.032 A 
ENDBRANCH  22  24
ENDBRANCH   8  22
TORSDOF 6
ENDMDL
MODEL 10
REMARK VINA RESULT:      -7.6      4.116      7.683
REMARK  6 active torsions:
REMARK  status: ('A' for Active; 'I' for Inactive)
REMARK    1  A    between atoms: C_6  and  S_7 
REMARK    2  A    between atoms: S_7  and  C_8 
REMARK    3  A    between atoms: C_8  and  C_9 
REMARK    4  A    between atoms: C_9  and  C_10 
REMARK    5  A    between atoms: C_19  and  N_20 
REMARK    6  A    between atoms: N_20  and  C_21 
ROOT
HETATM    1  C   UNL     1     -45.778  61.436 -54.990  1.00  0.00     0.001 A 
HETATM    2  C   UNL     1     -44.801  60.717 -55.675  1.00  0.00     0.018 A 
HETATM    3  C   UNL     1     -43.975  59.781 -54.998  1.00  0.00     0.039 A 
HETATM    4  C   UNL     1     -44.136  59.595 -53.621  1.00  0.00     0.073 A 
HETATM    5  N   UNL     1     -43.383  58.753 -52.910  1.00  0.00    -0.222 NA
HETATM    6  C   UNL     1     -42.436  58.073 -53.568  1.00  0.00     0.191 A 
HETATM    7  N   UNL     1     -42.198  58.165 -54.880  1.00  0.00    -0.204 NA
HETATM    8  C   UNL     1     -42.964  59.005 -55.597  1.00  0.00     0.143 A 
HETATM    9  C   UNL     1     -45.120  60.323 -52.960  1.00  0.00     0.032 A 
HETATM   10  C   UNL     1     -45.940  61.235 -53.628  1.00  0.00     0.002 A 
ENDROOT
BRANCH   6  11
HETATM   11  S   UNL     1     -41.403  56.952 -52.658  1.00  0.00    -0.082 SA
BRANCH  11  12
HETATM   12  C   UNL     1     -41.881  55.387 -53.445  1.00  0.00     0.166 C 
BRANCH  12  13
HETATM   13  C   UNL     1     -40.685  54.602 -53.954  1.00  0.00     0.169 C 
HETATM   14  O   UNL     1     -40.003  54.931 -54.922  1.00  0.00    -0.291 OA
BRANCH  13  15
HETATM   15  C   UNL     1     -40.326  53.335 -53.237  1.00  0.00     0.011 A 
HETATM   16  C   UNL     1     -40.005  52.149 -53.913  1.00  0.00     0.017 A 
HETATM   17  C   UNL     1     -39.679  50.994 -53.194  1.00  0.00     0.025 A 
HETATM   18  C   UNL     1     -39.666  51.019 -51.800  1.00  0.00     0.034 A 
HETATM   19 CL   UNL     1     -39.263  49.595 -50.924  1.00  0.00    -0.084 Cl
HETATM   20  C   UNL     1     -39.978  52.190 -51.116  1.00  0.00     0.025 A 
HETATM   21  C   UNL     1     -40.307  53.345 -51.833  1.00  0.00     0.017 A 
ENDBRANCH  13  15
ENDBRANCH  12  13
ENDBRANCH  11  12
ENDBRANCH   6  11
BRANCH   8  22
HETATM   22  N   UNL     1     -42.759  59.118 -56.998  1.00  0.00    -0.340 N 
HETATM   23  H   UNL     1     -42.980  60.065 -57.291  1.00  0.00     0.167 HD
BRANCH  22  24
HETATM   24  C   UNL     1     -43.031  58.187 -58.027  1.00  0.00     0.036 A 
HETATM   25  C   UNL     1     -44.347  57.710 -58.166  1.00  0.00     0.069 A 
HETATM   26  C   UNL     1     -44.644  56.872 -59.223  1.00  0.00     0.107 A 
HETATM   27  C   UNL     1     -43.697  56.511 -60.148  1.00  0.00     0.105 A 
HETATM   28  O   UNL     1     -45.862  56.327 -59.485  1.00  0.00    -0.323 OA
HETATM   29  O   UNL     1     -44.196  55.690 -61.109  1.00  0.00    -0.323 OA
HETATM   30  C   UNL     1     -42.405  56.975 -60.071  1.00  0.00     0.042 A 
HETATM   31  C   UNL     1     -45.569  55.579 -60.684  1.00  0.00     0.352 A 
HETATM   32  C   UNL     1     -42.080  57.832 -59.010  1.00  0.00     0.032 A 
ENDBRANCH  22  24
ENDBRANCH   8  22
TORSDOF 6
ENDMDL
