MODEL 1
REMARK VINA RESULT:      -8.1      0.000      0.000
REMARK  6 active torsions:
REMARK  status: ('A' for Active; 'I' for Inactive)
REMARK    1  A    between atoms: C_3  and  N_4 
REMARK    2  A    between atoms: N_4  and  C_5 
REMARK    3  A    between atoms: C_5  and  C_6 
REMARK    4  A    between atoms: N_8  and  C_10 
REMARK    5  A    between atoms: C_10  and  C_11 
REMARK    6  A    between atoms: C_16  and  O_17 
ROOT
HETATM    1  C   UNL     1     -43.576  55.631 -54.811  1.00  0.00     0.031 C 
HETATM    2  C   UNL     1     -42.933  54.248 -54.681  1.00  0.00     0.241 C 
HETATM    3  N   UNL     1     -42.040  54.324 -53.460  1.00  0.00    -0.067 N 
HETATM    4  H   UNL     1     -42.378  53.606 -52.798  1.00  0.00     0.280 HD
HETATM    5  C   UNL     1     -42.257  55.662 -52.796  1.00  0.00     0.235 C 
HETATM    6  C   UNL     1     -43.583  56.132 -53.367  1.00  0.00     0.035 C 
ENDROOT
BRANCH   3   7
HETATM    7  C   UNL     1     -40.598  53.962 -53.717  1.00  0.00     0.274 C 
BRANCH   7   8
HETATM    8  C   UNL     1     -40.244  52.561 -53.302  1.00  0.00    -0.013 A 
HETATM    9  C   UNL     1     -39.923  52.213 -51.980  1.00  0.00     0.019 A 
HETATM   10 BR   UNL     1     -39.881  53.507 -50.590  1.00  0.00    -0.051 Br
HETATM   11  C   UNL     1     -39.602  50.893 -51.645  1.00  0.00     0.022 A 
HETATM   12  C   UNL     1     -39.587  49.902 -52.628  1.00  0.00     0.038 A 
HETATM   13  C   UNL     1     -39.893  50.243 -53.937  1.00  0.00     0.066 A 
HETATM   14  C   UNL     1     -40.221  51.552 -54.279  1.00  0.00     0.046 A 
BRANCH  13  15
HETATM   15  O   UNL     1     -39.884  49.326 -54.942  1.00  0.00    -0.361 OA
HETATM   16  H   UNL     1     -39.212  48.645 -54.754  1.00  0.00     0.217 HD
ENDBRANCH  13  15
ENDBRANCH   7   8
ENDBRANCH   3   7
BRANCH   1  17
HETATM   17  C   UNL     1     -42.815  56.575 -55.763  1.00  0.00     0.127 C 
BRANCH  17  18
HETATM   18  N   UNL     1     -42.435  55.857 -56.974  1.00  0.00    -0.376 N 
HETATM   19  H   UNL     1     -41.432  55.925 -57.179  1.00  0.00     0.161 HD
BRANCH  18  20
HETATM   20  C   UNL     1     -43.143  55.837 -58.174  1.00  0.00     0.100 A 
HETATM   21  C   UNL     1     -42.936  56.880 -59.094  1.00  0.00     0.048 A 
HETATM   22  C   UNL     1     -43.598  56.885 -60.319  1.00  0.00     0.005 A 
HETATM   23  C   UNL     1     -44.460  55.846 -60.631  1.00  0.00     0.017 A 
HETATM   24  C   UNL     1     -44.627  54.821 -59.714  1.00  0.00     0.089 A 
HETATM   25  N   UNL     1     -43.967  54.842 -58.542  1.00  0.00    -0.353 N 
HETATM   26  H   UNL     1     -44.122  54.064 -57.912  1.00  0.00     0.166 HD
ENDBRANCH  18  20
ENDBRANCH  17  18
ENDBRANCH   1  17
TORSDOF 6
ENDMDL
MODEL 2
REMARK VINA RESULT:      -7.0      2.615      3.170
REMARK  6 active torsions:
REMARK  status: ('A' for Active; 'I' for Inactive)
REMARK    1  A    between atoms: C_3  and  N_4 
REMARK    2  A    between atoms: N_4  and  C_5 
REMARK    3  A    between atoms: C_5  and  C_6 
REMARK    4  A    between atoms: N_8  and  C_10 
REMARK    5  A    between atoms: C_10  and  C_11 
REMARK    6  A    between atoms: C_16  and  O_17 
ROOT
HETATM    1  C   UNL     1     -43.621  56.174 -55.437  1.00  0.00     0.031 C 
HETATM    2  C   UNL     1     -42.945  55.035 -54.670  1.00  0.00     0.241 C 
HETATM    3  N   UNL     1     -42.599  55.605 -53.310  1.00  0.00    -0.067 N 
HETATM    4  H   UNL     1     -43.091  55.027 -52.610  1.00  0.00     0.280 HD
HETATM    5  C   UNL     1     -43.182  56.993 -53.215  1.00  0.00     0.235 C 
HETATM    6  C   UNL     1     -44.228  57.016 -54.316  1.00  0.00     0.035 C 
ENDROOT
BRANCH   3   7
HETATM    7  C   UNL     1     -41.139  55.495 -52.940  1.00  0.00     0.274 C 
BRANCH   7   8
HETATM    8  C   UNL     1     -40.880  54.595 -51.765  1.00  0.00    -0.013 A 
HETATM    9  C   UNL     1     -40.498  53.250 -51.901  1.00  0.00     0.019 A 
HETATM   10 BR   UNL     1     -40.299  52.438 -53.607  1.00  0.00    -0.051 Br
HETATM   11  C   UNL     1     -40.267  52.454 -50.774  1.00  0.00     0.022 A 
HETATM   12  C   UNL     1     -40.424  52.986 -49.493  1.00  0.00     0.038 A 
HETATM   13  C   UNL     1     -40.812  54.310 -49.354  1.00  0.00     0.066 A 
HETATM   14  C   UNL     1     -41.037  55.113 -50.469  1.00  0.00     0.046 A 
BRANCH  13  15
HETATM   15  O   UNL     1     -40.995  54.883 -48.133  1.00  0.00    -0.361 OA
HETATM   16  H   UNL     1     -40.684  55.807 -48.159  1.00  0.00     0.217 HD
ENDBRANCH  13  15
ENDBRANCH   7   8
ENDBRANCH   3   7
BRANCH   1  17
HETATM   17  C   UNL     1     -42.649  56.978 -56.324  1.00  0.00     0.127 C 
BRANCH  17  18
HETATM   18  N   UNL     1     -42.590  56.389 -57.657  1.00  0.00    -0.376 N 
HETATM   19  H   UNL     1     -41.747  56.660 -58.175  1.00  0.00     0.161 HD
BRANCH  18  20
HETATM   20  C   UNL     1     -43.653  56.267 -58.550  1.00  0.00     0.100 A 
HETATM   21  C   UNL     1     -43.606  55.245 -59.513  1.00  0.00     0.048 A 
HETATM   22  C   UNL     1     -44.660  55.067 -60.407  1.00  0.00     0.005 A 
HETATM   23  C   UNL     1     -45.763  55.902 -60.334  1.00  0.00     0.017 A 
HETATM   24  C   UNL     1     -45.790  56.885 -59.359  1.00  0.00     0.089 A 
HETATM   25  N   UNL     1     -44.759  57.028 -58.506  1.00  0.00    -0.353 N 
HETATM   26  H   UNL     1     -44.834  57.760 -57.810  1.00  0.00     0.166 HD
ENDBRANCH  18  20
ENDBRANCH  17  18
ENDBRANCH   1  17
TORSDOF 6
ENDMDL
MODEL 3
REMARK VINA RESULT:      -6.8      3.302      7.764
REMARK  6 active torsions:
REMARK  status: ('A' for Active; 'I' for Inactive)
REMARK    1  A    between atoms: C_3  and  N_4 
REMARK    2  A    between atoms: N_4  and  C_5 
REMARK    3  A    between atoms: C_5  and  C_6 
REMARK    4  A    between atoms: N_8  and  C_10 
REMARK    5  A    between atoms: C_10  and  C_11 
REMARK    6  A    between atoms: C_16  and  O_17 
ROOT
HETATM    1  C   UNL     1     -42.722  54.804 -53.790  1.00  0.00     0.031 C 
HETATM    2  C   UNL     1     -43.494  56.109 -53.994  1.00  0.00     0.241 C 
HETATM    3  N   UNL     1     -43.736  56.214 -55.485  1.00  0.00    -0.067 N 
HETATM    4  H   UNL     1     -44.760  56.248 -55.620  1.00  0.00     0.280 HD
HETATM    5  C   UNL     1     -43.255  54.940 -56.135  1.00  0.00     0.235 C 
HETATM    6  C   UNL     1     -43.177  53.958 -54.979  1.00  0.00     0.035 C 
ENDROOT
BRANCH   3   7
HETATM    7  C   UNL     1     -43.224  57.488 -56.113  1.00  0.00     0.274 C 
BRANCH   7   8
HETATM    8  C   UNL     1     -43.391  57.535 -57.606  1.00  0.00    -0.013 A 
HETATM    9  C   UNL     1     -44.587  57.927 -58.230  1.00  0.00     0.019 A 
HETATM   10 BR   UNL     1     -46.123  58.411 -57.224  1.00  0.00    -0.051 Br
HETATM   11  C   UNL     1     -44.689  57.955 -59.625  1.00  0.00     0.022 A 
HETATM   12  C   UNL     1     -43.603  57.583 -60.418  1.00  0.00     0.038 A 
HETATM   13  C   UNL     1     -42.424  57.185 -59.807  1.00  0.00     0.066 A 
HETATM   14  C   UNL     1     -42.308  57.161 -58.420  1.00  0.00     0.046 A 
BRANCH  13  15
HETATM   15  O   UNL     1     -41.335  56.798 -60.524  1.00  0.00    -0.361 OA
HETATM   16  H   UNL     1     -41.303  55.825 -60.567  1.00  0.00     0.217 HD
ENDBRANCH  13  15
ENDBRANCH   7   8
ENDBRANCH   3   7
BRANCH   1  17
HETATM   17  C   UNL     1     -41.192  54.994 -53.749  1.00  0.00     0.127 C 
BRANCH  17  18
HETATM   18  N   UNL     1     -40.615  54.152 -52.708  1.00  0.00    -0.376 N 
HETATM   19  H   UNL     1     -39.876  54.626 -52.176  1.00  0.00     0.161 HD
BRANCH  18  20
HETATM   20  C   UNL     1     -40.294  52.801 -52.827  1.00  0.00     0.100 A 
HETATM   21  C   UNL     1     -40.333  52.212 -54.102  1.00  0.00     0.048 A 
HETATM   22  C   UNL     1     -39.990  50.873 -54.273  1.00  0.00     0.005 A 
HETATM   23  C   UNL     1     -39.600  50.124 -53.174  1.00  0.00     0.017 A 
HETATM   24  C   UNL     1     -39.550  50.739 -51.934  1.00  0.00     0.089 A 
HETATM   25  N   UNL     1     -39.880  52.036 -51.803  1.00  0.00    -0.353 N 
HETATM   26  H   UNL     1     -39.820  52.436 -50.874  1.00  0.00     0.166 HD
ENDBRANCH  18  20
ENDBRANCH  17  18
ENDBRANCH   1  17
TORSDOF 6
ENDMDL
MODEL 4
REMARK VINA RESULT:      -6.8     14.181     16.523
REMARK  6 active torsions:
REMARK  status: ('A' for Active; 'I' for Inactive)
REMARK    1  A    between atoms: C_3  and  N_4 
REMARK    2  A    between atoms: N_4  and  C_5 
REMARK    3  A    between atoms: C_5  and  C_6 
REMARK    4  A    between atoms: N_8  and  C_10 
REMARK    5  A    between atoms: C_10  and  C_11 
REMARK    6  A    between atoms: C_16  and  O_17 
ROOT
HETATM    1  C   UNL     1     -36.356  41.733 -56.763  1.00  0.00     0.031 C 
HETATM    2  C   UNL     1     -34.931  42.225 -56.502  1.00  0.00     0.241 C 
HETATM    3  N   UNL     1     -34.066  40.983 -56.473  1.00  0.00    -0.067 N 
HETATM    4  H   UNL     1     -33.361  41.091 -57.221  1.00  0.00     0.280 HD
HETATM    5  C   UNL     1     -34.922  39.799 -56.853  1.00  0.00     0.235 C 
HETATM    6  C   UNL     1     -36.123  40.433 -57.533  1.00  0.00     0.035 C 
ENDROOT
BRANCH   3   7
HETATM    7  C   UNL     1     -33.259  40.812 -55.209  1.00  0.00     0.274 C 
BRANCH   7   8
HETATM    8  C   UNL     1     -32.138  39.819 -55.337  1.00  0.00    -0.013 A 
HETATM    9  C   UNL     1     -31.989  38.717 -54.477  1.00  0.00     0.019 A 
HETATM   10 BR   UNL     1     -33.194  38.402 -53.043  1.00  0.00    -0.051 Br
HETATM   11  C   UNL     1     -30.928  37.821 -54.641  1.00  0.00     0.022 A 
HETATM   12  C   UNL     1     -29.994  38.015 -55.659  1.00  0.00     0.038 A 
HETATM   13  C   UNL     1     -30.130  39.107 -56.503  1.00  0.00     0.066 A 
HETATM   14  C   UNL     1     -31.187  40.000 -56.354  1.00  0.00     0.046 A 
BRANCH  13  15
HETATM   15  O   UNL     1     -29.246  39.358 -57.506  1.00  0.00    -0.361 OA
HETATM   16  H   UNL     1     -28.502  38.731 -57.447  1.00  0.00     0.217 HD
ENDBRANCH  13  15
ENDBRANCH   7   8
ENDBRANCH   3   7
BRANCH   1  17
HETATM   17  C   UNL     1     -37.178  41.521 -55.476  1.00  0.00     0.127 C 
BRANCH  17  18
HETATM   18  N   UNL     1     -36.653  42.363 -54.407  1.00  0.00    -0.376 N 
HETATM   19  H   UNL     1     -36.042  43.111 -54.754  1.00  0.00     0.161 HD
BRANCH  18  20
HETATM   20  C   UNL     1     -36.178  41.924 -53.173  1.00  0.00     0.100 A 
HETATM   21  C   UNL     1     -36.801  40.819 -52.568  1.00  0.00     0.048 A 
HETATM   22  C   UNL     1     -36.340  40.327 -51.349  1.00  0.00     0.005 A 
HETATM   23  C   UNL     1     -35.253  40.930 -50.739  1.00  0.00     0.017 A 
HETATM   24  C   UNL     1     -34.646  42.003 -51.371  1.00  0.00     0.089 A 
HETATM   25  N   UNL     1     -35.110  42.450 -52.551  1.00  0.00    -0.353 N 
HETATM   26  H   UNL     1     -34.624  43.234 -52.971  1.00  0.00     0.166 HD
ENDBRANCH  18  20
ENDBRANCH  17  18
ENDBRANCH   1  17
TORSDOF 6
ENDMDL
MODEL 5
REMARK VINA RESULT:      -6.7      3.374      6.757
REMARK  6 active torsions:
REMARK  status: ('A' for Active; 'I' for Inactive)
REMARK    1  A    between atoms: C_3  and  N_4 
REMARK    2  A    between atoms: N_4  and  C_5 
REMARK    3  A    between atoms: C_5  and  C_6 
REMARK    4  A    between atoms: N_8  and  C_10 
REMARK    5  A    between atoms: C_10  and  C_11 
REMARK    6  A    between atoms: C_16  and  O_17 
ROOT
HETATM    1  C   UNL     1     -41.354  55.212 -51.321  1.00  0.00     0.031 C 
HETATM    2  C   UNL     1     -41.612  56.648 -51.783  1.00  0.00     0.241 C 
HETATM    3  N   UNL     1     -43.066  56.927 -51.464  1.00  0.00    -0.067 N 
HETATM    4  H   UNL     1     -43.081  57.733 -50.817  1.00  0.00     0.280 HD
HETATM    5  C   UNL     1     -43.619  55.748 -50.701  1.00  0.00     0.235 C 
HETATM    6  C   UNL     1     -42.376  55.035 -50.198  1.00  0.00     0.035 C 
ENDROOT
BRANCH   3   7
HETATM    7  C   UNL     1     -43.892  57.369 -52.648  1.00  0.00     0.274 C 
BRANCH   7   8
HETATM    8  C   UNL     1     -43.392  56.842 -53.963  1.00  0.00    -0.013 A 
HETATM    9  C   UNL     1     -42.559  57.583 -54.818  1.00  0.00     0.019 A 
HETATM   10 BR   UNL     1     -42.009  59.350 -54.388  1.00  0.00    -0.051 Br
HETATM   11  C   UNL     1     -42.119  57.044 -56.032  1.00  0.00     0.022 A 
HETATM   12  C   UNL     1     -42.513  55.762 -56.416  1.00  0.00     0.038 A 
HETATM   13  C   UNL     1     -43.344  55.031 -55.581  1.00  0.00     0.066 A 
HETATM   14  C   UNL     1     -43.781  55.554 -54.367  1.00  0.00     0.046 A 
BRANCH  13  15
HETATM   15  O   UNL     1     -43.773  53.781 -55.905  1.00  0.00    -0.361 OA
HETATM   16  H   UNL     1     -43.415  53.139 -55.265  1.00  0.00     0.217 HD
ENDBRANCH  13  15
ENDBRANCH   7   8
ENDBRANCH   3   7
BRANCH   1  17
HETATM   17  C   UNL     1     -41.517  54.167 -52.443  1.00  0.00     0.127 C 
BRANCH  17  18
HETATM   18  N   UNL     1     -40.241  53.511 -52.700  1.00  0.00    -0.376 N 
HETATM   19  H   UNL     1     -39.688  53.986 -53.422  1.00  0.00     0.161 HD
BRANCH  18  20
HETATM   20  C   UNL     1     -40.026  52.138 -52.792  1.00  0.00     0.100 A 
HETATM   21  C   UNL     1     -40.087  51.532 -54.059  1.00  0.00     0.048 A 
HETATM   22  C   UNL     1     -39.848  50.167 -54.203  1.00  0.00     0.005 A 
HETATM   23  C   UNL     1     -39.540  49.409 -53.085  1.00  0.00     0.017 A 
HETATM   24  C   UNL     1     -39.464  50.038 -51.854  1.00  0.00     0.089 A 
HETATM   25  N   UNL     1     -39.693  51.359 -51.748  1.00  0.00    -0.353 N 
HETATM   26  H   UNL     1     -39.619  51.768 -50.825  1.00  0.00     0.166 HD
ENDBRANCH  18  20
ENDBRANCH  17  18
ENDBRANCH   1  17
TORSDOF 6
ENDMDL
MODEL 6
REMARK VINA RESULT:      -6.7     13.701     15.819
REMARK  6 active torsions:
REMARK  status: ('A' for Active; 'I' for Inactive)
REMARK    1  A    between atoms: C_3  and  N_4 
REMARK    2  A    between atoms: N_4  and  C_5 
REMARK    3  A    between atoms: C_5  and  C_6 
REMARK    4  A    between atoms: N_8  and  C_10 
REMARK    5  A    between atoms: C_10  and  C_11 
REMARK    6  A    between atoms: C_16  and  O_17 
ROOT
HETATM    1  C   UNL     1     -36.829  42.308 -56.046  1.00  0.00     0.031 C 
HETATM    2  C   UNL     1     -35.312  42.260 -56.248  1.00  0.00     0.241 C 
HETATM    3  N   UNL     1     -35.094  41.489 -57.533  1.00  0.00    -0.067 N 
HETATM    4  H   UNL     1     -34.591  42.120 -58.179  1.00  0.00     0.280 HD
HETATM    5  C   UNL     1     -36.441  41.214 -58.156  1.00  0.00     0.235 C 
HETATM    6  C   UNL     1     -37.359  42.214 -57.476  1.00  0.00     0.035 C 
ENDROOT
BRANCH   3   7
HETATM    7  C   UNL     1     -34.193  40.285 -57.394  1.00  0.00     0.274 C 
BRANCH   7   8
HETATM    8  C   UNL     1     -33.959  39.867 -55.970  1.00  0.00    -0.013 A 
HETATM    9  C   UNL     1     -34.683  38.837 -55.346  1.00  0.00     0.019 A 
HETATM   10 BR   UNL     1     -36.056  37.891 -56.257  1.00  0.00    -0.051 Br
HETATM   11  C   UNL     1     -34.425  38.485 -54.017  1.00  0.00     0.022 A 
HETATM   12  C   UNL     1     -33.448  39.162 -53.287  1.00  0.00     0.038 A 
HETATM   13  C   UNL     1     -32.738  40.188 -53.895  1.00  0.00     0.066 A 
HETATM   14  C   UNL     1     -32.981  40.540 -55.219  1.00  0.00     0.046 A 
BRANCH  13  15
HETATM   15  O   UNL     1     -31.782  40.894 -53.232  1.00  0.00    -0.361 OA
HETATM   16  H   UNL     1     -32.091  41.089 -52.329  1.00  0.00     0.217 HD
ENDBRANCH  13  15
ENDBRANCH   7   8
ENDBRANCH   3   7
BRANCH   1  17
HETATM   17  C   UNL     1     -37.363  41.181 -55.140  1.00  0.00     0.127 C 
BRANCH  17  18
HETATM   18  N   UNL     1     -37.513  41.670 -53.774  1.00  0.00    -0.376 N 
HETATM   19  H   UNL     1     -37.789  42.657 -53.734  1.00  0.00     0.161 HD
BRANCH  18  20
HETATM   20  C   UNL     1     -36.667  41.391 -52.703  1.00  0.00     0.100 A 
HETATM   21  C   UNL     1     -35.543  42.211 -52.503  1.00  0.00     0.048 A 
HETATM   22  C   UNL     1     -34.686  41.988 -51.428  1.00  0.00     0.005 A 
HETATM   23  C   UNL     1     -34.955  40.953 -50.547  1.00  0.00     0.017 A 
HETATM   24  C   UNL     1     -36.083  40.176 -50.757  1.00  0.00     0.089 A 
HETATM   25  N   UNL     1     -36.894  40.421 -51.802  1.00  0.00    -0.353 N 
HETATM   26  H   UNL     1     -37.707  39.826 -51.904  1.00  0.00     0.166 HD
ENDBRANCH  18  20
ENDBRANCH  17  18
ENDBRANCH   1  17
TORSDOF 6
ENDMDL
MODEL 7
REMARK VINA RESULT:      -6.6     13.704     14.899
REMARK  6 active torsions:
REMARK  status: ('A' for Active; 'I' for Inactive)
REMARK    1  A    between atoms: C_3  and  N_4 
REMARK    2  A    between atoms: N_4  and  C_5 
REMARK    3  A    between atoms: C_5  and  C_6 
REMARK    4  A    between atoms: N_8  and  C_10 
REMARK    5  A    between atoms: C_10  and  C_11 
REMARK    6  A    between atoms: C_16  and  O_17 
ROOT
HETATM    1  C   UNL     1     -35.431  41.802 -57.152  1.00  0.00     0.031 C 
HETATM    2  C   UNL     1     -34.906  42.648 -55.990  1.00  0.00     0.241 C 
HETATM    3  N   UNL     1     -34.939  41.744 -54.776  1.00  0.00    -0.067 N 
HETATM    4  H   UNL     1     -33.970  41.679 -54.425  1.00  0.00     0.280 HD
HETATM    5  C   UNL     1     -35.330  40.358 -55.227  1.00  0.00     0.235 C 
HETATM    6  C   UNL     1     -35.065  40.382 -56.722  1.00  0.00     0.035 C 
ENDROOT
BRANCH   3   7
HETATM    7  C   UNL     1     -35.733  42.288 -53.613  1.00  0.00     0.274 C 
BRANCH   7   8
HETATM    8  C   UNL     1     -35.661  41.432 -52.380  1.00  0.00    -0.013 A 
HETATM    9  C   UNL     1     -36.779  40.779 -51.835  1.00  0.00     0.019 A 
HETATM   10 BR   UNL     1     -38.506  40.947 -52.609  1.00  0.00    -0.051 Br
HETATM   11  C   UNL     1     -36.658  39.991 -50.686  1.00  0.00     0.022 A 
HETATM   12  C   UNL     1     -35.420  39.852 -50.055  1.00  0.00     0.038 A 
HETATM   13  C   UNL     1     -34.316  40.504 -50.582  1.00  0.00     0.066 A 
HETATM   14  C   UNL     1     -34.424  41.284 -51.731  1.00  0.00     0.046 A 
BRANCH  13  15
HETATM   15  O   UNL     1     -33.086  40.419 -50.007  1.00  0.00    -0.361 OA
HETATM   16  H   UNL     1     -33.183  40.362 -49.039  1.00  0.00     0.217 HD
ENDBRANCH  13  15
ENDBRANCH   7   8
ENDBRANCH   3   7
BRANCH   1  17
HETATM   17  C   UNL     1     -36.943  41.974 -57.404  1.00  0.00     0.127 C 
BRANCH  17  18
HETATM   18  N   UNL     1     -37.221  41.884 -58.832  1.00  0.00    -0.376 N 
HETATM   19  H   UNL     1     -37.780  42.671 -59.179  1.00  0.00     0.161 HD
BRANCH  18  20
HETATM   20  C   UNL     1     -37.578  40.731 -59.530  1.00  0.00     0.100 A 
HETATM   21  C   UNL     1     -38.406  39.791 -58.894  1.00  0.00     0.048 A 
HETATM   22  C   UNL     1     -38.813  38.639 -59.563  1.00  0.00     0.005 A 
HETATM   23  C   UNL     1     -38.401  38.430 -60.870  1.00  0.00     0.017 A 
HETATM   24  C   UNL     1     -37.604  39.386 -61.477  1.00  0.00     0.089 A 
HETATM   25  N   UNL     1     -37.234  40.492 -60.806  1.00  0.00    -0.353 N 
HETATM   26  H   UNL     1     -36.656  41.160 -61.301  1.00  0.00     0.166 HD
ENDBRANCH  18  20
ENDBRANCH  17  18
ENDBRANCH   1  17
TORSDOF 6
ENDMDL
MODEL 8
REMARK VINA RESULT:      -6.6      1.618      2.108
REMARK  6 active torsions:
REMARK  status: ('A' for Active; 'I' for Inactive)
REMARK    1  A    between atoms: C_3  and  N_4 
REMARK    2  A    between atoms: N_4  and  C_5 
REMARK    3  A    between atoms: C_5  and  C_6 
REMARK    4  A    between atoms: N_8  and  C_10 
REMARK    5  A    between atoms: C_10  and  C_11 
REMARK    6  A    between atoms: C_16  and  O_17 
ROOT
HETATM    1  C   UNL     1     -44.208  57.143 -55.234  1.00  0.00     0.031 C 
HETATM    2  C   UNL     1     -43.494  55.919 -54.656  1.00  0.00     0.241 C 
HETATM    3  N   UNL     1     -42.701  56.427 -53.471  1.00  0.00    -0.067 N 
HETATM    4  H   UNL     1     -43.042  55.915 -52.641  1.00  0.00     0.280 HD
HETATM    5  C   UNL     1     -43.047  57.881 -53.257  1.00  0.00     0.235 C 
HETATM    6  C   UNL     1     -44.353  58.051 -54.013  1.00  0.00     0.035 C 
ENDROOT
BRANCH   3   7
HETATM    7  C   UNL     1     -41.223  56.121 -53.530  1.00  0.00     0.274 C 
BRANCH   7   8
HETATM    8  C   UNL     1     -40.865  54.768 -52.983  1.00  0.00    -0.013 A 
HETATM    9  C   UNL     1     -40.766  54.501 -51.607  1.00  0.00     0.019 A 
HETATM   10 BR   UNL     1     -41.055  55.854 -50.306  1.00  0.00    -0.051 Br
HETATM   11  C   UNL     1     -40.431  53.222 -51.149  1.00  0.00     0.022 A 
HETATM   12  C   UNL     1     -40.179  52.193 -52.058  1.00  0.00     0.038 A 
HETATM   13  C   UNL     1     -40.264  52.455 -53.417  1.00  0.00     0.066 A 
HETATM   14  C   UNL     1     -40.605  53.722 -53.883  1.00  0.00     0.046 A 
BRANCH  13  15
HETATM   15  O   UNL     1     -40.018  51.498 -54.352  1.00  0.00    -0.361 OA
HETATM   16  H   UNL     1     -39.449  51.868 -55.052  1.00  0.00     0.217 HD
ENDBRANCH  13  15
ENDBRANCH   7   8
ENDBRANCH   3   7
BRANCH   1  17
HETATM   17  C   UNL     1     -43.437  57.817 -56.386  1.00  0.00     0.127 C 
BRANCH  17  18
HETATM   18  N   UNL     1     -43.172  56.846 -57.441  1.00  0.00    -0.376 N 
HETATM   19  H   UNL     1     -42.216  56.908 -57.808  1.00  0.00     0.161 HD
BRANCH  18  20
HETATM   20  C   UNL     1     -44.036  56.502 -58.478  1.00  0.00     0.100 A 
HETATM   21  C   UNL     1     -43.629  55.513 -59.391  1.00  0.00     0.048 A 
HETATM   22  C   UNL     1     -44.472  55.115 -60.426  1.00  0.00     0.005 A 
HETATM   23  C   UNL     1     -45.724  55.697 -60.545  1.00  0.00     0.017 A 
HETATM   24  C   UNL     1     -46.106  56.652 -59.617  1.00  0.00     0.089 A 
HETATM   25  N   UNL     1     -45.271  57.009 -58.624  1.00  0.00    -0.353 N 
HETATM   26  H   UNL     1     -45.603  57.708 -57.971  1.00  0.00     0.166 HD
ENDBRANCH  18  20
ENDBRANCH  17  18
ENDBRANCH   1  17
TORSDOF 6
ENDMDL
MODEL 9
REMARK VINA RESULT:      -6.4     13.994     16.880
REMARK  6 active torsions:
REMARK  status: ('A' for Active; 'I' for Inactive)
REMARK    1  A    between atoms: C_3  and  N_4 
REMARK    2  A    between atoms: N_4  and  C_5 
REMARK    3  A    between atoms: C_5  and  C_6 
REMARK    4  A    between atoms: N_8  and  C_10 
REMARK    5  A    between atoms: C_10  and  C_11 
REMARK    6  A    between atoms: C_16  and  O_17 
ROOT
HETATM    1  C   UNL     1     -35.718  42.337 -55.056  1.00  0.00     0.031 C 
HETATM    2  C   UNL     1     -34.644  41.816 -56.014  1.00  0.00     0.241 C 
HETATM    3  N   UNL     1     -35.364  40.890 -56.972  1.00  0.00    -0.067 N 
HETATM    4  H   UNL     1     -35.222  41.272 -57.921  1.00  0.00     0.280 HD
HETATM    5  C   UNL     1     -36.844  40.971 -56.689  1.00  0.00     0.235 C 
HETATM    6  C   UNL     1     -36.986  42.264 -55.905  1.00  0.00     0.035 C 
ENDROOT
BRANCH   3   7
HETATM    7  C   UNL     1     -34.798  39.491 -57.033  1.00  0.00     0.274 C 
BRANCH   7   8
HETATM    8  C   UNL     1     -33.484  39.340 -56.319  1.00  0.00    -0.013 A 
HETATM    9  C   UNL     1     -33.363  38.727 -55.060  1.00  0.00     0.019 A 
HETATM   10 BR   UNL     1     -34.877  38.055 -54.130  1.00  0.00    -0.051 Br
HETATM   11  C   UNL     1     -32.116  38.609 -54.439  1.00  0.00     0.022 A 
HETATM   12  C   UNL     1     -30.971  39.110 -55.060  1.00  0.00     0.038 A 
HETATM   13  C   UNL     1     -31.086  39.725 -56.298  1.00  0.00     0.066 A 
HETATM   14  C   UNL     1     -32.322  39.840 -56.929  1.00  0.00     0.046 A 
BRANCH  13  15
HETATM   15  O   UNL     1     -30.010  40.244 -56.949  1.00  0.00    -0.361 OA
HETATM   16  H   UNL     1     -29.729  41.066 -56.507  1.00  0.00     0.217 HD
ENDBRANCH  13  15
ENDBRANCH   7   8
ENDBRANCH   3   7
BRANCH   1  17
HETATM   17  C   UNL     1     -35.829  41.520 -53.753  1.00  0.00     0.127 C 
BRANCH  17  18
HETATM   18  N   UNL     1     -34.910  42.052 -52.753  1.00  0.00    -0.376 N 
HETATM   19  H   UNL     1     -34.417  42.893 -53.074  1.00  0.00     0.161 HD
BRANCH  18  20
HETATM   20  C   UNL     1     -34.058  41.308 -51.940  1.00  0.00     0.100 A 
HETATM   21  C   UNL     1     -34.616  40.560 -50.889  1.00  0.00     0.048 A 
HETATM   22  C   UNL     1     -33.806  39.777 -50.070  1.00  0.00     0.005 A 
HETATM   23  C   UNL     1     -32.441  39.733 -50.304  1.00  0.00     0.017 A 
HETATM   24  C   UNL     1     -31.924  40.463 -51.362  1.00  0.00     0.089 A 
HETATM   25  N   UNL     1     -32.733  41.204 -52.139  1.00  0.00    -0.353 N 
HETATM   26  H   UNL     1     -32.302  41.713 -52.901  1.00  0.00     0.166 HD
ENDBRANCH  18  20
ENDBRANCH  17  18
ENDBRANCH   1  17
TORSDOF 6
ENDMDL
MODEL 10
REMARK VINA RESULT:      -6.4     13.807     16.071
REMARK  6 active torsions:
REMARK  status: ('A' for Active; 'I' for Inactive)
REMARK    1  A    between atoms: C_3  and  N_4 
REMARK    2  A    between atoms: N_4  and  C_5 
REMARK    3  A    between atoms: C_5  and  C_6 
REMARK    4  A    between atoms: N_8  and  C_10 
REMARK    5  A    between atoms: C_10  and  C_11 
REMARK    6  A    between atoms: C_16  and  O_17 
ROOT
HETATM    1  C   UNL     1     -35.748  40.741 -52.050  1.00  0.00     0.031 C 
HETATM    2  C   UNL     1     -34.718  39.764 -52.622  1.00  0.00     0.241 C 
HETATM    3  N   UNL     1     -33.540  39.806 -51.671  1.00  0.00    -0.067 N 
HETATM    4  H   UNL     1     -33.413  38.846 -51.311  1.00  0.00     0.280 HD
HETATM    5  C   UNL     1     -33.915  40.666 -50.489  1.00  0.00     0.235 C 
HETATM    6  C   UNL     1     -35.431  40.721 -50.555  1.00  0.00     0.035 C 
ENDROOT
BRANCH   3   7
HETATM    7  C   UNL     1     -32.222  40.149 -52.322  1.00  0.00     0.274 C 
BRANCH   7   8
HETATM    8  C   UNL     1     -31.929  39.341 -53.555  1.00  0.00    -0.013 A 
HETATM    9  C   UNL     1     -31.784  37.944 -53.537  1.00  0.00     0.019 A 
HETATM   10 BR   UNL     1     -31.921  36.948 -51.925  1.00  0.00    -0.051 Br
HETATM   11  C   UNL     1     -31.514  37.238 -54.714  1.00  0.00     0.022 A 
HETATM   12  C   UNL     1     -31.374  37.916 -55.925  1.00  0.00     0.038 A 
HETATM   13  C   UNL     1     -31.506  39.297 -55.946  1.00  0.00     0.066 A 
HETATM   14  C   UNL     1     -31.783  40.008 -54.782  1.00  0.00     0.046 A 
BRANCH  13  15
HETATM   15  O   UNL     1     -31.369  40.017 -57.092  1.00  0.00    -0.361 OA
HETATM   16  H   UNL     1     -32.214  40.452 -57.306  1.00  0.00     0.217 HD
ENDBRANCH  13  15
ENDBRANCH   7   8
ENDBRANCH   3   7
BRANCH   1  17
HETATM   17  C   UNL     1     -35.657  42.156 -52.657  1.00  0.00     0.127 C 
BRANCH  17  18
HETATM   18  N   UNL     1     -36.674  42.319 -53.689  1.00  0.00    -0.376 N 
HETATM   19  H   UNL     1     -37.565  41.876 -53.443  1.00  0.00     0.161 HD
BRANCH  18  20
HETATM   20  C   UNL     1     -36.475  42.209 -55.064  1.00  0.00     0.100 A 
HETATM   21  C   UNL     1     -35.167  42.011 -55.540  1.00  0.00     0.048 A 
HETATM   22  C   UNL     1     -34.925  41.864 -56.903  1.00  0.00     0.005 A 
HETATM   23  C   UNL     1     -35.988  41.905 -57.791  1.00  0.00     0.017 A 
HETATM   24  C   UNL     1     -37.268  42.079 -57.290  1.00  0.00     0.089 A 
HETATM   25  N   UNL     1     -37.470  42.210 -55.967  1.00  0.00    -0.353 N 
HETATM   26  H   UNL     1     -38.426  42.329 -55.656  1.00  0.00     0.166 HD
ENDBRANCH  18  20
ENDBRANCH  17  18
ENDBRANCH   1  17
TORSDOF 6
ENDMDL
