MODEL 1
REMARK VINA RESULT:      -6.8      0.000      0.000
REMARK  7 active torsions:
REMARK  status: ('A' for Active; 'I' for Inactive)
REMARK    1  A    between atoms: O_2  and  C_3 
REMARK    2  A    between atoms: C_6  and  C_7 
REMARK    3  A    between atoms: C_7  and  N_8 
REMARK    4  A    between atoms: N_8  and  C_11 
REMARK    5  A    between atoms: C_11  and  C_12 
REMARK    6  A    between atoms: C_11  and  C_20 
REMARK       I    between atoms: C_12  and  N_13 
REMARK    7  A    between atoms: N_13  and  C_14 
ROOT
HETATM    1  C   UNL     1     -43.751  56.532 -54.528  1.00  0.00     0.310 C 
ENDROOT
BRANCH   1   2
HETATM    2  N   UNL     1     -43.679  57.506 -53.367  1.00  0.00    -0.054 N 
HETATM    3  H   UNL     1     -44.152  58.386 -53.592  1.00  0.00     0.278 HD
HETATM    4  H   UNL     1     -42.677  57.720 -53.245  1.00  0.00     0.278 HD
BRANCH   2   5
HETATM    5  C   UNL     1     -44.151  57.015 -52.040  1.00  0.00     0.272 C 
BRANCH   5   6
HETATM    6  C   UNL     1     -43.031  56.348 -51.292  1.00  0.00    -0.033 A 
HETATM    7  C   UNL     1     -41.821  57.019 -51.069  1.00  0.00     0.011 A 
HETATM    8  C   UNL     1     -40.773  56.392 -50.386  1.00  0.00     0.037 A 
HETATM    9  C   UNL     1     -40.918  55.084 -49.927  1.00  0.00     0.068 A 
HETATM   10  C   UNL     1     -42.117  54.408 -50.161  1.00  0.00     0.037 A 
HETATM   11  C   UNL     1     -43.170  55.031 -50.834  1.00  0.00     0.011 A 
BRANCH   9  12
HETATM   12  O   UNL     1     -39.977  54.360 -49.251  1.00  0.00    -0.356 OA
HETATM   13  C   UNL     1     -40.299  53.957 -47.924  1.00  0.00     0.210 C 
ENDBRANCH   9  12
ENDBRANCH   5   6
ENDBRANCH   2   5
ENDBRANCH   1   2
BRANCH   1  14
HETATM   14  C   UNL     1     -44.027  57.289 -55.847  1.00  0.00     0.259 C 
HETATM   15  N   UNL     1     -43.940  56.541 -56.998  1.00  0.00    -0.304 N 
HETATM   16  H   UNL     1     -43.713  55.554 -57.002  1.00  0.00     0.171 HD
HETATM   17  O   UNL     1     -44.346  58.477 -55.754  1.00  0.00    -0.270 OA
BRANCH  15  18
HETATM   18  C   UNL     1     -44.074  57.115 -58.234  1.00  0.00     0.172 A 
HETATM   19  S   UNL     1     -42.598  57.561 -58.964  1.00  0.00    -0.062 SA
HETATM   20  C   UNL     1     -43.478  58.168 -60.309  1.00  0.00     0.072 A 
HETATM   21  C   UNL     1     -44.829  57.982 -60.096  1.00  0.00     0.126 A 
HETATM   22  N   UNL     1     -45.165  57.382 -58.896  1.00  0.00    -0.236 NA
ENDBRANCH  15  18
ENDBRANCH   1  14
BRANCH   1  23
HETATM   23  C   UNL     1     -42.589  55.560 -54.541  1.00  0.00    -0.019 A 
HETATM   24  C   UNL     1     -42.838  54.187 -54.362  1.00  0.00     0.010 A 
HETATM   25  C   UNL     1     -41.786  53.271 -54.342  1.00  0.00     0.001 A 
HETATM   26  C   UNL     1     -40.474  53.711 -54.490  1.00  0.00     0.000 A 
HETATM   27  C   UNL     1     -40.209  55.067 -54.659  1.00  0.00     0.001 A 
HETATM   28  C   UNL     1     -41.258  55.989 -54.680  1.00  0.00     0.010 A 
ENDBRANCH   1  23
TORSDOF 7
ENDMDL
MODEL 2
REMARK VINA RESULT:      -6.7      2.420      4.101
REMARK  7 active torsions:
REMARK  status: ('A' for Active; 'I' for Inactive)
REMARK    1  A    between atoms: O_2  and  C_3 
REMARK    2  A    between atoms: C_6  and  C_7 
REMARK    3  A    between atoms: C_7  and  N_8 
REMARK    4  A    between atoms: N_8  and  C_11 
REMARK    5  A    between atoms: C_11  and  C_12 
REMARK    6  A    between atoms: C_11  and  C_20 
REMARK       I    between atoms: C_12  and  N_13 
REMARK    7  A    between atoms: N_13  and  C_14 
ROOT
HETATM    1  C   UNL     1     -41.839  55.563 -54.580  1.00  0.00     0.310 C 
ENDROOT
BRANCH   1   2
HETATM    2  N   UNL     1     -41.510  54.240 -55.248  1.00  0.00    -0.054 N 
HETATM    3  H   UNL     1     -41.812  54.233 -56.225  1.00  0.00     0.278 HD
HETATM    4  H   UNL     1     -42.069  53.531 -54.749  1.00  0.00     0.278 HD
BRANCH   2   5
HETATM    5  C   UNL     1     -40.097  53.772 -55.164  1.00  0.00     0.272 C 
BRANCH   5   6
HETATM    6  C   UNL     1     -39.978  52.604 -54.225  1.00  0.00    -0.033 A 
HETATM    7  C   UNL     1     -40.048  51.290 -54.708  1.00  0.00     0.011 A 
HETATM    8  C   UNL     1     -39.954  50.203 -53.831  1.00  0.00     0.037 A 
HETATM    9  C   UNL     1     -39.799  50.416 -52.463  1.00  0.00     0.068 A 
HETATM   10  C   UNL     1     -39.745  51.723 -51.978  1.00  0.00     0.037 A 
HETATM   11  C   UNL     1     -39.830  52.813 -52.847  1.00  0.00     0.011 A 
BRANCH   9  12
HETATM   12  O   UNL     1     -39.696  49.447 -51.505  1.00  0.00    -0.356 OA
HETATM   13  C   UNL     1     -39.955  49.834 -50.161  1.00  0.00     0.210 C 
ENDBRANCH   9  12
ENDBRANCH   5   6
ENDBRANCH   2   5
ENDBRANCH   1   2
BRANCH   1  14
HETATM   14  C   UNL     1     -42.750  56.413 -55.495  1.00  0.00     0.259 C 
HETATM   15  N   UNL     1     -42.290  56.620 -56.774  1.00  0.00    -0.304 N 
HETATM   16  H   UNL     1     -41.413  56.244 -57.116  1.00  0.00     0.171 HD
HETATM   17  O   UNL     1     -43.823  56.791 -55.019  1.00  0.00    -0.270 OA
BRANCH  15  18
HETATM   18  C   UNL     1     -42.960  57.430 -57.651  1.00  0.00     0.172 A 
HETATM   19  S   UNL     1     -42.383  59.034 -57.706  1.00  0.00    -0.062 SA
HETATM   20  C   UNL     1     -43.596  59.402 -58.866  1.00  0.00     0.072 A 
HETATM   21  C   UNL     1     -44.345  58.272 -59.122  1.00  0.00     0.126 A 
HETATM   22  N   UNL     1     -43.979  57.142 -58.413  1.00  0.00    -0.236 NA
ENDBRANCH  15  18
ENDBRANCH   1  14
BRANCH   1  23
HETATM   23  C   UNL     1     -42.299  55.390 -53.147  1.00  0.00    -0.019 A 
HETATM   24  C   UNL     1     -41.907  56.332 -52.180  1.00  0.00     0.010 A 
HETATM   25  C   UNL     1     -42.291  56.184 -50.847  1.00  0.00     0.001 A 
HETATM   26  C   UNL     1     -43.063  55.092 -50.459  1.00  0.00     0.000 A 
HETATM   27  C   UNL     1     -43.452  54.145 -51.403  1.00  0.00     0.001 A 
HETATM   28  C   UNL     1     -43.070  54.287 -52.738  1.00  0.00     0.010 A 
ENDBRANCH   1  23
TORSDOF 7
ENDMDL
MODEL 3
REMARK VINA RESULT:      -6.7      2.458      3.303
REMARK  7 active torsions:
REMARK  status: ('A' for Active; 'I' for Inactive)
REMARK    1  A    between atoms: O_2  and  C_3 
REMARK    2  A    between atoms: C_6  and  C_7 
REMARK    3  A    between atoms: C_7  and  N_8 
REMARK    4  A    between atoms: N_8  and  C_11 
REMARK    5  A    between atoms: C_11  and  C_12 
REMARK    6  A    between atoms: C_11  and  C_20 
REMARK       I    between atoms: C_12  and  N_13 
REMARK    7  A    between atoms: N_13  and  C_14 
ROOT
HETATM    1  C   UNL     1     -42.756  54.223 -54.194  1.00  0.00     0.310 C 
ENDROOT
BRANCH   1   2
HETATM    2  N   UNL     1     -43.469  55.111 -53.191  1.00  0.00    -0.054 N 
HETATM    3  H   UNL     1     -43.075  55.000 -52.253  1.00  0.00     0.278 HD
HETATM    4  H   UNL     1     -44.441  54.767 -53.158  1.00  0.00     0.278 HD
BRANCH   2   5
HETATM    5  C   UNL     1     -43.566  56.562 -53.519  1.00  0.00     0.272 C 
BRANCH   5   6
HETATM    6  C   UNL     1     -42.387  57.312 -52.966  1.00  0.00    -0.033 A 
HETATM    7  C   UNL     1     -41.952  57.092 -51.652  1.00  0.00     0.011 A 
HETATM    8  C   UNL     1     -40.864  57.802 -51.133  1.00  0.00     0.037 A 
HETATM    9  C   UNL     1     -40.204  58.747 -51.916  1.00  0.00     0.068 A 
HETATM   10  C   UNL     1     -40.645  58.980 -53.220  1.00  0.00     0.037 A 
HETATM   11  C   UNL     1     -41.725  58.268 -53.748  1.00  0.00     0.011 A 
BRANCH   9  12
HETATM   12  O   UNL     1     -39.135  59.505 -51.531  1.00  0.00    -0.356 OA
HETATM   13  C   UNL     1     -39.065  59.878 -50.159  1.00  0.00     0.210 C 
ENDBRANCH   9  12
ENDBRANCH   5   6
ENDBRANCH   2   5
ENDBRANCH   1   2
BRANCH   1  14
HETATM   14  C   UNL     1     -42.373  55.035 -55.453  1.00  0.00     0.259 C 
HETATM   15  N   UNL     1     -43.404  55.329 -56.314  1.00  0.00    -0.304 N 
HETATM   16  H   UNL     1     -44.361  55.041 -56.151  1.00  0.00     0.171 HD
HETATM   17  O   UNL     1     -41.196  55.389 -55.552  1.00  0.00    -0.270 OA
BRANCH  15  18
HETATM   18  C   UNL     1     -43.179  55.963 -57.506  1.00  0.00     0.172 A 
HETATM   19  S   UNL     1     -43.166  57.666 -57.404  1.00  0.00    -0.062 SA
HETATM   20  C   UNL     1     -42.893  57.739 -59.099  1.00  0.00     0.072 A 
HETATM   21  C   UNL     1     -42.832  56.458 -59.610  1.00  0.00     0.126 A 
HETATM   22  N   UNL     1     -43.005  55.441 -58.689  1.00  0.00    -0.236 NA
ENDBRANCH  15  18
ENDBRANCH   1  14
BRANCH   1  23
HETATM   23  C   UNL     1     -41.651  53.404 -53.560  1.00  0.00    -0.019 A 
HETATM   24  C   UNL     1     -41.064  52.357 -54.293  1.00  0.00     0.010 A 
HETATM   25  C   UNL     1     -40.063  51.567 -53.725  1.00  0.00     0.001 A 
HETATM   26  C   UNL     1     -39.642  51.804 -52.420  1.00  0.00     0.000 A 
HETATM   27  C   UNL     1     -40.220  52.831 -51.678  1.00  0.00     0.001 A 
HETATM   28  C   UNL     1     -41.222  53.624 -52.240  1.00  0.00     0.010 A 
ENDBRANCH   1  23
TORSDOF 7
ENDMDL
MODEL 4
REMARK VINA RESULT:      -6.7      2.700      4.277
REMARK  7 active torsions:
REMARK  status: ('A' for Active; 'I' for Inactive)
REMARK    1  A    between atoms: O_2  and  C_3 
REMARK    2  A    between atoms: C_6  and  C_7 
REMARK    3  A    between atoms: C_7  and  N_8 
REMARK    4  A    between atoms: N_8  and  C_11 
REMARK    5  A    between atoms: C_11  and  C_12 
REMARK    6  A    between atoms: C_11  and  C_20 
REMARK       I    between atoms: C_12  and  N_13 
REMARK    7  A    between atoms: N_13  and  C_14 
ROOT
HETATM    1  C   UNL     1     -41.142  53.809 -52.674  1.00  0.00     0.310 C 
ENDROOT
BRANCH   1   2
HETATM    2  N   UNL     1     -40.475  54.544 -51.526  1.00  0.00    -0.054 N 
HETATM    3  H   UNL     1     -39.948  55.354 -51.862  1.00  0.00     0.278 HD
HETATM    4  H   UNL     1     -39.793  53.878 -51.130  1.00  0.00     0.278 HD
BRANCH   2   5
HETATM    5  C   UNL     1     -41.345  54.955 -50.388  1.00  0.00     0.272 C 
BRANCH   5   6
HETATM    6  C   UNL     1     -42.224  56.110 -50.781  1.00  0.00    -0.033 A 
HETATM    7  C   UNL     1     -41.667  57.361 -51.081  1.00  0.00     0.011 A 
HETATM    8  C   UNL     1     -42.486  58.440 -51.431  1.00  0.00     0.037 A 
HETATM    9  C   UNL     1     -43.870  58.285 -51.475  1.00  0.00     0.068 A 
HETATM   10  C   UNL     1     -44.428  57.045 -51.162  1.00  0.00     0.037 A 
HETATM   11  C   UNL     1     -43.616  55.961 -50.820  1.00  0.00     0.011 A 
BRANCH   9  12
HETATM   12  O   UNL     1     -44.778  59.254 -51.799  1.00  0.00    -0.356 OA
HETATM   13  C   UNL     1     -45.861  59.454 -50.898  1.00  0.00     0.210 C 
ENDBRANCH   9  12
ENDBRANCH   5   6
ENDBRANCH   2   5
ENDBRANCH   1   2
BRANCH   1  14
HETATM   14  C   UNL     1     -41.258  54.733 -53.908  1.00  0.00     0.259 C 
HETATM   15  N   UNL     1     -42.534  54.977 -54.357  1.00  0.00    -0.304 N 
HETATM   16  H   UNL     1     -43.360  54.587 -53.919  1.00  0.00     0.171 HD
HETATM   17  O   UNL     1     -40.209  55.206 -54.352  1.00  0.00    -0.270 OA
BRANCH  15  18
HETATM   18  C   UNL     1     -42.764  55.705 -55.493  1.00  0.00     0.172 A 
HETATM   19  S   UNL     1     -43.134  57.346 -55.214  1.00  0.00    -0.062 SA
HETATM   20  C   UNL     1     -43.306  57.568 -56.908  1.00  0.00     0.072 A 
HETATM   21  C   UNL     1     -43.068  56.373 -57.555  1.00  0.00     0.126 A 
HETATM   22  N   UNL     1     -42.764  55.302 -56.734  1.00  0.00    -0.236 NA
ENDBRANCH  15  18
ENDBRANCH   1  14
BRANCH   1  23
HETATM   23  C   UNL     1     -40.539  52.439 -52.913  1.00  0.00    -0.019 A 
HETATM   24  C   UNL     1     -40.645  51.854 -54.187  1.00  0.00     0.010 A 
HETATM   25  C   UNL     1     -40.124  50.583 -54.430  1.00  0.00     0.001 A 
HETATM   26  C   UNL     1     -39.501  49.875 -53.406  1.00  0.00     0.000 A 
HETATM   27  C   UNL     1     -39.396  50.437 -52.136  1.00  0.00     0.001 A 
HETATM   28  C   UNL     1     -39.915  51.708 -51.887  1.00  0.00     0.010 A 
ENDBRANCH   1  23
TORSDOF 7
ENDMDL
MODEL 5
REMARK VINA RESULT:      -6.5      2.596      4.345
REMARK  7 active torsions:
REMARK  status: ('A' for Active; 'I' for Inactive)
REMARK    1  A    between atoms: O_2  and  C_3 
REMARK    2  A    between atoms: C_6  and  C_7 
REMARK    3  A    between atoms: C_7  and  N_8 
REMARK    4  A    between atoms: N_8  and  C_11 
REMARK    5  A    between atoms: C_11  and  C_12 
REMARK    6  A    between atoms: C_11  and  C_20 
REMARK       I    between atoms: C_12  and  N_13 
REMARK    7  A    between atoms: N_13  and  C_14 
ROOT
HETATM    1  C   UNL     1     -41.261  54.165 -52.670  1.00  0.00     0.310 C 
ENDROOT
BRANCH   1   2
HETATM    2  N   UNL     1     -40.693  54.848 -51.439  1.00  0.00    -0.054 N 
HETATM    3  H   UNL     1     -40.141  55.671 -51.695  1.00  0.00     0.278 HD
HETATM    4  H   UNL     1     -40.046  54.165 -51.017  1.00  0.00     0.278 HD
BRANCH   2   5
HETATM    5  C   UNL     1     -41.656  55.213 -50.361  1.00  0.00     0.272 C 
BRANCH   5   6
HETATM    6  C   UNL     1     -42.519  56.367 -50.787  1.00  0.00    -0.033 A 
HETATM    7  C   UNL     1     -43.911  56.222 -50.879  1.00  0.00     0.011 A 
HETATM    8  C   UNL     1     -44.713  57.292 -51.291  1.00  0.00     0.037 A 
HETATM    9  C   UNL     1     -44.135  58.515 -51.624  1.00  0.00     0.068 A 
HETATM   10  C   UNL     1     -42.748  58.658 -51.548  1.00  0.00     0.037 A 
HETATM   11  C   UNL     1     -41.942  57.597 -51.130  1.00  0.00     0.011 A 
BRANCH   9  12
HETATM   12  O   UNL     1     -44.801  59.633 -52.040  1.00  0.00    -0.356 OA
HETATM   13  C   UNL     1     -45.769  60.179 -51.149  1.00  0.00     0.210 C 
ENDBRANCH   9  12
ENDBRANCH   5   6
ENDBRANCH   2   5
ENDBRANCH   1   2
BRANCH   1  14
HETATM   14  C   UNL     1     -41.261  55.137 -53.872  1.00  0.00     0.259 C 
HETATM   15  N   UNL     1     -42.492  55.609 -54.262  1.00  0.00    -0.304 N 
HETATM   16  H   UNL     1     -43.356  55.350 -53.802  1.00  0.00     0.171 HD
HETATM   17  O   UNL     1     -40.163  55.441 -54.344  1.00  0.00    -0.270 OA
BRANCH  15  18
HETATM   18  C   UNL     1     -42.634  56.404 -55.368  1.00  0.00     0.172 A 
HETATM   19  S   UNL     1     -42.851  55.546 -56.826  1.00  0.00    -0.062 SA
HETATM   20  C   UNL     1     -42.915  57.043 -57.666  1.00  0.00     0.072 A 
HETATM   21  C   UNL     1     -42.766  58.080 -56.769  1.00  0.00     0.126 A 
HETATM   22  N   UNL     1     -42.597  57.705 -55.448  1.00  0.00    -0.236 NA
ENDBRANCH  15  18
ENDBRANCH   1  14
BRANCH   1  23
HETATM   23  C   UNL     1     -40.650  52.800 -52.908  1.00  0.00    -0.019 A 
HETATM   24  C   UNL     1     -40.818  52.179 -54.159  1.00  0.00     0.010 A 
HETATM   25  C   UNL     1     -40.290  50.910 -54.399  1.00  0.00     0.001 A 
HETATM   26  C   UNL     1     -39.597  50.240 -53.395  1.00  0.00     0.000 A 
HETATM   27  C   UNL     1     -39.430  50.837 -52.148  1.00  0.00     0.001 A 
HETATM   28  C   UNL     1     -39.956  52.106 -51.902  1.00  0.00     0.010 A 
ENDBRANCH   1  23
TORSDOF 7
ENDMDL
MODEL 6
REMARK VINA RESULT:      -6.3      3.002      7.066
REMARK  7 active torsions:
REMARK  status: ('A' for Active; 'I' for Inactive)
REMARK    1  A    between atoms: O_2  and  C_3 
REMARK    2  A    between atoms: C_6  and  C_7 
REMARK    3  A    between atoms: C_7  and  N_8 
REMARK    4  A    between atoms: N_8  and  C_11 
REMARK    5  A    between atoms: C_11  and  C_12 
REMARK    6  A    between atoms: C_11  and  C_20 
REMARK       I    between atoms: C_12  and  N_13 
REMARK    7  A    between atoms: N_13  and  C_14 
ROOT
HETATM    1  C   UNL     1     -41.246  54.773 -53.947  1.00  0.00     0.310 C 
ENDROOT
BRANCH   1   2
HETATM    2  N   UNL     1     -42.412  54.579 -54.898  1.00  0.00    -0.054 N 
HETATM    3  H   UNL     1     -43.004  53.797 -54.604  1.00  0.00     0.278 HD
HETATM    4  H   UNL     1     -41.992  54.320 -55.804  1.00  0.00     0.278 HD
BRANCH   2   5
HETATM    5  C   UNL     1     -43.267  55.769 -55.175  1.00  0.00     0.272 C 
BRANCH   5   6
HETATM    6  C   UNL     1     -43.013  56.295 -56.560  1.00  0.00    -0.033 A 
HETATM    7  C   UNL     1     -42.700  57.646 -56.765  1.00  0.00     0.011 A 
HETATM    8  C   UNL     1     -42.480  58.138 -58.056  1.00  0.00     0.037 A 
HETATM    9  C   UNL     1     -42.580  57.290 -59.157  1.00  0.00     0.068 A 
HETATM   10  C   UNL     1     -42.908  55.948 -58.957  1.00  0.00     0.037 A 
HETATM   11  C   UNL     1     -43.120  55.447 -57.671  1.00  0.00     0.011 A 
BRANCH   9  12
HETATM   12  O   UNL     1     -42.392  57.644 -60.464  1.00  0.00    -0.356 OA
HETATM   13  C   UNL     1     -41.887  58.950 -60.715  1.00  0.00     0.210 C 
ENDBRANCH   9  12
ENDBRANCH   5   6
ENDBRANCH   2   5
ENDBRANCH   1   2
BRANCH   1  14
HETATM   14  C   UNL     1     -41.601  55.822 -52.869  1.00  0.00     0.259 C 
HETATM   15  N   UNL     1     -40.913  57.011 -52.939  1.00  0.00    -0.304 N 
HETATM   16  H   UNL     1     -40.215  57.207 -53.647  1.00  0.00     0.171 HD
HETATM   17  O   UNL     1     -42.496  55.526 -52.074  1.00  0.00    -0.270 OA
BRANCH  15  18
HETATM   18  C   UNL     1     -41.071  57.984 -51.990  1.00  0.00     0.172 A 
HETATM   19  S   UNL     1     -42.005  59.318 -52.499  1.00  0.00    -0.062 SA
HETATM   20  C   UNL     1     -41.758  60.044 -50.962  1.00  0.00     0.072 A 
HETATM   21  C   UNL     1     -40.983  59.212 -50.180  1.00  0.00     0.126 A 
HETATM   22  N   UNL     1     -40.584  58.032 -50.780  1.00  0.00    -0.236 NA
ENDBRANCH  15  18
ENDBRANCH   1  14
BRANCH   1  23
HETATM   23  C   UNL     1     -40.681  53.459 -53.447  1.00  0.00    -0.019 A 
HETATM   24  C   UNL     1     -40.315  53.337 -52.095  1.00  0.00     0.010 A 
HETATM   25  C   UNL     1     -39.767  52.149 -51.612  1.00  0.00     0.001 A 
HETATM   26  C   UNL     1     -39.568  51.071 -52.470  1.00  0.00     0.000 A 
HETATM   27  C   UNL     1     -39.917  51.178 -53.814  1.00  0.00     0.001 A 
HETATM   28  C   UNL     1     -40.465  52.365 -54.303  1.00  0.00     0.010 A 
ENDBRANCH   1  23
TORSDOF 7
ENDMDL
MODEL 7
REMARK VINA RESULT:      -6.3      3.044      5.024
REMARK  7 active torsions:
REMARK  status: ('A' for Active; 'I' for Inactive)
REMARK    1  A    between atoms: O_2  and  C_3 
REMARK    2  A    between atoms: C_6  and  C_7 
REMARK    3  A    between atoms: C_7  and  N_8 
REMARK    4  A    between atoms: N_8  and  C_11 
REMARK    5  A    between atoms: C_11  and  C_12 
REMARK    6  A    between atoms: C_11  and  C_20 
REMARK       I    between atoms: C_12  and  N_13 
REMARK    7  A    between atoms: N_13  and  C_14 
ROOT
HETATM    1  C   UNL     1     -43.049  57.371 -57.706  1.00  0.00     0.310 C 
ENDROOT
BRANCH   1   2
HETATM    2  N   UNL     1     -42.203  56.528 -56.769  1.00  0.00    -0.054 N 
HETATM    3  H   UNL     1     -41.246  56.887 -56.710  1.00  0.00     0.278 HD
HETATM    4  H   UNL     1     -42.153  55.594 -57.205  1.00  0.00     0.278 HD
BRANCH   2   5
HETATM    5  C   UNL     1     -42.733  56.303 -55.394  1.00  0.00     0.272 C 
BRANCH   5   6
HETATM    6  C   UNL     1     -41.991  55.187 -54.714  1.00  0.00    -0.033 A 
HETATM    7  C   UNL     1     -40.944  54.522 -55.368  1.00  0.00     0.011 A 
HETATM    8  C   UNL     1     -40.264  53.473 -54.740  1.00  0.00     0.037 A 
HETATM    9  C   UNL     1     -40.627  53.069 -53.457  1.00  0.00     0.068 A 
HETATM   10  C   UNL     1     -41.679  53.720 -52.809  1.00  0.00     0.037 A 
HETATM   11  C   UNL     1     -42.357  54.774 -53.426  1.00  0.00     0.011 A 
BRANCH   9  12
HETATM   12  O   UNL     1     -40.048  52.063 -52.736  1.00  0.00    -0.356 OA
HETATM   13  C   UNL     1     -39.503  50.972 -53.469  1.00  0.00     0.210 C 
ENDBRANCH   9  12
ENDBRANCH   5   6
ENDBRANCH   2   5
ENDBRANCH   1   2
BRANCH   1  14
HETATM   14  C   UNL     1     -42.194  58.495 -58.336  1.00  0.00     0.259 C 
HETATM   15  N   UNL     1     -42.330  59.740 -57.769  1.00  0.00    -0.304 N 
HETATM   16  H   UNL     1     -42.945  59.929 -56.987  1.00  0.00     0.171 HD
HETATM   17  O   UNL     1     -41.435  58.172 -59.252  1.00  0.00    -0.270 OA
BRANCH  15  18
HETATM   18  C   UNL     1     -41.697  60.835 -58.293  1.00  0.00     0.172 A 
HETATM   19  S   UNL     1     -42.539  61.589 -59.570  1.00  0.00    -0.062 SA
HETATM   20  C   UNL     1     -41.258  62.724 -59.710  1.00  0.00     0.072 A 
HETATM   21  C   UNL     1     -40.288  62.440 -58.770  1.00  0.00     0.126 A 
HETATM   22  N   UNL     1     -40.543  61.347 -57.963  1.00  0.00    -0.236 NA
ENDBRANCH  15  18
ENDBRANCH   1  14
BRANCH   1  23
HETATM   23  C   UNL     1     -43.865  56.529 -58.665  1.00  0.00    -0.019 A 
HETATM   24  C   UNL     1     -44.879  57.138 -59.425  1.00  0.00     0.010 A 
HETATM   25  C   UNL     1     -45.665  56.384 -60.296  1.00  0.00     0.001 A 
HETATM   26  C   UNL     1     -45.458  55.012 -60.414  1.00  0.00     0.000 A 
HETATM   27  C   UNL     1     -44.464  54.391 -59.662  1.00  0.00     0.001 A 
HETATM   28  C   UNL     1     -43.674  55.141 -58.788  1.00  0.00     0.010 A 
ENDBRANCH   1  23
TORSDOF 7
ENDMDL
MODEL 8
REMARK VINA RESULT:      -6.2      2.912      7.006
REMARK  7 active torsions:
REMARK  status: ('A' for Active; 'I' for Inactive)
REMARK    1  A    between atoms: O_2  and  C_3 
REMARK    2  A    between atoms: C_6  and  C_7 
REMARK    3  A    between atoms: C_7  and  N_8 
REMARK    4  A    between atoms: N_8  and  C_11 
REMARK    5  A    between atoms: C_11  and  C_12 
REMARK    6  A    between atoms: C_11  and  C_20 
REMARK       I    between atoms: C_12  and  N_13 
REMARK    7  A    between atoms: N_13  and  C_14 
ROOT
HETATM    1  C   UNL     1     -40.646  54.907 -54.485  1.00  0.00     0.310 C 
ENDROOT
BRANCH   1   2
HETATM    2  N   UNL     1     -41.250  54.718 -55.865  1.00  0.00    -0.054 N 
HETATM    3  H   UNL     1     -41.134  53.755 -56.191  1.00  0.00     0.278 HD
HETATM    4  H   UNL     1     -40.699  55.323 -56.493  1.00  0.00     0.278 HD
BRANCH   2   5
HETATM    5  C   UNL     1     -42.670  55.135 -56.046  1.00  0.00     0.272 C 
BRANCH   5   6
HETATM    6  C   UNL     1     -42.818  56.004 -57.263  1.00  0.00    -0.033 A 
HETATM    7  C   UNL     1     -43.298  55.470 -58.467  1.00  0.00     0.011 A 
HETATM    8  C   UNL     1     -43.421  56.276 -59.605  1.00  0.00     0.037 A 
HETATM    9  C   UNL     1     -43.056  57.621 -59.555  1.00  0.00     0.068 A 
HETATM   10  C   UNL     1     -42.563  58.150 -58.362  1.00  0.00     0.037 A 
HETATM   11  C   UNL     1     -42.446  57.354 -57.220  1.00  0.00     0.011 A 
BRANCH   9  12
HETATM   12  O   UNL     1     -43.126  58.511 -60.589  1.00  0.00    -0.356 OA
HETATM   13  C   UNL     1     -42.022  59.394 -60.760  1.00  0.00     0.210 C 
ENDBRANCH   9  12
ENDBRANCH   5   6
ENDBRANCH   2   5
ENDBRANCH   1   2
BRANCH   1  14
HETATM   14  C   UNL     1     -41.452  55.955 -53.685  1.00  0.00     0.259 C 
HETATM   15  N   UNL     1     -42.647  55.522 -53.160  1.00  0.00    -0.304 N 
HETATM   16  H   UNL     1     -42.993  54.577 -53.278  1.00  0.00     0.171 HD
HETATM   17  O   UNL     1     -40.938  57.068 -53.546  1.00  0.00    -0.270 OA
BRANCH  15  18
HETATM   18  C   UNL     1     -43.494  56.378 -52.510  1.00  0.00     0.172 A 
HETATM   19  S   UNL     1     -44.366  57.421 -53.541  1.00  0.00    -0.062 SA
HETATM   20  C   UNL     1     -45.100  58.129 -52.159  1.00  0.00     0.072 A 
HETATM   21  C   UNL     1     -44.623  57.514 -51.019  1.00  0.00     0.126 A 
HETATM   22  N   UNL     1     -43.694  56.512 -51.228  1.00  0.00    -0.236 NA
ENDBRANCH  15  18
ENDBRANCH   1  14
BRANCH   1  23
HETATM   23  C   UNL     1     -40.376  53.590 -53.786  1.00  0.00    -0.019 A 
HETATM   24  C   UNL     1     -40.216  53.572 -52.389  1.00  0.00     0.010 A 
HETATM   25  C   UNL     1     -39.939  52.380 -51.721  1.00  0.00     0.001 A 
HETATM   26  C   UNL     1     -39.808  51.192 -52.436  1.00  0.00     0.000 A 
HETATM   27  C   UNL     1     -39.954  51.194 -53.820  1.00  0.00     0.001 A 
HETATM   28  C   UNL     1     -40.231  52.384 -54.494  1.00  0.00     0.010 A 
ENDBRANCH   1  23
TORSDOF 7
ENDMDL
MODEL 9
REMARK VINA RESULT:      -6.2      2.784      7.291
REMARK  7 active torsions:
REMARK  status: ('A' for Active; 'I' for Inactive)
REMARK    1  A    between atoms: O_2  and  C_3 
REMARK    2  A    between atoms: C_6  and  C_7 
REMARK    3  A    between atoms: C_7  and  N_8 
REMARK    4  A    between atoms: N_8  and  C_11 
REMARK    5  A    between atoms: C_11  and  C_12 
REMARK    6  A    between atoms: C_11  and  C_20 
REMARK       I    between atoms: C_12  and  N_13 
REMARK    7  A    between atoms: N_13  and  C_14 
ROOT
HETATM    1  C   UNL     1     -41.955  56.364 -54.469  1.00  0.00     0.310 C 
ENDROOT
BRANCH   1   2
HETATM    2  N   UNL     1     -42.901  56.218 -55.647  1.00  0.00    -0.054 N 
HETATM    3  H   UNL     1     -43.870  56.394 -55.367  1.00  0.00     0.278 HD
HETATM    4  H   UNL     1     -42.839  55.228 -55.931  1.00  0.00     0.278 HD
BRANCH   2   5
HETATM    5  C   UNL     1     -42.587  57.009 -56.871  1.00  0.00     0.272 C 
BRANCH   5   6
HETATM    6  C   UNL     1     -43.514  56.640 -57.995  1.00  0.00    -0.033 A 
HETATM    7  C   UNL     1     -43.248  55.526 -58.803  1.00  0.00     0.011 A 
HETATM    8  C   UNL     1     -44.103  55.192 -59.859  1.00  0.00     0.037 A 
HETATM    9  C   UNL     1     -45.226  55.973 -60.127  1.00  0.00     0.068 A 
HETATM   10  C   UNL     1     -45.484  57.092 -59.334  1.00  0.00     0.037 A 
HETATM   11  C   UNL     1     -44.640  57.426 -58.272  1.00  0.00     0.011 A 
BRANCH   9  12
HETATM   12  O   UNL     1     -46.135  55.757 -61.124  1.00  0.00    -0.356 OA
HETATM   13  C   UNL     1     -47.371  56.458 -61.036  1.00  0.00     0.210 C 
ENDBRANCH   9  12
ENDBRANCH   5   6
ENDBRANCH   2   5
ENDBRANCH   1   2
BRANCH   1  14
HETATM   14  C   UNL     1     -42.603  57.231 -53.365  1.00  0.00     0.259 C 
HETATM   15  N   UNL     1     -43.967  57.117 -53.235  1.00  0.00    -0.304 N 
HETATM   16  H   UNL     1     -44.530  56.507 -53.816  1.00  0.00     0.171 HD
HETATM   17  O   UNL     1     -41.843  57.910 -52.669  1.00  0.00    -0.270 OA
BRANCH  15  18
HETATM   18  C   UNL     1     -44.669  57.898 -52.357  1.00  0.00     0.172 A 
HETATM   19  S   UNL     1     -45.090  59.435 -52.965  1.00  0.00    -0.062 SA
HETATM   20  C   UNL     1     -45.832  59.799 -51.460  1.00  0.00     0.072 A 
HETATM   21  C   UNL     1     -45.701  58.719 -50.610  1.00  0.00     0.126 A 
HETATM   22  N   UNL     1     -45.023  57.631 -51.130  1.00  0.00    -0.236 NA
ENDBRANCH  15  18
ENDBRANCH   1  14
BRANCH   1  23
HETATM   23  C   UNL     1     -41.371  55.039 -54.026  1.00  0.00    -0.019 A 
HETATM   24  C   UNL     1     -41.350  54.718 -52.657  1.00  0.00     0.010 A 
HETATM   25  C   UNL     1     -40.794  53.517 -52.218  1.00  0.00     0.001 A 
HETATM   26  C   UNL     1     -40.244  52.624 -53.134  1.00  0.00     0.000 A 
HETATM   27  C   UNL     1     -40.249  52.930 -54.492  1.00  0.00     0.001 A 
HETATM   28  C   UNL     1     -40.803  54.131 -54.938  1.00  0.00     0.010 A 
ENDBRANCH   1  23
TORSDOF 7
ENDMDL
MODEL 10
REMARK VINA RESULT:      -6.2      2.882      4.549
REMARK  7 active torsions:
REMARK  status: ('A' for Active; 'I' for Inactive)
REMARK    1  A    between atoms: O_2  and  C_3 
REMARK    2  A    between atoms: C_6  and  C_7 
REMARK    3  A    between atoms: C_7  and  N_8 
REMARK    4  A    between atoms: N_8  and  C_11 
REMARK    5  A    between atoms: C_11  and  C_12 
REMARK    6  A    between atoms: C_11  and  C_20 
REMARK       I    between atoms: C_12  and  N_13 
REMARK    7  A    between atoms: N_13  and  C_14 
ROOT
HETATM    1  C   UNL     1     -41.881  54.950 -53.228  1.00  0.00     0.310 C 
ENDROOT
BRANCH   1   2
HETATM    2  N   UNL     1     -41.038  56.185 -52.966  1.00  0.00    -0.054 N 
HETATM    3  H   UNL     1     -40.938  56.751 -53.813  1.00  0.00     0.278 HD
HETATM    4  H   UNL     1     -40.099  55.832 -52.722  1.00  0.00     0.278 HD
BRANCH   2   5
HETATM    5  C   UNL     1     -41.449  57.059 -51.831  1.00  0.00     0.272 C 
BRANCH   5   6
HETATM    6  C   UNL     1     -41.853  58.419 -52.326  1.00  0.00    -0.033 A 
HETATM    7  C   UNL     1     -42.618  59.274 -51.520  1.00  0.00     0.011 A 
HETATM    8  C   UNL     1     -43.008  60.534 -51.988  1.00  0.00     0.037 A 
HETATM    9  C   UNL     1     -42.647  60.950 -53.268  1.00  0.00     0.068 A 
HETATM   10  C   UNL     1     -41.899  60.094 -54.078  1.00  0.00     0.037 A 
HETATM   11  C   UNL     1     -41.499  58.839 -53.615  1.00  0.00     0.011 A 
BRANCH   9  12
HETATM   12  O   UNL     1     -42.963  62.149 -53.843  1.00  0.00    -0.356 OA
HETATM   13  C   UNL     1     -43.316  63.214 -52.967  1.00  0.00     0.210 C 
ENDBRANCH   9  12
ENDBRANCH   5   6
ENDBRANCH   2   5
ENDBRANCH   1   2
BRANCH   1  14
HETATM   14  C   UNL     1     -42.745  55.149 -54.494  1.00  0.00     0.259 C 
HETATM   15  N   UNL     1     -42.170  55.882 -55.504  1.00  0.00    -0.304 N 
HETATM   16  H   UNL     1     -41.238  56.274 -55.443  1.00  0.00     0.171 HD
HETATM   17  O   UNL     1     -43.849  54.598 -54.509  1.00  0.00    -0.270 OA
BRANCH  15  18
HETATM   18  C   UNL     1     -42.866  56.205 -56.638  1.00  0.00     0.172 A 
HETATM   19  S   UNL     1     -43.729  57.672 -56.539  1.00  0.00    -0.062 SA
HETATM   20  C   UNL     1     -44.305  57.411 -58.136  1.00  0.00     0.072 A 
HETATM   21  C   UNL     1     -43.793  56.224 -58.621  1.00  0.00     0.126 A 
HETATM   22  N   UNL     1     -42.972  55.531 -57.750  1.00  0.00    -0.236 NA
ENDBRANCH  15  18
ENDBRANCH   1  14
BRANCH   1  23
HETATM   23  C   UNL     1     -41.072  53.671 -53.160  1.00  0.00    -0.019 A 
HETATM   24  C   UNL     1     -40.960  52.865 -54.307  1.00  0.00     0.010 A 
HETATM   25  C   UNL     1     -40.246  51.668 -54.267  1.00  0.00     0.001 A 
HETATM   26  C   UNL     1     -39.641  51.254 -53.083  1.00  0.00     0.000 A 
HETATM   27  C   UNL     1     -39.750  52.035 -51.936  1.00  0.00     0.001 A 
HETATM   28  C   UNL     1     -40.464  53.234 -51.970  1.00  0.00     0.010 A 
ENDBRANCH   1  23
TORSDOF 7
ENDMDL
