MODEL 1
REMARK VINA RESULT:      -9.2      0.000      0.000
REMARK  7 active torsions:
REMARK  status: ('A' for Active; 'I' for Inactive)
REMARK    1  A    between atoms: C_2  and  C_3 
REMARK    2  A    between atoms: C_3  and  N_4 
REMARK    3  A    between atoms: C_8  and  C_27 
REMARK    4  A    between atoms: C_8  and  C_9 
REMARK    5  A    between atoms: N_12  and  C_14 
REMARK    6  A    between atoms: C_14  and  C_15 
REMARK    7  A    between atoms: C_27  and  C_28 
ROOT
HETATM    1  N   UNL     1     -42.353  55.547 -54.934  1.00  0.00    -0.268 N 
HETATM    2  C   UNL     1     -42.885  54.300 -55.008  1.00  0.00     0.326 C 
HETATM    3  O   UNL     1     -43.553  53.814 -55.903  1.00  0.00    -0.247 OA
HETATM    4  N   UNL     1     -42.533  53.599 -53.872  1.00  0.00    -0.324 N 
HETATM    5  C   UNL     1     -41.576  54.318 -53.053  1.00  0.00     0.123 C 
HETATM    6  C   UNL     1     -41.596  55.672 -53.805  1.00  0.00     0.257 C 
HETATM    7  O   UNL     1     -40.972  56.660 -53.441  1.00  0.00    -0.270 OA
HETATM    8  H   UNL     1     -42.732  52.606 -53.866  1.00  0.00     0.165 HD
ENDROOT
BRANCH   5   9
HETATM    9  C   UNL     1     -40.145  53.740 -53.174  1.00  0.00     0.080 C 
BRANCH   9  10
HETATM   10  C   UNL     1     -39.987  52.242 -53.025  1.00  0.00    -0.052 A 
HETATM   11  C   UNL     1     -39.705  51.669 -51.778  1.00  0.00     0.049 A 
HETATM   12  C   UNL     1     -39.562  50.288 -51.664  1.00  0.00     0.116 A 
HETATM   13  F   UNL     1     -39.286  49.757 -50.467  1.00  0.00    -0.206 F 
HETATM   14  C   UNL     1     -39.694  49.458 -52.769  1.00  0.00     0.042 A 
HETATM   15  C   UNL     1     -39.973  50.017 -54.015  1.00  0.00     0.003 A 
HETATM   16  C   UNL     1     -40.118  51.400 -54.142  1.00  0.00     0.007 A 
ENDBRANCH   9  10
ENDBRANCH   5   9
BRANCH   5  17
HETATM   17  C   UNL     1     -42.130  54.531 -51.598  1.00  0.00     0.027 C 
HETATM   18  C   UNL     1     -43.284  55.541 -51.458  1.00  0.00     0.035 C 
HETATM   19  C   UNL     1     -42.873  57.007 -51.380  1.00  0.00     0.235 C 
HETATM   20  N   UNL     1     -41.806  57.224 -50.339  1.00  0.00    -0.067 N 
HETATM   21  H   UNL     1     -42.253  57.055 -49.427  1.00  0.00     0.280 HD
HETATM   22  C   UNL     1     -40.628  56.290 -50.461  1.00  0.00     0.235 C 
HETATM   23  C   UNL     1     -41.081  54.842 -50.512  1.00  0.00     0.035 C 
BRANCH  20  24
HETATM   24  C   UNL     1     -41.307  58.667 -50.291  1.00  0.00     0.273 C 
BRANCH  24  25
HETATM   25  C   UNL     1     -42.074  59.636 -51.148  1.00  0.00    -0.030 A 
HETATM   26  C   UNL     1     -41.804  59.758 -52.518  1.00  0.00     0.048 A 
HETATM   27  C   UNL     1     -42.507  60.684 -53.291  1.00  0.00     0.102 A 
HETATM   28  C   UNL     1     -43.456  61.521 -52.701  1.00  0.00     0.102 A 
HETATM   29  O   UNL     1     -42.205  60.722 -54.627  1.00  0.00    -0.346 OA
HETATM   30  O   UNL     1     -44.154  62.475 -53.390  1.00  0.00    -0.346 OA
HETATM   31  C   UNL     1     -43.742  61.398 -51.345  1.00  0.00     0.040 A 
HETATM   32  C   UNL     1     -43.580  62.726 -54.679  1.00  0.00     0.202 C 
HETATM   33  C   UNL     1     -43.216  61.421 -55.369  1.00  0.00     0.202 C 
HETATM   34  C   UNL     1     -43.058  60.459 -50.571  1.00  0.00     0.012 A 
ENDBRANCH  24  25
ENDBRANCH  20  24
ENDBRANCH   5  17
BRANCH   1  35
HETATM   35  C   UNL     1     -42.457  56.547 -55.980  1.00  0.00     0.140 C 
BRANCH  35  36
HETATM   36  C   UNL     1     -43.856  57.174 -56.084  1.00  0.00    -0.004 C 
HETATM   37  C   UNL     1     -43.867  58.224 -57.197  1.00  0.00     0.011 C 
HETATM   38  C   UNL     1     -44.294  57.808 -54.763  1.00  0.00     0.011 C 
ENDBRANCH  35  36
ENDBRANCH   1  35
TORSDOF 7
ENDMDL
MODEL 2
REMARK VINA RESULT:      -9.1      3.295      6.015
REMARK  7 active torsions:
REMARK  status: ('A' for Active; 'I' for Inactive)
REMARK    1  A    between atoms: C_2  and  C_3 
REMARK    2  A    between atoms: C_3  and  N_4 
REMARK    3  A    between atoms: C_8  and  C_27 
REMARK    4  A    between atoms: C_8  and  C_9 
REMARK    5  A    between atoms: N_12  and  C_14 
REMARK    6  A    between atoms: C_14  and  C_15 
REMARK    7  A    between atoms: C_27  and  C_28 
ROOT
HETATM    1  N   UNL     1     -41.324  53.849 -53.880  1.00  0.00    -0.268 N 
HETATM    2  C   UNL     1     -40.511  54.835 -54.340  1.00  0.00     0.326 C 
HETATM    3  O   UNL     1     -39.548  54.739 -55.078  1.00  0.00    -0.247 OA
HETATM    4  N   UNL     1     -40.957  56.044 -53.845  1.00  0.00    -0.324 N 
HETATM    5  C   UNL     1     -42.228  55.925 -53.157  1.00  0.00     0.123 C 
HETATM    6  C   UNL     1     -42.343  54.381 -53.144  1.00  0.00     0.257 C 
HETATM    7  O   UNL     1     -43.253  53.771 -52.596  1.00  0.00    -0.270 OA
HETATM    8  H   UNL     1     -40.537  56.880 -54.232  1.00  0.00     0.165 HD
ENDROOT
BRANCH   5   9
HETATM    9  C   UNL     1     -43.407  56.472 -53.998  1.00  0.00     0.080 C 
BRANCH   9  10
HETATM   10  C   UNL     1     -43.083  57.028 -55.368  1.00  0.00    -0.052 A 
HETATM   11  C   UNL     1     -43.111  56.208 -56.503  1.00  0.00     0.049 A 
HETATM   12  C   UNL     1     -42.808  56.742 -57.754  1.00  0.00     0.116 A 
HETATM   13  F   UNL     1     -42.833  55.942 -58.827  1.00  0.00    -0.206 F 
HETATM   14  C   UNL     1     -42.474  58.081 -57.902  1.00  0.00     0.042 A 
HETATM   15  C   UNL     1     -42.442  58.906 -56.780  1.00  0.00     0.003 A 
HETATM   16  C   UNL     1     -42.743  58.383 -55.520  1.00  0.00     0.007 A 
ENDBRANCH   9  10
ENDBRANCH   5   9
BRANCH   5  17
HETATM   17  C   UNL     1     -42.118  56.443 -51.678  1.00  0.00     0.027 C 
HETATM   18  C   UNL     1     -43.450  56.657 -50.937  1.00  0.00     0.035 C 
HETATM   19  C   UNL     1     -44.153  57.981 -51.213  1.00  0.00     0.235 C 
HETATM   20  N   UNL     1     -43.217  59.148 -51.036  1.00  0.00    -0.067 N 
HETATM   21  H   UNL     1     -43.005  59.198 -50.029  1.00  0.00     0.280 HD
HETATM   22  C   UNL     1     -41.913  59.010 -51.780  1.00  0.00     0.235 C 
HETATM   23  C   UNL     1     -41.237  57.689 -51.459  1.00  0.00     0.035 C 
BRANCH  20  24
HETATM   24  C   UNL     1     -43.863  60.487 -51.388  1.00  0.00     0.273 C 
BRANCH  24  25
HETATM   25  C   UNL     1     -44.306  61.310 -50.209  1.00  0.00    -0.030 A 
HETATM   26  C   UNL     1     -45.339  60.870 -49.370  1.00  0.00     0.048 A 
HETATM   27  C   UNL     1     -45.756  61.662 -48.298  1.00  0.00     0.102 A 
HETATM   28  C   UNL     1     -45.176  62.913 -48.076  1.00  0.00     0.102 A 
HETATM   29  O   UNL     1     -46.751  61.149 -47.508  1.00  0.00    -0.346 OA
HETATM   30  O   UNL     1     -45.562  63.756 -47.070  1.00  0.00    -0.346 OA
HETATM   31  C   UNL     1     -44.140  63.352 -48.894  1.00  0.00     0.040 A 
HETATM   32  C   UNL     1     -46.810  63.356 -46.490  1.00  0.00     0.202 C 
HETATM   33  C   UNL     1     -46.839  61.853 -46.260  1.00  0.00     0.202 C 
HETATM   34  C   UNL     1     -43.704  62.556 -49.955  1.00  0.00     0.012 A 
ENDBRANCH  24  25
ENDBRANCH  20  24
ENDBRANCH   5  17
BRANCH   1  35
HETATM   35  C   UNL     1     -41.203  52.450 -54.245  1.00  0.00     0.140 C 
BRANCH  35  36
HETATM   36  C   UNL     1     -39.911  51.797 -53.730  1.00  0.00    -0.004 C 
HETATM   37  C   UNL     1     -39.880  50.324 -54.143  1.00  0.00     0.011 C 
HETATM   38  C   UNL     1     -39.780  51.916 -52.211  1.00  0.00     0.011 C 
ENDBRANCH  35  36
ENDBRANCH   1  35
TORSDOF 7
ENDMDL
MODEL 3
REMARK VINA RESULT:      -9.1      3.074      6.510
REMARK  7 active torsions:
REMARK  status: ('A' for Active; 'I' for Inactive)
REMARK    1  A    between atoms: C_2  and  C_3 
REMARK    2  A    between atoms: C_3  and  N_4 
REMARK    3  A    between atoms: C_8  and  C_27 
REMARK    4  A    between atoms: C_8  and  C_9 
REMARK    5  A    between atoms: N_12  and  C_14 
REMARK    6  A    between atoms: C_14  and  C_15 
REMARK    7  A    between atoms: C_27  and  C_28 
ROOT
HETATM    1  N   UNL     1     -40.372  52.842 -52.836  1.00  0.00    -0.268 N 
HETATM    2  C   UNL     1     -41.144  53.437 -51.890  1.00  0.00     0.326 C 
HETATM    3  O   UNL     1     -41.208  53.190 -50.700  1.00  0.00    -0.247 OA
HETATM    4  N   UNL     1     -41.882  54.440 -52.487  1.00  0.00    -0.324 N 
HETATM    5  C   UNL     1     -41.488  54.673 -53.863  1.00  0.00     0.123 C 
HETATM    6  C   UNL     1     -40.529  53.469 -54.037  1.00  0.00     0.257 C 
HETATM    7  O   UNL     1     -39.972  53.190 -55.092  1.00  0.00    -0.270 OA
HETATM    8  H   UNL     1     -42.384  55.067 -51.871  1.00  0.00     0.165 HD
ENDROOT
BRANCH   5   9
HETATM    9  C   UNL     1     -40.649  55.964 -54.025  1.00  0.00     0.080 C 
BRANCH   9  10
HETATM   10  C   UNL     1     -41.075  57.173 -53.222  1.00  0.00    -0.052 A 
HETATM   11  C   UNL     1     -41.291  58.410 -53.843  1.00  0.00     0.049 A 
HETATM   12  C   UNL     1     -41.681  59.511 -53.084  1.00  0.00     0.116 A 
HETATM   13  F   UNL     1     -41.877  60.687 -53.693  1.00  0.00    -0.206 F 
HETATM   14  C   UNL     1     -41.862  59.409 -51.712  1.00  0.00     0.042 A 
HETATM   15  C   UNL     1     -41.649  58.185 -51.082  1.00  0.00     0.003 A 
HETATM   16  C   UNL     1     -41.256  57.073 -51.832  1.00  0.00     0.007 A 
ENDBRANCH   9  10
ENDBRANCH   5   9
BRANCH   5  17
HETATM   17  C   UNL     1     -42.710  54.499 -54.835  1.00  0.00     0.027 C 
HETATM   18  C   UNL     1     -42.511  55.025 -56.268  1.00  0.00     0.035 C 
HETATM   19  C   UNL     1     -42.735  56.520 -56.460  1.00  0.00     0.235 C 
HETATM   20  N   UNL     1     -44.053  56.958 -55.878  1.00  0.00    -0.067 N 
HETATM   21  H   UNL     1     -44.784  56.532 -56.466  1.00  0.00     0.280 HD
HETATM   22  C   UNL     1     -44.279  56.508 -54.456  1.00  0.00     0.235 C 
HETATM   23  C   UNL     1     -44.068  55.011 -54.317  1.00  0.00     0.035 C 
BRANCH  20  24
HETATM   24  C   UNL     1     -44.275  58.466 -55.974  1.00  0.00     0.273 C 
BRANCH  24  25
HETATM   25  C   UNL     1     -43.570  59.143 -57.117  1.00  0.00    -0.030 A 
HETATM   26  C   UNL     1     -42.603  60.131 -56.885  1.00  0.00     0.048 A 
HETATM   27  C   UNL     1     -41.980  60.768 -57.960  1.00  0.00     0.102 A 
HETATM   28  C   UNL     1     -42.341  60.455 -59.272  1.00  0.00     0.102 A 
HETATM   29  O   UNL     1     -41.026  61.701 -57.650  1.00  0.00    -0.346 OA
HETATM   30  O   UNL     1     -41.800  61.066 -60.370  1.00  0.00    -0.346 OA
HETATM   31  C   UNL     1     -43.289  59.465 -59.514  1.00  0.00     0.040 A 
HETATM   32  C   UNL     1     -41.080  62.254 -60.017  1.00  0.00     0.202 C 
HETATM   33  C   UNL     1     -40.213  62.012 -58.792  1.00  0.00     0.202 C 
HETATM   34  C   UNL     1     -43.900  58.810 -58.444  1.00  0.00     0.012 A 
ENDBRANCH  24  25
ENDBRANCH  20  24
ENDBRANCH   5  17
BRANCH   1  35
HETATM   35  C   UNL     1     -39.413  51.787 -52.566  1.00  0.00     0.140 C 
BRANCH  35  36
HETATM   36  C   UNL     1     -39.956  50.381 -52.865  1.00  0.00    -0.004 C 
HETATM   37  C   UNL     1     -39.579  49.432 -51.725  1.00  0.00     0.011 C 
HETATM   38  C   UNL     1     -39.427  49.838 -54.193  1.00  0.00     0.011 C 
ENDBRANCH  35  36
ENDBRANCH   1  35
TORSDOF 7
ENDMDL
MODEL 4
REMARK VINA RESULT:      -9.0      2.922      6.185
REMARK  7 active torsions:
REMARK  status: ('A' for Active; 'I' for Inactive)
REMARK    1  A    between atoms: C_2  and  C_3 
REMARK    2  A    between atoms: C_3  and  N_4 
REMARK    3  A    between atoms: C_8  and  C_27 
REMARK    4  A    between atoms: C_8  and  C_9 
REMARK    5  A    between atoms: N_12  and  C_14 
REMARK    6  A    between atoms: C_14  and  C_15 
REMARK    7  A    between atoms: C_27  and  C_28 
ROOT
HETATM    1  N   UNL     1     -42.141  58.252 -52.473  1.00  0.00    -0.268 N 
HETATM    2  C   UNL     1     -41.042  57.876 -53.177  1.00  0.00     0.326 C 
HETATM    3  O   UNL     1     -40.162  58.579 -53.638  1.00  0.00    -0.247 OA
HETATM    4  N   UNL     1     -41.039  56.500 -53.294  1.00  0.00    -0.324 N 
HETATM    5  C   UNL     1     -42.077  55.876 -52.497  1.00  0.00     0.123 C 
HETATM    6  C   UNL     1     -42.836  57.153 -52.059  1.00  0.00     0.257 C 
HETATM    7  O   UNL     1     -43.866  57.138 -51.397  1.00  0.00    -0.270 OA
HETATM    8  H   UNL     1     -40.197  56.074 -53.661  1.00  0.00     0.165 HD
ENDROOT
BRANCH   5   9
HETATM    9  C   UNL     1     -41.516  55.207 -51.218  1.00  0.00     0.080 C 
BRANCH   9  10
HETATM   10  C   UNL     1     -40.871  53.846 -51.373  1.00  0.00    -0.052 A 
HETATM   11  C   UNL     1     -40.936  52.898 -50.344  1.00  0.00     0.049 A 
HETATM   12  C   UNL     1     -40.334  51.652 -50.508  1.00  0.00     0.116 A 
HETATM   13  F   UNL     1     -40.399  50.760 -49.512  1.00  0.00    -0.206 F 
HETATM   14  C   UNL     1     -39.664  51.327 -51.679  1.00  0.00     0.042 A 
HETATM   15  C   UNL     1     -39.592  52.262 -52.709  1.00  0.00     0.003 A 
HETATM   16  C   UNL     1     -40.191  53.515 -52.557  1.00  0.00     0.007 A 
ENDBRANCH   9  10
ENDBRANCH   5   9
BRANCH   5  17
HETATM   17  C   UNL     1     -43.023  54.999 -53.394  1.00  0.00     0.027 C 
HETATM   18  C   UNL     1     -42.334  54.170 -54.493  1.00  0.00     0.035 C 
HETATM   19  C   UNL     1     -42.015  54.919 -55.782  1.00  0.00     0.235 C 
HETATM   20  N   UNL     1     -43.223  55.651 -56.305  1.00  0.00    -0.067 N 
HETATM   21  H   UNL     1     -43.890  54.929 -56.609  1.00  0.00     0.280 HD
HETATM   22  C   UNL     1     -43.910  56.517 -55.278  1.00  0.00     0.235 C 
HETATM   23  C   UNL     1     -44.229  55.727 -54.022  1.00  0.00     0.035 C 
BRANCH  20  24
HETATM   24  C   UNL     1     -42.921  56.484 -57.550  1.00  0.00     0.273 C 
BRANCH  24  25
HETATM   25  C   UNL     1     -43.929  56.359 -58.660  1.00  0.00    -0.030 A 
HETATM   26  C   UNL     1     -44.947  57.309 -58.819  1.00  0.00     0.048 A 
HETATM   27  C   UNL     1     -45.890  57.161 -59.838  1.00  0.00     0.102 A 
HETATM   28  C   UNL     1     -45.850  56.048 -60.681  1.00  0.00     0.102 A 
HETATM   29  O   UNL     1     -46.836  58.146 -59.945  1.00  0.00    -0.346 OA
HETATM   30  O   UNL     1     -46.764  55.820 -61.674  1.00  0.00    -0.346 OA
HETATM   31  C   UNL     1     -44.835  55.107 -60.540  1.00  0.00     0.040 A 
HETATM   32  C   UNL     1     -47.916  56.662 -61.540  1.00  0.00     0.202 C 
HETATM   33  C   UNL     1     -47.504  58.089 -61.215  1.00  0.00     0.202 C 
HETATM   34  C   UNL     1     -43.877  55.261 -59.537  1.00  0.00     0.012 A 
ENDBRANCH  24  25
ENDBRANCH  20  24
ENDBRANCH   5  17
BRANCH   1  35
HETATM   35  C   UNL     1     -42.444  59.619 -52.094  1.00  0.00     0.140 C 
BRANCH  35  36
HETATM   36  C   UNL     1     -42.158  59.918 -50.614  1.00  0.00    -0.004 C 
HETATM   37  C   UNL     1     -42.614  61.340 -50.280  1.00  0.00     0.011 C 
HETATM   38  C   UNL     1     -40.676  59.751 -50.277  1.00  0.00     0.011 C 
ENDBRANCH  35  36
ENDBRANCH   1  35
TORSDOF 7
ENDMDL
MODEL 5
REMARK VINA RESULT:      -9.0      1.033      1.541
REMARK  7 active torsions:
REMARK  status: ('A' for Active; 'I' for Inactive)
REMARK    1  A    between atoms: C_2  and  C_3 
REMARK    2  A    between atoms: C_3  and  N_4 
REMARK    3  A    between atoms: C_8  and  C_27 
REMARK    4  A    between atoms: C_8  and  C_9 
REMARK    5  A    between atoms: N_12  and  C_14 
REMARK    6  A    between atoms: C_14  and  C_15 
REMARK    7  A    between atoms: C_27  and  C_28 
ROOT
HETATM    1  N   UNL     1     -42.434  55.496 -55.063  1.00  0.00    -0.268 N 
HETATM    2  C   UNL     1     -42.947  54.239 -55.122  1.00  0.00     0.326 C 
HETATM    3  O   UNL     1     -43.613  53.734 -56.007  1.00  0.00    -0.247 OA
HETATM    4  N   UNL     1     -42.576  53.555 -53.982  1.00  0.00    -0.324 N 
HETATM    5  C   UNL     1     -41.624  54.297 -53.177  1.00  0.00     0.123 C 
HETATM    6  C   UNL     1     -41.671  55.643 -53.942  1.00  0.00     0.257 C 
HETATM    7  O   UNL     1     -41.060  56.645 -53.592  1.00  0.00    -0.270 OA
HETATM    8  H   UNL     1     -42.759  52.559 -53.965  1.00  0.00     0.165 HD
ENDROOT
BRANCH   5   9
HETATM    9  C   UNL     1     -40.185  53.740 -53.303  1.00  0.00     0.080 C 
BRANCH   9  10
HETATM   10  C   UNL     1     -39.999  52.250 -53.118  1.00  0.00    -0.052 A 
HETATM   11  C   UNL     1     -39.701  51.712 -51.860  1.00  0.00     0.049 A 
HETATM   12  C   UNL     1     -39.532  50.337 -51.714  1.00  0.00     0.116 A 
HETATM   13  F   UNL     1     -39.241  49.840 -50.505  1.00  0.00    -0.206 F 
HETATM   14  C   UNL     1     -39.654  49.479 -52.798  1.00  0.00     0.042 A 
HETATM   15  C   UNL     1     -39.949  50.002 -54.055  1.00  0.00     0.003 A 
HETATM   16  C   UNL     1     -40.120  51.379 -54.215  1.00  0.00     0.007 A 
ENDBRANCH   9  10
ENDBRANCH   5   9
BRANCH   5  17
HETATM   17  C   UNL     1     -42.171  54.516 -51.720  1.00  0.00     0.027 C 
HETATM   18  C   UNL     1     -43.445  55.371 -51.600  1.00  0.00     0.035 C 
HETATM   19  C   UNL     1     -43.231  56.881 -51.609  1.00  0.00     0.235 C 
HETATM   20  N   UNL     1     -42.180  57.293 -50.611  1.00  0.00    -0.067 N 
HETATM   21  H   UNL     1     -42.582  57.117 -49.680  1.00  0.00     0.280 HD
HETATM   22  C   UNL     1     -40.892  56.516 -50.718  1.00  0.00     0.235 C 
HETATM   23  C   UNL     1     -41.150  55.021 -50.681  1.00  0.00     0.035 C 
BRANCH  20  24
HETATM   24  C   UNL     1     -41.875  58.789 -50.653  1.00  0.00     0.273 C 
BRANCH  24  25
HETATM   25  C   UNL     1     -42.597  59.558 -51.725  1.00  0.00    -0.030 A 
HETATM   26  C   UNL     1     -43.979  59.777 -51.649  1.00  0.00     0.048 A 
HETATM   27  C   UNL     1     -44.636  60.467 -52.670  1.00  0.00     0.102 A 
HETATM   28  C   UNL     1     -43.930  60.911 -53.790  1.00  0.00     0.102 A 
HETATM   29  O   UNL     1     -45.982  60.665 -52.507  1.00  0.00    -0.346 OA
HETATM   30  O   UNL     1     -44.517  61.560 -54.843  1.00  0.00    -0.346 OA
HETATM   31  C   UNL     1     -42.556  60.712 -53.868  1.00  0.00     0.040 A 
HETATM   32  C   UNL     1     -45.944  61.445 -54.810  1.00  0.00     0.202 C 
HETATM   33  C   UNL     1     -46.470  61.677 -53.402  1.00  0.00     0.202 C 
HETATM   34  C   UNL     1     -41.890  60.041 -52.842  1.00  0.00     0.012 A 
ENDBRANCH  24  25
ENDBRANCH  20  24
ENDBRANCH   5  17
BRANCH   1  35
HETATM   35  C   UNL     1     -42.562  56.483 -56.119  1.00  0.00     0.140 C 
BRANCH  35  36
HETATM   36  C   UNL     1     -43.292  57.759 -55.672  1.00  0.00    -0.004 C 
HETATM   37  C   UNL     1     -44.630  57.387 -55.029  1.00  0.00     0.011 C 
HETATM   38  C   UNL     1     -43.522  58.721 -56.838  1.00  0.00     0.011 C 
ENDBRANCH  35  36
ENDBRANCH   1  35
TORSDOF 7
ENDMDL
MODEL 6
REMARK VINA RESULT:      -8.9      2.409      3.383
REMARK  7 active torsions:
REMARK  status: ('A' for Active; 'I' for Inactive)
REMARK    1  A    between atoms: C_2  and  C_3 
REMARK    2  A    between atoms: C_3  and  N_4 
REMARK    3  A    between atoms: C_8  and  C_27 
REMARK    4  A    between atoms: C_8  and  C_9 
REMARK    5  A    between atoms: N_12  and  C_14 
REMARK    6  A    between atoms: C_14  and  C_15 
REMARK    7  A    between atoms: C_27  and  C_28 
ROOT
HETATM    1  N   UNL     1     -43.248  56.126 -54.602  1.00  0.00    -0.268 N 
HETATM    2  C   UNL     1     -43.603  54.841 -54.343  1.00  0.00     0.326 C 
HETATM    3  O   UNL     1     -44.308  54.101 -55.007  1.00  0.00    -0.247 OA
HETATM    4  N   UNL     1     -43.009  54.446 -53.161  1.00  0.00    -0.324 N 
HETATM    5  C   UNL     1     -42.064  55.426 -52.664  1.00  0.00     0.123 C 
HETATM    6  C   UNL     1     -42.375  56.575 -53.655  1.00  0.00     0.257 C 
HETATM    7  O   UNL     1     -41.854  57.682 -53.598  1.00  0.00    -0.270 OA
HETATM    8  H   UNL     1     -43.062  53.462 -52.929  1.00  0.00     0.165 HD
ENDROOT
BRANCH   5   9
HETATM    9  C   UNL     1     -40.594  54.999 -52.893  1.00  0.00     0.080 C 
BRANCH   9  10
HETATM   10  C   UNL     1     -40.307  53.515 -52.972  1.00  0.00    -0.052 A 
HETATM   11  C   UNL     1     -40.041  52.771 -51.815  1.00  0.00     0.049 A 
HETATM   12  C   UNL     1     -39.779  51.406 -51.911  1.00  0.00     0.116 A 
HETATM   13  F   UNL     1     -39.520  50.712 -50.797  1.00  0.00    -0.206 F 
HETATM   14  C   UNL     1     -39.774  50.760 -53.140  1.00  0.00     0.042 A 
HETATM   15  C   UNL     1     -40.036  51.489 -54.298  1.00  0.00     0.003 A 
HETATM   16  C   UNL     1     -40.300  52.859 -54.215  1.00  0.00     0.007 A 
ENDBRANCH   9  10
ENDBRANCH   5   9
BRANCH   5  17
HETATM   17  C   UNL     1     -42.445  55.887 -51.211  1.00  0.00     0.027 C 
HETATM   18  C   UNL     1     -43.828  56.545 -51.053  1.00  0.00     0.035 C 
HETATM   19  C   UNL     1     -43.898  58.027 -51.404  1.00  0.00     0.235 C 
HETATM   20  N   UNL     1     -42.819  58.810 -50.701  1.00  0.00    -0.067 N 
HETATM   21  H   UNL     1     -43.056  58.792 -49.700  1.00  0.00     0.280 HD
HETATM   22  C   UNL     1     -41.435  58.233 -50.863  1.00  0.00     0.235 C 
HETATM   23  C   UNL     1     -41.407  56.764 -50.482  1.00  0.00     0.035 C 
BRANCH  20  24
HETATM   24  C   UNL     1     -42.803  60.286 -51.095  1.00  0.00     0.273 C 
BRANCH  24  25
HETATM   25  C   UNL     1     -43.580  61.197 -50.185  1.00  0.00    -0.030 A 
HETATM   26  C   UNL     1     -44.625  60.704 -49.391  1.00  0.00     0.048 A 
HETATM   27  C   UNL     1     -45.353  61.571 -48.575  1.00  0.00     0.102 A 
HETATM   28  C   UNL     1     -45.074  62.939 -48.571  1.00  0.00     0.102 A 
HETATM   29  O   UNL     1     -46.339  61.007 -47.808  1.00  0.00    -0.346 OA
HETATM   30  O   UNL     1     -45.772  63.850 -47.825  1.00  0.00    -0.346 OA
HETATM   31  C   UNL     1     -44.030  63.436 -49.344  1.00  0.00     0.040 A 
HETATM   32  C   UNL     1     -46.992  63.296 -47.316  1.00  0.00     0.202 C 
HETATM   33  C   UNL     1     -46.759  61.899 -46.764  1.00  0.00     0.202 C 
HETATM   34  C   UNL     1     -43.284  62.572 -50.146  1.00  0.00     0.012 A 
ENDBRANCH  24  25
ENDBRANCH  20  24
ENDBRANCH   5  17
BRANCH   1  35
HETATM   35  C   UNL     1     -43.631  56.857 -55.795  1.00  0.00     0.140 C 
BRANCH  35  36
HETATM   36  C   UNL     1     -42.631  56.700 -56.952  1.00  0.00    -0.004 C 
HETATM   37  C   UNL     1     -42.305  58.074 -57.540  1.00  0.00     0.011 C 
HETATM   38  C   UNL     1     -43.169  55.777 -58.046  1.00  0.00     0.011 C 
ENDBRANCH  35  36
ENDBRANCH   1  35
TORSDOF 7
ENDMDL
MODEL 7
REMARK VINA RESULT:      -8.9      2.400      5.809
REMARK  7 active torsions:
REMARK  status: ('A' for Active; 'I' for Inactive)
REMARK    1  A    between atoms: C_2  and  C_3 
REMARK    2  A    between atoms: C_3  and  N_4 
REMARK    3  A    between atoms: C_8  and  C_27 
REMARK    4  A    between atoms: C_8  and  C_9 
REMARK    5  A    between atoms: N_12  and  C_14 
REMARK    6  A    between atoms: C_14  and  C_15 
REMARK    7  A    between atoms: C_27  and  C_28 
ROOT
HETATM    1  N   UNL     1     -40.503  53.226 -52.588  1.00  0.00    -0.268 N 
HETATM    2  C   UNL     1     -41.381  53.770 -51.706  1.00  0.00     0.326 C 
HETATM    3  O   UNL     1     -41.495  53.545 -50.514  1.00  0.00    -0.247 OA
HETATM    4  N   UNL     1     -42.170  54.687 -52.372  1.00  0.00    -0.324 N 
HETATM    5  C   UNL     1     -41.715  54.923 -53.729  1.00  0.00     0.123 C 
HETATM    6  C   UNL     1     -40.642  53.809 -53.814  1.00  0.00     0.257 C 
HETATM    7  O   UNL     1     -40.001  53.559 -54.826  1.00  0.00    -0.270 OA
HETATM    8  H   UNL     1     -42.763  55.279 -51.804  1.00  0.00     0.165 HD
ENDROOT
BRANCH   5   9
HETATM    9  C   UNL     1     -40.988  56.282 -53.878  1.00  0.00     0.080 C 
BRANCH   9  10
HETATM   10  C   UNL     1     -41.179  57.297 -52.772  1.00  0.00    -0.052 A 
HETATM   11  C   UNL     1     -40.118  58.105 -52.346  1.00  0.00     0.049 A 
HETATM   12  C   UNL     1     -40.317  59.032 -51.324  1.00  0.00     0.116 A 
HETATM   13  F   UNL     1     -39.290  59.792 -50.925  1.00  0.00    -0.206 F 
HETATM   14  C   UNL     1     -41.555  59.173 -50.713  1.00  0.00     0.042 A 
HETATM   15  C   UNL     1     -42.618  58.374 -51.128  1.00  0.00     0.003 A 
HETATM   16  C   UNL     1     -42.431  57.440 -52.150  1.00  0.00     0.007 A 
ENDBRANCH   9  10
ENDBRANCH   5   9
BRANCH   5  17
HETATM   17  C   UNL     1     -42.855  54.616 -54.765  1.00  0.00     0.027 C 
HETATM   18  C   UNL     1     -42.565  55.014 -56.224  1.00  0.00     0.035 C 
HETATM   19  C   UNL     1     -42.818  56.477 -56.572  1.00  0.00     0.235 C 
HETATM   20  N   UNL     1     -44.188  56.918 -56.131  1.00  0.00    -0.067 N 
HETATM   21  H   UNL     1     -44.860  56.414 -56.727  1.00  0.00     0.280 HD
HETATM   22  C   UNL     1     -44.506  56.594 -54.693  1.00  0.00     0.235 C 
HETATM   23  C   UNL     1     -44.263  55.125 -54.397  1.00  0.00     0.035 C 
BRANCH  20  24
HETATM   24  C   UNL     1     -44.446  58.403 -56.385  1.00  0.00     0.273 C 
BRANCH  24  25
HETATM   25  C   UNL     1     -44.081  59.317 -55.248  1.00  0.00    -0.030 A 
HETATM   26  C   UNL     1     -45.052  59.759 -54.338  1.00  0.00     0.048 A 
HETATM   27  C   UNL     1     -44.700  60.631 -53.306  1.00  0.00     0.102 A 
HETATM   28  C   UNL     1     -43.389  61.099 -53.193  1.00  0.00     0.102 A 
HETATM   29  O   UNL     1     -45.700  60.993 -52.442  1.00  0.00    -0.346 OA
HETATM   30  O   UNL     1     -42.983  61.983 -52.231  1.00  0.00    -0.346 OA
HETATM   31  C   UNL     1     -42.415  60.655 -54.082  1.00  0.00     0.040 A 
HETATM   32  C   UNL     1     -44.096  62.602 -51.574  1.00  0.00     0.202 C 
HETATM   33  C   UNL     1     -45.165  61.572 -51.242  1.00  0.00     0.202 C 
HETATM   34  C   UNL     1     -42.756  59.767 -55.103  1.00  0.00     0.012 A 
ENDBRANCH  24  25
ENDBRANCH  20  24
ENDBRANCH   5  17
BRANCH   1  35
HETATM   35  C   UNL     1     -39.471  52.270 -52.233  1.00  0.00     0.140 C 
BRANCH  35  36
HETATM   36  C   UNL     1     -39.921  50.808 -52.380  1.00  0.00    -0.004 C 
HETATM   37  C   UNL     1     -39.356  49.979 -51.225  1.00  0.00     0.011 C 
HETATM   38  C   UNL     1     -39.481  50.210 -53.717  1.00  0.00     0.011 C 
ENDBRANCH  35  36
ENDBRANCH   1  35
TORSDOF 7
ENDMDL
MODEL 8
REMARK VINA RESULT:      -8.8      2.888      5.977
REMARK  7 active torsions:
REMARK  status: ('A' for Active; 'I' for Inactive)
REMARK    1  A    between atoms: C_2  and  C_3 
REMARK    2  A    between atoms: C_3  and  N_4 
REMARK    3  A    between atoms: C_8  and  C_27 
REMARK    4  A    between atoms: C_8  and  C_9 
REMARK    5  A    between atoms: N_12  and  C_14 
REMARK    6  A    between atoms: C_14  and  C_15 
REMARK    7  A    between atoms: C_27  and  C_28 
ROOT
HETATM    1  N   UNL     1     -41.621  55.314 -51.185  1.00  0.00    -0.268 N 
HETATM    2  C   UNL     1     -41.344  56.423 -51.918  1.00  0.00     0.326 C 
HETATM    3  O   UNL     1     -41.031  57.532 -51.524  1.00  0.00    -0.247 OA
HETATM    4  N   UNL     1     -41.448  56.107 -53.258  1.00  0.00    -0.324 N 
HETATM    5  C   UNL     1     -41.634  54.686 -53.478  1.00  0.00     0.123 C 
HETATM    6  C   UNL     1     -41.842  54.247 -52.007  1.00  0.00     0.257 C 
HETATM    7  O   UNL     1     -42.108  53.100 -51.671  1.00  0.00    -0.270 OA
HETATM    8  H   UNL     1     -41.117  56.799 -53.918  1.00  0.00     0.165 HD
ENDROOT
BRANCH   5   9
HETATM    9  C   UNL     1     -40.347  53.996 -53.992  1.00  0.00     0.080 C 
BRANCH   9  10
HETATM   10  C   UNL     1     -40.184  52.522 -53.692  1.00  0.00    -0.052 A 
HETATM   11  C   UNL     1     -39.582  52.091 -52.503  1.00  0.00     0.049 A 
HETATM   12  C   UNL     1     -39.441  50.729 -52.248  1.00  0.00     0.116 A 
HETATM   13  F   UNL     1     -38.857  50.335 -51.110  1.00  0.00    -0.206 F 
HETATM   14  C   UNL     1     -39.888  49.778 -53.155  1.00  0.00     0.042 A 
HETATM   15  C   UNL     1     -40.488  50.194 -54.342  1.00  0.00     0.003 A 
HETATM   16  C   UNL     1     -40.634  51.557 -54.610  1.00  0.00     0.007 A 
ENDBRANCH   9  10
ENDBRANCH   5   9
BRANCH   5  17
HETATM   17  C   UNL     1     -42.953  54.411 -54.286  1.00  0.00     0.027 C 
HETATM   18  C   UNL     1     -42.803  54.340 -55.817  1.00  0.00     0.035 C 
HETATM   19  C   UNL     1     -42.791  55.681 -56.542  1.00  0.00     0.235 C 
HETATM   20  N   UNL     1     -43.958  56.539 -56.130  1.00  0.00    -0.067 N 
HETATM   21  H   UNL     1     -44.800  56.078 -56.501  1.00  0.00     0.280 HD
HETATM   22  C   UNL     1     -44.122  56.680 -54.637  1.00  0.00     0.235 C 
HETATM   23  C   UNL     1     -44.152  55.322 -53.960  1.00  0.00     0.035 C 
BRANCH  20  24
HETATM   24  C   UNL     1     -43.932  57.926 -56.771  1.00  0.00     0.273 C 
BRANCH  24  25
HETATM   25  C   UNL     1     -45.010  58.178 -57.789  1.00  0.00    -0.030 A 
HETATM   26  C   UNL     1     -45.311  57.225 -58.772  1.00  0.00     0.048 A 
HETATM   27  C   UNL     1     -46.295  57.490 -59.726  1.00  0.00     0.102 A 
HETATM   28  C   UNL     1     -46.959  58.718 -59.734  1.00  0.00     0.102 A 
HETATM   29  O   UNL     1     -46.550  56.496 -60.635  1.00  0.00    -0.346 OA
HETATM   30  O   UNL     1     -47.906  59.058 -60.662  1.00  0.00    -0.346 OA
HETATM   31  C   UNL     1     -46.678  59.664 -58.754  1.00  0.00     0.040 A 
HETATM   32  C   UNL     1     -47.900  58.162 -61.780  1.00  0.00     0.202 C 
HETATM   33  C   UNL     1     -47.796  56.719 -61.312  1.00  0.00     0.202 C 
HETATM   34  C   UNL     1     -45.711  59.398 -57.784  1.00  0.00     0.012 A 
ENDBRANCH  24  25
ENDBRANCH  20  24
ENDBRANCH   5  17
BRANCH   1  35
HETATM   35  C   UNL     1     -41.546  55.247 -49.738  1.00  0.00     0.140 C 
BRANCH  35  36
HETATM   36  C   UNL     1     -40.577  54.169 -49.228  1.00  0.00    -0.004 C 
HETATM   37  C   UNL     1     -40.575  54.162 -47.698  1.00  0.00     0.011 C 
HETATM   38  C   UNL     1     -39.157  54.387 -49.752  1.00  0.00     0.011 C 
ENDBRANCH  35  36
ENDBRANCH   1  35
TORSDOF 7
ENDMDL
MODEL 9
REMARK VINA RESULT:      -8.8      3.820      7.923
REMARK  7 active torsions:
REMARK  status: ('A' for Active; 'I' for Inactive)
REMARK    1  A    between atoms: C_2  and  C_3 
REMARK    2  A    between atoms: C_3  and  N_4 
REMARK    3  A    between atoms: C_8  and  C_27 
REMARK    4  A    between atoms: C_8  and  C_9 
REMARK    5  A    between atoms: N_12  and  C_14 
REMARK    6  A    between atoms: C_14  and  C_15 
REMARK    7  A    between atoms: C_27  and  C_28 
ROOT
HETATM    1  N   UNL     1     -42.775  61.191 -58.992  1.00  0.00    -0.268 N 
HETATM    2  C   UNL     1     -43.976  60.581 -59.162  1.00  0.00     0.326 C 
HETATM    3  O   UNL     1     -44.856  60.848 -59.960  1.00  0.00    -0.247 OA
HETATM    4  N   UNL     1     -44.073  59.535 -58.266  1.00  0.00    -0.324 N 
HETATM    5  C   UNL     1     -42.827  59.292 -57.563  1.00  0.00     0.123 C 
HETATM    6  C   UNL     1     -42.039  60.534 -58.050  1.00  0.00     0.257 C 
HETATM    7  O   UNL     1     -40.911  60.816 -57.667  1.00  0.00    -0.270 OA
HETATM    8  H   UNL     1     -44.850  58.898 -58.387  1.00  0.00     0.165 HD
ENDROOT
BRANCH   5   9
HETATM    9  C   UNL     1     -42.088  58.037 -58.088  1.00  0.00     0.080 C 
BRANCH   9  10
HETATM   10  C   UNL     1     -42.921  56.985 -58.788  1.00  0.00    -0.052 A 
HETATM   11  C   UNL     1     -43.206  55.762 -58.167  1.00  0.00     0.049 A 
HETATM   12  C   UNL     1     -43.973  54.807 -58.831  1.00  0.00     0.116 A 
HETATM   13  F   UNL     1     -44.230  53.642 -58.225  1.00  0.00    -0.206 F 
HETATM   14  C   UNL     1     -44.466  55.042 -60.107  1.00  0.00     0.042 A 
HETATM   15  C   UNL     1     -44.188  56.253 -60.736  1.00  0.00     0.003 A 
HETATM   16  C   UNL     1     -43.419  57.219 -60.081  1.00  0.00     0.007 A 
ENDBRANCH   9  10
ENDBRANCH   5   9
BRANCH   5  17
HETATM   17  C   UNL     1     -43.030  59.392 -56.009  1.00  0.00     0.027 C 
HETATM   18  C   UNL     1     -41.964  58.696 -55.143  1.00  0.00     0.035 C 
HETATM   19  C   UNL     1     -42.152  57.196 -54.943  1.00  0.00     0.235 C 
HETATM   20  N   UNL     1     -43.549  56.874 -54.482  1.00  0.00    -0.067 N 
HETATM   21  H   UNL     1     -43.632  57.252 -53.527  1.00  0.00     0.280 HD
HETATM   22  C   UNL     1     -44.634  57.495 -55.325  1.00  0.00     0.235 C 
HETATM   23  C   UNL     1     -44.420  58.990 -55.478  1.00  0.00     0.035 C 
BRANCH  20  24
HETATM   24  C   UNL     1     -43.802  55.373 -54.353  1.00  0.00     0.273 C 
BRANCH  24  25
HETATM   25  C   UNL     1     -42.722  54.603 -53.644  1.00  0.00    -0.030 A 
HETATM   26  C   UNL     1     -42.066  53.535 -54.273  1.00  0.00     0.048 A 
HETATM   27  C   UNL     1     -41.086  52.814 -53.587  1.00  0.00     0.102 A 
HETATM   28  C   UNL     1     -40.778  53.124 -52.261  1.00  0.00     0.102 A 
HETATM   29  O   UNL     1     -40.472  51.804 -54.281  1.00  0.00    -0.346 OA
HETATM   30  O   UNL     1     -39.858  52.435 -51.519  1.00  0.00    -0.346 OA
HETATM   31  C   UNL     1     -41.413  54.191 -51.633  1.00  0.00     0.040 A 
HETATM   32  C   UNL     1     -39.495  51.196 -52.139  1.00  0.00     0.202 C 
HETATM   33  C   UNL     1     -39.262  51.388 -53.629  1.00  0.00     0.202 C 
HETATM   34  C   UNL     1     -42.378  54.930 -52.319  1.00  0.00     0.012 A 
ENDBRANCH  24  25
ENDBRANCH  20  24
ENDBRANCH   5  17
BRANCH   1  35
HETATM   35  C   UNL     1     -42.294  62.293 -59.805  1.00  0.00     0.140 C 
BRANCH  35  36
HETATM   36  C   UNL     1     -41.283  61.861 -60.878  1.00  0.00    -0.004 C 
HETATM   37  C   UNL     1     -40.154  62.890 -60.964  1.00  0.00     0.011 C 
HETATM   38  C   UNL     1     -41.944  61.693 -62.247  1.00  0.00     0.011 C 
ENDBRANCH  35  36
ENDBRANCH   1  35
TORSDOF 7
ENDMDL
MODEL 10
REMARK VINA RESULT:      -8.8      3.622      6.818
REMARK  7 active torsions:
REMARK  status: ('A' for Active; 'I' for Inactive)
REMARK    1  A    between atoms: C_2  and  C_3 
REMARK    2  A    between atoms: C_3  and  N_4 
REMARK    3  A    between atoms: C_8  and  C_27 
REMARK    4  A    between atoms: C_8  and  C_9 
REMARK    5  A    between atoms: N_12  and  C_14 
REMARK    6  A    between atoms: C_14  and  C_15 
REMARK    7  A    between atoms: C_27  and  C_28 
ROOT
HETATM    1  N   UNL     1     -42.624  58.990 -52.385  1.00  0.00    -0.268 N 
HETATM    2  C   UNL     1     -42.347  59.563 -53.584  1.00  0.00     0.326 C 
HETATM    3  O   UNL     1     -42.242  60.746 -53.853  1.00  0.00    -0.247 OA
HETATM    4  N   UNL     1     -42.167  58.565 -54.522  1.00  0.00    -0.324 N 
HETATM    5  C   UNL     1     -42.145  57.243 -53.925  1.00  0.00     0.123 C 
HETATM    6  C   UNL     1     -42.567  57.630 -52.486  1.00  0.00     0.257 C 
HETATM    7  O   UNL     1     -42.755  56.816 -51.590  1.00  0.00    -0.270 OA
HETATM    8  H   UNL     1     -41.802  58.844 -55.424  1.00  0.00     0.165 HD
ENDROOT
BRANCH   5   9
HETATM    9  C   UNL     1     -40.715  56.655 -53.848  1.00  0.00     0.080 C 
BRANCH   9  10
HETATM   10  C   UNL     1     -40.588  55.150 -53.749  1.00  0.00    -0.052 A 
HETATM   11  C   UNL     1     -40.780  54.491 -52.528  1.00  0.00     0.049 A 
HETATM   12  C   UNL     1     -40.657  53.105 -52.460  1.00  0.00     0.116 A 
HETATM   13  F   UNL     1     -40.837  52.491 -51.284  1.00  0.00    -0.206 F 
HETATM   14  C   UNL     1     -40.345  52.355 -53.586  1.00  0.00     0.042 A 
HETATM   15  C   UNL     1     -40.151  53.000 -54.805  1.00  0.00     0.003 A 
HETATM   16  C   UNL     1     -40.271  54.389 -54.887  1.00  0.00     0.007 A 
ENDBRANCH   9  10
ENDBRANCH   5   9
BRANCH   5  17
HETATM   17  C   UNL     1     -43.252  56.324 -54.553  1.00  0.00     0.027 C 
HETATM   18  C   UNL     1     -43.015  55.881 -56.009  1.00  0.00     0.035 C 
HETATM   19  C   UNL     1     -43.422  56.887 -57.080  1.00  0.00     0.235 C 
HETATM   20  N   UNL     1     -44.829  57.380 -56.864  1.00  0.00    -0.067 N 
HETATM   21  H   UNL     1     -45.448  56.577 -57.046  1.00  0.00     0.280 HD
HETATM   22  C   UNL     1     -45.102  57.870 -55.464  1.00  0.00     0.235 C 
HETATM   23  C   UNL     1     -44.704  56.830 -54.433  1.00  0.00     0.035 C 
BRANCH  20  24
HETATM   24  C   UNL     1     -45.243  58.455 -57.867  1.00  0.00     0.273 C 
BRANCH  24  25
HETATM   25  C   UNL     1     -45.992  57.950 -59.070  1.00  0.00    -0.030 A 
HETATM   26  C   UNL     1     -46.826  58.800 -59.810  1.00  0.00     0.048 A 
HETATM   27  C   UNL     1     -47.535  58.305 -60.906  1.00  0.00     0.102 A 
HETATM   28  C   UNL     1     -47.450  56.955 -61.252  1.00  0.00     0.102 A 
HETATM   29  O   UNL     1     -48.306  59.205 -61.594  1.00  0.00    -0.346 OA
HETATM   30  O   UNL     1     -48.146  56.395 -62.289  1.00  0.00    -0.346 OA
HETATM   31  C   UNL     1     -46.614  56.106 -60.533  1.00  0.00     0.040 A 
HETATM   32  C   UNL     1     -49.186  57.261 -62.759  1.00  0.00     0.202 C 
HETATM   33  C   UNL     1     -48.682  58.691 -62.881  1.00  0.00     0.202 C 
HETATM   34  C   UNL     1     -45.886  56.599 -59.449  1.00  0.00     0.012 A 
ENDBRANCH  24  25
ENDBRANCH  20  24
ENDBRANCH   5  17
BRANCH   1  35
HETATM   35  C   UNL     1     -42.808  59.726 -51.148  1.00  0.00     0.140 C 
BRANCH  35  36
HETATM   36  C   UNL     1     -44.225  60.300 -50.988  1.00  0.00    -0.004 C 
HETATM   37  C   UNL     1     -44.246  61.295 -49.826  1.00  0.00     0.011 C 
HETATM   38  C   UNL     1     -45.261  59.200 -50.753  1.00  0.00     0.011 C 
ENDBRANCH  35  36
ENDBRANCH   1  35
TORSDOF 7
ENDMDL
