MODEL 1
REMARK VINA RESULT:      -8.3      0.000      0.000
REMARK  8 active torsions:
REMARK  status: ('A' for Active; 'I' for Inactive)
REMARK    1  A    between atoms: C_2  and  C_3 
REMARK    2  A    between atoms: C_3  and  C_4 
REMARK       I    between atoms: C_4  and  N_5 
REMARK    3  A    between atoms: N_8  and  C_9 
REMARK    4  A    between atoms: C_13  and  N_14 
REMARK    5  A    between atoms: N_14  and  C_15 
REMARK    6  A    between atoms: C_15  and  N_16 
REMARK       I    between atoms: N_16  and  C_17 
REMARK    7  A    between atoms: C_17  and  C_18 
REMARK    8  A    between atoms: C_21  and  O_22 
ROOT
HETATM    1  C   UNL     1     -42.408  58.271 -51.310  1.00  0.00     0.052 A 
HETATM    2  C   UNL     1     -41.716  59.374 -50.773  1.00  0.00     0.062 A 
HETATM    3 CL   UNL     1     -40.002  59.418 -50.510  1.00  0.00    -0.082 Cl
HETATM    4  C   UNL     1     -42.383  60.579 -50.479  1.00  0.00     0.055 A 
HETATM    5  C   UNL     1     -43.752  60.738 -50.716  1.00  0.00     0.036 A 
HETATM    6  C   UNL     1     -44.445  59.675 -51.275  1.00  0.00     0.032 A 
HETATM    7  C   UNL     1     -43.785  58.466 -51.547  1.00  0.00     0.033 A 
ENDROOT
BRANCH   5   8
HETATM    8  N   UNL     1     -44.298  62.011 -50.447  1.00  0.00    -0.333 N 
HETATM    9  H   UNL     1     -43.796  62.779 -50.883  1.00  0.00     0.168 HD
BRANCH   8  10
HETATM   10  C   UNL     1     -45.494  62.397 -49.960  1.00  0.00     0.179 C 
HETATM   11  S   UNL     1     -46.677  62.865 -51.054  1.00  0.00    -0.040 SA
BRANCH  10  12
HETATM   12  N   UNL     1     -45.804  62.458 -48.644  1.00  0.00    -0.299 N 
HETATM   13  C   UNL     1     -45.645  61.416 -47.736  1.00  0.00     0.257 C 
HETATM   14  O   UNL     1     -45.895  60.232 -47.905  1.00  0.00    -0.267 OA
HETATM   15  H   UNL     1     -45.538  63.359 -48.267  1.00  0.00     0.171 HD
BRANCH  13  16
HETATM   16  C   UNL     1     -45.221  61.869 -46.388  1.00  0.00     0.032 A 
HETATM   17  C   UNL     1     -44.613  60.960 -45.522  1.00  0.00     0.020 A 
HETATM   18  C   UNL     1     -44.230  61.379 -44.246  1.00  0.00     0.038 A 
HETATM   19  C   UNL     1     -44.418  62.705 -43.846  1.00  0.00     0.068 A 
HETATM   20  C   UNL     1     -45.026  63.612 -44.718  1.00  0.00     0.038 A 
HETATM   21  C   UNL     1     -45.428  63.196 -45.992  1.00  0.00     0.020 A 
BRANCH  19  22
HETATM   22  O   UNL     1     -43.997  62.997 -42.579  1.00  0.00    -0.356 OA
HETATM   23  C   UNL     1     -42.750  63.678 -42.482  1.00  0.00     0.210 C 
ENDBRANCH  19  22
ENDBRANCH  13  16
ENDBRANCH  10  12
ENDBRANCH   8  10
ENDBRANCH   5   8
BRANCH   1  24
HETATM   24  N   UNL     1     -41.895  57.002 -51.613  1.00  0.00    -0.376 N 
HETATM   25  C   UNL     1     -42.136  56.372 -52.921  1.00  0.00     0.143 C 
HETATM   26  C   UNL     1     -41.098  55.262 -53.178  1.00  0.00     0.145 C 
HETATM   27  N   UNL     1     -40.998  54.299 -52.070  1.00  0.00    -0.349 N 
HETATM   28  C   UNL     1     -40.466  53.018 -52.219  1.00  0.00     0.219 C 
HETATM   29  C   UNL     1     -40.923  54.902 -50.732  1.00  0.00     0.145 C 
HETATM   30  O   UNL     1     -40.083  52.359 -51.253  1.00  0.00    -0.273 OA
HETATM   31  C   UNL     1     -41.953  56.024 -50.502  1.00  0.00     0.143 C 
BRANCH  28  32
HETATM   32  C   UNL     1     -40.400  52.467 -53.638  1.00  0.00     0.103 C 
BRANCH  32  33
HETATM   33  C   UNL     1     -39.463  51.269 -53.794  1.00  0.00     0.005 C 
HETATM   34  C   UNL     1     -40.177  50.019 -54.292  1.00  0.00     0.005 C 
ENDBRANCH  32  33
ENDBRANCH  28  32
ENDBRANCH   1  24
TORSDOF 8
ENDMDL
MODEL 2
REMARK VINA RESULT:      -7.9      3.122     10.593
REMARK  8 active torsions:
REMARK  status: ('A' for Active; 'I' for Inactive)
REMARK    1  A    between atoms: C_2  and  C_3 
REMARK    2  A    between atoms: C_3  and  C_4 
REMARK       I    between atoms: C_4  and  N_5 
REMARK    3  A    between atoms: N_8  and  C_9 
REMARK    4  A    between atoms: C_13  and  N_14 
REMARK    5  A    between atoms: N_14  and  C_15 
REMARK    6  A    between atoms: C_15  and  N_16 
REMARK       I    between atoms: N_16  and  C_17 
REMARK    7  A    between atoms: C_17  and  C_18 
REMARK    8  A    between atoms: C_21  and  O_22 
ROOT
HETATM    1  C   UNL     1     -44.379  58.813 -52.213  1.00  0.00     0.052 A 
HETATM    2  C   UNL     1     -44.856  58.834 -53.538  1.00  0.00     0.062 A 
HETATM    3 CL   UNL     1     -45.551  60.228 -54.303  1.00  0.00    -0.082 Cl
HETATM    4  C   UNL     1     -44.725  57.712 -54.378  1.00  0.00     0.055 A 
HETATM    5  C   UNL     1     -44.107  56.536 -53.942  1.00  0.00     0.036 A 
HETATM    6  C   UNL     1     -43.600  56.505 -52.651  1.00  0.00     0.032 A 
HETATM    7  C   UNL     1     -43.752  57.615 -51.806  1.00  0.00     0.033 A 
ENDROOT
BRANCH   5   8
HETATM    8  N   UNL     1     -43.970  55.502 -54.892  1.00  0.00    -0.333 N 
HETATM    9  H   UNL     1     -44.842  55.042 -55.134  1.00  0.00     0.168 HD
BRANCH   8  10
HETATM   10  C   UNL     1     -42.973  55.180 -55.740  1.00  0.00     0.179 C 
HETATM   11  S   UNL     1     -43.016  55.824 -57.289  1.00  0.00    -0.040 SA
BRANCH  10  12
HETATM   12  N   UNL     1     -41.947  54.350 -55.440  1.00  0.00    -0.299 N 
HETATM   13  C   UNL     1     -40.926  54.636 -54.539  1.00  0.00     0.257 C 
HETATM   14  O   UNL     1     -40.325  55.690 -54.400  1.00  0.00    -0.267 OA
HETATM   15  H   UNL     1     -42.280  53.396 -55.375  1.00  0.00     0.171 HD
BRANCH  13  16
HETATM   16  C   UNL     1     -40.481  53.455 -53.758  1.00  0.00     0.032 A 
HETATM   17  C   UNL     1     -40.407  53.544 -52.368  1.00  0.00     0.020 A 
HETATM   18  C   UNL     1     -39.972  52.441 -51.632  1.00  0.00     0.038 A 
HETATM   19  C   UNL     1     -39.646  51.241 -52.273  1.00  0.00     0.068 A 
HETATM   20  C   UNL     1     -39.724  51.157 -53.665  1.00  0.00     0.038 A 
HETATM   21  C   UNL     1     -40.143  52.263 -54.411  1.00  0.00     0.020 A 
BRANCH  19  22
HETATM   22  O   UNL     1     -39.240  50.230 -51.447  1.00  0.00    -0.356 OA
HETATM   23  C   UNL     1     -40.048  50.011 -50.295  1.00  0.00     0.210 C 
ENDBRANCH  19  22
ENDBRANCH  13  16
ENDBRANCH  10  12
ENDBRANCH   8  10
ENDBRANCH   5   8
BRANCH   1  24
HETATM   24  N   UNL     1     -44.474  59.827 -51.250  1.00  0.00    -0.376 N 
HETATM   25  C   UNL     1     -45.729  60.072 -50.520  1.00  0.00     0.143 C 
HETATM   26  C   UNL     1     -45.447  60.860 -49.225  1.00  0.00     0.145 C 
HETATM   27  N   UNL     1     -44.650  62.076 -49.452  1.00  0.00    -0.349 N 
HETATM   28  C   UNL     1     -44.615  63.142 -48.555  1.00  0.00     0.219 C 
HETATM   29  C   UNL     1     -43.477  61.893 -50.318  1.00  0.00     0.145 C 
HETATM   30  O   UNL     1     -43.715  63.982 -48.580  1.00  0.00    -0.273 OA
HETATM   31  C   UNL     1     -43.773  61.084 -51.596  1.00  0.00     0.143 C 
BRANCH  28  32
HETATM   32  C   UNL     1     -45.759  63.228 -47.551  1.00  0.00     0.103 C 
BRANCH  32  33
HETATM   33  C   UNL     1     -45.315  63.090 -46.094  1.00  0.00     0.005 C 
HETATM   34  C   UNL     1     -44.974  61.657 -45.710  1.00  0.00     0.005 C 
ENDBRANCH  32  33
ENDBRANCH  28  32
ENDBRANCH   1  24
TORSDOF 8
ENDMDL
MODEL 3
REMARK VINA RESULT:      -7.9      1.005      1.584
REMARK  8 active torsions:
REMARK  status: ('A' for Active; 'I' for Inactive)
REMARK    1  A    between atoms: C_2  and  C_3 
REMARK    2  A    between atoms: C_3  and  C_4 
REMARK       I    between atoms: C_4  and  N_5 
REMARK    3  A    between atoms: N_8  and  C_9 
REMARK    4  A    between atoms: C_13  and  N_14 
REMARK    5  A    between atoms: N_14  and  C_15 
REMARK    6  A    between atoms: C_15  and  N_16 
REMARK       I    between atoms: N_16  and  C_17 
REMARK    7  A    between atoms: C_17  and  C_18 
REMARK    8  A    between atoms: C_21  and  O_22 
ROOT
HETATM    1  C   UNL     1     -42.617  58.555 -51.861  1.00  0.00     0.052 A 
HETATM    2  C   UNL     1     -41.955  59.461 -51.009  1.00  0.00     0.062 A 
HETATM    3 CL   UNL     1     -40.304  59.297 -50.506  1.00  0.00    -0.082 Cl
HETATM    4  C   UNL     1     -42.590  60.635 -50.561  1.00  0.00     0.055 A 
HETATM    5  C   UNL     1     -43.893  60.960 -50.948  1.00  0.00     0.036 A 
HETATM    6  C   UNL     1     -44.551  60.098 -51.813  1.00  0.00     0.032 A 
HETATM    7  C   UNL     1     -43.928  58.916 -52.242  1.00  0.00     0.033 A 
ENDROOT
BRANCH   5   8
HETATM    8  N   UNL     1     -44.400  62.196 -50.492  1.00  0.00    -0.333 N 
HETATM    9  H   UNL     1     -43.863  63.002 -50.796  1.00  0.00     0.168 HD
BRANCH   8  10
HETATM   10  C   UNL     1     -45.591  62.545 -49.969  1.00  0.00     0.179 C 
HETATM   11  S   UNL     1     -46.794  63.061 -51.019  1.00  0.00    -0.040 SA
BRANCH  10  12
HETATM   12  N   UNL     1     -45.882  62.536 -48.646  1.00  0.00    -0.299 N 
HETATM   13  C   UNL     1     -45.662  61.464 -47.788  1.00  0.00     0.257 C 
HETATM   14  O   UNL     1     -45.863  60.278 -48.005  1.00  0.00    -0.267 OA
HETATM   15  H   UNL     1     -45.650  63.431 -48.234  1.00  0.00     0.171 HD
BRANCH  13  16
HETATM   16  C   UNL     1     -45.236  61.876 -46.427  1.00  0.00     0.032 A 
HETATM   17  C   UNL     1     -45.384  63.209 -46.041  1.00  0.00     0.020 A 
HETATM   18  C   UNL     1     -44.967  63.604 -44.768  1.00  0.00     0.038 A 
HETATM   19  C   UNL     1     -44.439  62.671 -43.870  1.00  0.00     0.068 A 
HETATM   20  C   UNL     1     -44.295  61.338 -44.263  1.00  0.00     0.038 A 
HETATM   21  C   UNL     1     -44.694  60.938 -45.542  1.00  0.00     0.020 A 
BRANCH  19  22
HETATM   22  O   UNL     1     -44.073  63.175 -42.654  1.00  0.00    -0.356 OA
HETATM   23  C   UNL     1     -42.759  63.719 -42.580  1.00  0.00     0.210 C 
ENDBRANCH  19  22
ENDBRANCH  13  16
ENDBRANCH  10  12
ENDBRANCH   8  10
ENDBRANCH   5   8
BRANCH   1  24
HETATM   24  N   UNL     1     -42.138  57.333 -52.353  1.00  0.00    -0.376 N 
HETATM   25  C   UNL     1     -41.784  56.230 -51.445  1.00  0.00     0.143 C 
HETATM   26  C   UNL     1     -41.768  54.892 -52.212  1.00  0.00     0.145 C 
HETATM   27  N   UNL     1     -40.948  54.937 -53.433  1.00  0.00    -0.349 N 
HETATM   28  C   UNL     1     -40.445  53.796 -54.055  1.00  0.00     0.219 C 
HETATM   29  C   UNL     1     -41.164  56.119 -54.279  1.00  0.00     0.145 C 
HETATM   30  O   UNL     1     -40.059  53.811 -55.224  1.00  0.00    -0.273 OA
HETATM   31  C   UNL     1     -41.199  57.444 -53.493  1.00  0.00     0.143 C 
BRANCH  28  32
HETATM   32  C   UNL     1     -40.378  52.530 -53.209  1.00  0.00     0.103 C 
BRANCH  32  33
HETATM   33  C   UNL     1     -39.435  51.462 -53.766  1.00  0.00     0.005 C 
HETATM   34  C   UNL     1     -40.167  50.213 -54.237  1.00  0.00     0.005 C 
ENDBRANCH  32  33
ENDBRANCH  28  32
ENDBRANCH   1  24
TORSDOF 8
ENDMDL
MODEL 4
REMARK VINA RESULT:      -7.8      7.497     11.608
REMARK  8 active torsions:
REMARK  status: ('A' for Active; 'I' for Inactive)
REMARK    1  A    between atoms: C_2  and  C_3 
REMARK    2  A    between atoms: C_3  and  C_4 
REMARK       I    between atoms: C_4  and  N_5 
REMARK    3  A    between atoms: N_8  and  C_9 
REMARK    4  A    between atoms: C_13  and  N_14 
REMARK    5  A    between atoms: N_14  and  C_15 
REMARK    6  A    between atoms: C_15  and  N_16 
REMARK       I    between atoms: N_16  and  C_17 
REMARK    7  A    between atoms: C_17  and  C_18 
REMARK    8  A    between atoms: C_21  and  O_22 
ROOT
HETATM    1  C   UNL     1     -44.839  57.458 -58.508  1.00  0.00     0.052 A 
HETATM    2  C   UNL     1     -43.559  56.872 -58.551  1.00  0.00     0.062 A 
HETATM    3 CL   UNL     1     -42.839  56.203 -59.980  1.00  0.00    -0.082 Cl
HETATM    4  C   UNL     1     -42.725  56.860 -57.416  1.00  0.00     0.055 A 
HETATM    5  C   UNL     1     -43.122  57.438 -56.207  1.00  0.00     0.036 A 
HETATM    6  C   UNL     1     -44.365  58.050 -56.152  1.00  0.00     0.032 A 
HETATM    7  C   UNL     1     -45.207  58.042 -57.276  1.00  0.00     0.033 A 
ENDROOT
BRANCH   5   8
HETATM    8  N   UNL     1     -42.176  57.428 -55.159  1.00  0.00    -0.333 N 
HETATM    9  H   UNL     1     -41.454  58.136 -55.245  1.00  0.00     0.168 HD
BRANCH   8  10
HETATM   10  C   UNL     1     -42.186  56.857 -53.939  1.00  0.00     0.179 C 
HETATM   11  S   UNL     1     -42.277  57.863 -52.598  1.00  0.00    -0.040 SA
BRANCH  10  12
HETATM   12  N   UNL     1     -42.103  55.525 -53.712  1.00  0.00    -0.299 N 
HETATM   13  C   UNL     1     -41.316  54.639 -54.440  1.00  0.00     0.257 C 
HETATM   14  O   UNL     1     -41.149  54.606 -55.649  1.00  0.00    -0.267 OA
HETATM   15  H   UNL     1     -42.091  55.343 -52.716  1.00  0.00     0.171 HD
BRANCH  13  16
HETATM   16  C   UNL     1     -40.718  53.564 -53.610  1.00  0.00     0.032 A 
HETATM   17  C   UNL     1     -40.256  52.401 -54.227  1.00  0.00     0.020 A 
HETATM   18  C   UNL     1     -39.711  51.380 -53.447  1.00  0.00     0.038 A 
HETATM   19  C   UNL     1     -39.592  51.528 -52.062  1.00  0.00     0.068 A 
HETATM   20  C   UNL     1     -40.055  52.695 -51.449  1.00  0.00     0.038 A 
HETATM   21  C   UNL     1     -40.618  53.716 -52.222  1.00  0.00     0.020 A 
BRANCH  19  22
HETATM   22  O   UNL     1     -39.037  50.465 -51.407  1.00  0.00    -0.356 OA
HETATM   23  C   UNL     1     -39.919  49.726 -50.568  1.00  0.00     0.210 C 
ENDBRANCH  19  22
ENDBRANCH  13  16
ENDBRANCH  10  12
ENDBRANCH   8  10
ENDBRANCH   5   8
BRANCH   1  24
HETATM   24  N   UNL     1     -45.794  57.509 -59.533  1.00  0.00    -0.376 N 
HETATM   25  C   UNL     1     -46.754  58.620 -59.628  1.00  0.00     0.143 C 
HETATM   26  C   UNL     1     -47.333  58.705 -61.054  1.00  0.00     0.145 C 
HETATM   27  N   UNL     1     -47.868  57.421 -61.536  1.00  0.00    -0.349 N 
HETATM   28  C   UNL     1     -48.788  57.322 -62.580  1.00  0.00     0.219 C 
HETATM   29  C   UNL     1     -46.995  56.262 -61.303  1.00  0.00     0.145 C 
HETATM   30  O   UNL     1     -48.969  56.267 -63.187  1.00  0.00    -0.273 OA
HETATM   31  C   UNL     1     -46.408  56.208 -59.880  1.00  0.00     0.143 C 
BRANCH  28  32
HETATM   32  C   UNL     1     -49.573  58.583 -62.918  1.00  0.00     0.103 C 
BRANCH  32  33
HETATM   33  C   UNL     1     -50.973  58.625 -62.303  1.00  0.00     0.005 C 
HETATM   34  C   UNL     1     -51.378  60.019 -61.844  1.00  0.00     0.005 C 
ENDBRANCH  32  33
ENDBRANCH  28  32
ENDBRANCH   1  24
TORSDOF 8
ENDMDL
MODEL 5
REMARK VINA RESULT:      -7.6      1.944      2.286
REMARK  8 active torsions:
REMARK  status: ('A' for Active; 'I' for Inactive)
REMARK    1  A    between atoms: C_2  and  C_3 
REMARK    2  A    between atoms: C_3  and  C_4 
REMARK       I    between atoms: C_4  and  N_5 
REMARK    3  A    between atoms: N_8  and  C_9 
REMARK    4  A    between atoms: C_13  and  N_14 
REMARK    5  A    between atoms: N_14  and  C_15 
REMARK    6  A    between atoms: C_15  and  N_16 
REMARK       I    between atoms: N_16  and  C_17 
REMARK    7  A    between atoms: C_17  and  C_18 
REMARK    8  A    between atoms: C_21  and  O_22 
ROOT
HETATM    1  C   UNL     1     -44.083  57.758 -52.314  1.00  0.00     0.052 A 
HETATM    2  C   UNL     1     -44.410  58.716 -53.293  1.00  0.00     0.062 A 
HETATM    3 CL   UNL     1     -43.884  58.643 -54.944  1.00  0.00    -0.082 Cl
HETATM    4  C   UNL     1     -45.276  59.788 -53.002  1.00  0.00     0.055 A 
HETATM    5  C   UNL     1     -45.857  59.941 -51.740  1.00  0.00     0.036 A 
HETATM    6  C   UNL     1     -45.575  58.990 -50.771  1.00  0.00     0.032 A 
HETATM    7  C   UNL     1     -44.693  57.934 -51.053  1.00  0.00     0.033 A 
ENDROOT
BRANCH   5   8
HETATM    8  N   UNL     1     -46.763  61.012 -51.585  1.00  0.00    -0.333 N 
HETATM    9  H   UNL     1     -47.736  60.728 -51.525  1.00  0.00     0.168 HD
BRANCH   8  10
HETATM   10  C   UNL     1     -46.587  62.301 -51.233  1.00  0.00     0.179 C 
HETATM   11  S   UNL     1     -46.871  63.481 -52.391  1.00  0.00    -0.040 SA
BRANCH  10  12
HETATM   12  N   UNL     1     -46.170  62.714 -50.013  1.00  0.00    -0.299 N 
HETATM   13  C   UNL     1     -46.962  62.759 -48.871  1.00  0.00     0.257 C 
HETATM   14  O   UNL     1     -48.121  63.134 -48.780  1.00  0.00    -0.267 OA
HETATM   15  H   UNL     1     -45.232  62.375 -49.834  1.00  0.00     0.171 HD
BRANCH  13  16
HETATM   16  C   UNL     1     -46.229  62.402 -47.631  1.00  0.00     0.032 A 
HETATM   17  C   UNL     1     -46.384  63.195 -46.494  1.00  0.00     0.020 A 
HETATM   18  C   UNL     1     -45.681  62.872 -45.331  1.00  0.00     0.038 A 
HETATM   19  C   UNL     1     -44.856  61.744 -45.288  1.00  0.00     0.068 A 
HETATM   20  C   UNL     1     -44.706  60.952 -46.430  1.00  0.00     0.038 A 
HETATM   21  C   UNL     1     -45.394  61.279 -47.603  1.00  0.00     0.020 A 
BRANCH  19  22
HETATM   22  O   UNL     1     -44.227  61.528 -44.094  1.00  0.00    -0.356 OA
HETATM   23  C   UNL     1     -43.893  62.696 -43.351  1.00  0.00     0.210 C 
ENDBRANCH  19  22
ENDBRANCH  13  16
ENDBRANCH  10  12
ENDBRANCH   8  10
ENDBRANCH   5   8
BRANCH   1  24
HETATM   24  N   UNL     1     -43.209  56.669 -52.437  1.00  0.00    -0.376 N 
HETATM   25  C   UNL     1     -43.440  55.613 -53.436  1.00  0.00     0.143 C 
HETATM   26  C   UNL     1     -42.136  54.836 -53.703  1.00  0.00     0.145 C 
HETATM   27  N   UNL     1     -41.491  54.352 -52.472  1.00  0.00    -0.349 N 
HETATM   28  C   UNL     1     -40.567  53.307 -52.456  1.00  0.00     0.219 C 
HETATM   29  C   UNL     1     -41.396  55.344 -51.393  1.00  0.00     0.145 C 
HETATM   30  O   UNL     1     -39.800  53.135 -51.509  1.00  0.00    -0.273 OA
HETATM   31  C   UNL     1     -42.702  56.126 -51.156  1.00  0.00     0.143 C 
BRANCH  28  32
HETATM   32  C   UNL     1     -40.567  52.377 -53.663  1.00  0.00     0.103 C 
BRANCH  32  33
HETATM   33  C   UNL     1     -39.664  51.153 -53.502  1.00  0.00     0.005 C 
HETATM   34  C   UNL     1     -40.025  50.020 -54.453  1.00  0.00     0.005 C 
ENDBRANCH  32  33
ENDBRANCH  28  32
ENDBRANCH   1  24
TORSDOF 8
ENDMDL
MODEL 6
REMARK VINA RESULT:      -7.3      4.077      6.626
REMARK  8 active torsions:
REMARK  status: ('A' for Active; 'I' for Inactive)
REMARK    1  A    between atoms: C_2  and  C_3 
REMARK    2  A    between atoms: C_3  and  C_4 
REMARK       I    between atoms: C_4  and  N_5 
REMARK    3  A    between atoms: N_8  and  C_9 
REMARK    4  A    between atoms: C_13  and  N_14 
REMARK    5  A    between atoms: N_14  and  C_15 
REMARK    6  A    between atoms: C_15  and  N_16 
REMARK       I    between atoms: N_16  and  C_17 
REMARK    7  A    between atoms: C_17  and  C_18 
REMARK    8  A    between atoms: C_21  and  O_22 
ROOT
HETATM    1  C   UNL     1     -43.063  57.565 -51.518  1.00  0.00     0.052 A 
HETATM    2  C   UNL     1     -42.588  58.890 -51.451  1.00  0.00     0.062 A 
HETATM    3 CL   UNL     1     -40.979  59.373 -51.882  1.00  0.00    -0.082 Cl
HETATM    4  C   UNL     1     -43.441  59.951 -51.092  1.00  0.00     0.055 A 
HETATM    5  C   UNL     1     -44.792  59.742 -50.800  1.00  0.00     0.036 A 
HETATM    6  C   UNL     1     -45.288  58.450 -50.893  1.00  0.00     0.032 A 
HETATM    7  C   UNL     1     -44.433  57.388 -51.228  1.00  0.00     0.033 A 
ENDROOT
BRANCH   5   8
HETATM    8  N   UNL     1     -45.565  60.889 -50.521  1.00  0.00    -0.333 N 
HETATM    9  H   UNL     1     -45.386  61.299 -49.610  1.00  0.00     0.168 HD
BRANCH   8  10
HETATM   10  C   UNL     1     -46.290  61.704 -51.312  1.00  0.00     0.179 C 
HETATM   11  S   UNL     1     -47.011  63.048 -50.611  1.00  0.00    -0.040 SA
BRANCH  10  12
HETATM   12  N   UNL     1     -46.502  61.504 -52.634  1.00  0.00    -0.299 N 
HETATM   13  C   UNL     1     -45.600  61.817 -53.644  1.00  0.00     0.257 C 
HETATM   14  O   UNL     1     -44.906  62.818 -53.743  1.00  0.00    -0.267 OA
HETATM   15  H   UNL     1     -46.971  60.618 -52.779  1.00  0.00     0.171 HD
BRANCH  13  16
HETATM   16  C   UNL     1     -45.600  60.838 -54.759  1.00  0.00     0.032 A 
HETATM   17  C   UNL     1     -45.129  59.544 -54.533  1.00  0.00     0.020 A 
HETATM   18  C   UNL     1     -45.111  58.627 -55.584  1.00  0.00     0.038 A 
HETATM   19  C   UNL     1     -45.592  58.982 -56.848  1.00  0.00     0.068 A 
HETATM   20  C   UNL     1     -46.064  60.279 -57.069  1.00  0.00     0.038 A 
HETATM   21  C   UNL     1     -46.070  61.209 -56.025  1.00  0.00     0.020 A 
BRANCH  19  22
HETATM   22  O   UNL     1     -45.529  57.997 -57.794  1.00  0.00    -0.356 OA
HETATM   23  C   UNL     1     -44.253  57.392 -57.972  1.00  0.00     0.210 C 
ENDBRANCH  19  22
ENDBRANCH  13  16
ENDBRANCH  10  12
ENDBRANCH   8  10
ENDBRANCH   5   8
BRANCH   1  24
HETATM   24  N   UNL     1     -42.332  56.407 -51.815  1.00  0.00    -0.376 N 
HETATM   25  C   UNL     1     -42.262  55.879 -53.187  1.00  0.00     0.143 C 
HETATM   26  C   UNL     1     -41.048  54.940 -53.336  1.00  0.00     0.145 C 
HETATM   27  N   UNL     1     -40.997  53.896 -52.299  1.00  0.00    -0.349 N 
HETATM   28  C   UNL     1     -40.271  52.714 -52.443  1.00  0.00     0.219 C 
HETATM   29  C   UNL     1     -41.231  54.373 -50.929  1.00  0.00     0.145 C 
HETATM   30  O   UNL     1     -39.963  52.020 -51.474  1.00  0.00    -0.273 OA
HETATM   31  C   UNL     1     -42.433  55.329 -50.805  1.00  0.00     0.143 C 
BRANCH  28  32
HETATM   32  C   UNL     1     -39.894  52.314 -53.865  1.00  0.00     0.103 C 
BRANCH  32  33
HETATM   33  C   UNL     1     -40.477  50.970 -54.304  1.00  0.00     0.005 C 
HETATM   34  C   UNL     1     -39.439  49.857 -54.346  1.00  0.00     0.005 C 
ENDBRANCH  32  33
ENDBRANCH  28  32
ENDBRANCH   1  24
TORSDOF 8
ENDMDL
MODEL 7
REMARK VINA RESULT:      -7.3      6.174      8.970
REMARK  8 active torsions:
REMARK  status: ('A' for Active; 'I' for Inactive)
REMARK    1  A    between atoms: C_2  and  C_3 
REMARK    2  A    between atoms: C_3  and  C_4 
REMARK       I    between atoms: C_4  and  N_5 
REMARK    3  A    between atoms: N_8  and  C_9 
REMARK    4  A    between atoms: C_13  and  N_14 
REMARK    5  A    between atoms: N_14  and  C_15 
REMARK    6  A    between atoms: C_15  and  N_16 
REMARK       I    between atoms: N_16  and  C_17 
REMARK    7  A    between atoms: C_17  and  C_18 
REMARK    8  A    between atoms: C_21  and  O_22 
ROOT
HETATM    1  C   UNL     1     -42.570  56.834 -53.363  1.00  0.00     0.052 A 
HETATM    2  C   UNL     1     -42.064  58.148 -53.397  1.00  0.00     0.062 A 
HETATM    3 CL   UNL     1     -40.398  58.559 -53.144  1.00  0.00    -0.082 Cl
HETATM    4  C   UNL     1     -42.891  59.239 -53.726  1.00  0.00     0.055 A 
HETATM    5  C   UNL     1     -44.242  59.067 -54.044  1.00  0.00     0.036 A 
HETATM    6  C   UNL     1     -44.752  57.777 -54.049  1.00  0.00     0.032 A 
HETATM    7  C   UNL     1     -43.934  56.692 -53.698  1.00  0.00     0.033 A 
ENDROOT
BRANCH   5   8
HETATM    8  N   UNL     1     -44.955  60.223 -54.426  1.00  0.00    -0.333 N 
HETATM    9  H   UNL     1     -45.377  60.725 -53.651  1.00  0.00     0.168 HD
BRANCH   8  10
HETATM   10  C   UNL     1     -44.967  60.942 -55.565  1.00  0.00     0.179 C 
HETATM   11  S   UNL     1     -45.283  62.587 -55.456  1.00  0.00    -0.040 SA
BRANCH  10  12
HETATM   12  N   UNL     1     -44.765  60.428 -56.801  1.00  0.00    -0.299 N 
HETATM   13  C   UNL     1     -43.533  60.033 -57.311  1.00  0.00     0.257 C 
HETATM   14  O   UNL     1     -42.459  60.605 -57.198  1.00  0.00    -0.267 OA
HETATM   15  H   UNL     1     -45.517  59.793 -57.039  1.00  0.00     0.171 HD
BRANCH  13  16
HETATM   16  C   UNL     1     -43.611  58.829 -58.174  1.00  0.00     0.032 A 
HETATM   17  C   UNL     1     -43.270  58.933 -59.523  1.00  0.00     0.020 A 
HETATM   18  C   UNL     1     -43.360  57.806 -60.342  1.00  0.00     0.038 A 
HETATM   19  C   UNL     1     -43.754  56.572 -59.815  1.00  0.00     0.068 A 
HETATM   20  C   UNL     1     -44.094  56.474 -58.463  1.00  0.00     0.038 A 
HETATM   21  C   UNL     1     -44.022  57.602 -57.640  1.00  0.00     0.020 A 
BRANCH  19  22
HETATM   22  O   UNL     1     -43.798  55.542 -60.712  1.00  0.00    -0.356 OA
HETATM   23  C   UNL     1     -45.100  55.091 -61.072  1.00  0.00     0.210 C 
ENDBRANCH  19  22
ENDBRANCH  13  16
ENDBRANCH  10  12
ENDBRANCH   8  10
ENDBRANCH   5   8
BRANCH   1  24
HETATM   24  N   UNL     1     -41.887  55.661 -53.014  1.00  0.00    -0.376 N 
HETATM   25  C   UNL     1     -41.338  54.761 -54.041  1.00  0.00     0.143 C 
HETATM   26  C   UNL     1     -40.250  53.855 -53.431  1.00  0.00     0.145 C 
HETATM   27  N   UNL     1     -40.697  53.157 -52.215  1.00  0.00    -0.349 N 
HETATM   28  C   UNL     1     -40.080  52.006 -51.727  1.00  0.00     0.219 C 
HETATM   29  C   UNL     1     -41.399  54.003 -51.240  1.00  0.00     0.145 C 
HETATM   30  O   UNL     1     -40.234  51.630 -50.565  1.00  0.00    -0.273 OA
HETATM   31  C   UNL     1     -42.466  54.917 -51.871  1.00  0.00     0.143 C 
BRANCH  28  32
HETATM   32  C   UNL     1     -39.219  51.223 -52.712  1.00  0.00     0.103 C 
BRANCH  32  33
HETATM   33  C   UNL     1     -39.859  49.921 -53.195  1.00  0.00     0.005 C 
HETATM   34  C   UNL     1     -39.859  49.787 -54.712  1.00  0.00     0.005 C 
ENDBRANCH  32  33
ENDBRANCH  28  32
ENDBRANCH   1  24
TORSDOF 8
ENDMDL
MODEL 8
REMARK VINA RESULT:      -7.2      6.648      9.215
REMARK  8 active torsions:
REMARK  status: ('A' for Active; 'I' for Inactive)
REMARK    1  A    between atoms: C_2  and  C_3 
REMARK    2  A    between atoms: C_3  and  C_4 
REMARK       I    between atoms: C_4  and  N_5 
REMARK    3  A    between atoms: N_8  and  C_9 
REMARK    4  A    between atoms: C_13  and  N_14 
REMARK    5  A    between atoms: N_14  and  C_15 
REMARK    6  A    between atoms: C_15  and  N_16 
REMARK       I    between atoms: N_16  and  C_17 
REMARK    7  A    between atoms: C_17  and  C_18 
REMARK    8  A    between atoms: C_21  and  O_22 
ROOT
HETATM    1  C   UNL     1     -41.986  57.229 -53.678  1.00  0.00     0.052 A 
HETATM    2  C   UNL     1     -43.264  57.595 -54.143  1.00  0.00     0.062 A 
HETATM    3 CL   UNL     1     -44.610  56.506 -54.255  1.00  0.00    -0.082 Cl
HETATM    4  C   UNL     1     -43.562  58.928 -54.484  1.00  0.00     0.055 A 
HETATM    5  C   UNL     1     -42.612  59.946 -54.365  1.00  0.00     0.036 A 
HETATM    6  C   UNL     1     -41.356  59.614 -53.878  1.00  0.00     0.032 A 
HETATM    7  C   UNL     1     -41.052  58.281 -53.560  1.00  0.00     0.033 A 
ENDROOT
BRANCH   5   8
HETATM    8  N   UNL     1     -43.044  61.255 -54.669  1.00  0.00    -0.333 N 
HETATM    9  H   UNL     1     -43.034  61.890 -53.876  1.00  0.00     0.168 HD
BRANCH   8  10
HETATM   10  C   UNL     1     -43.207  61.904 -55.838  1.00  0.00     0.179 C 
HETATM   11  S   UNL     1     -43.477  63.559 -55.791  1.00  0.00    -0.040 SA
BRANCH  10  12
HETATM   12  N   UNL     1     -43.196  61.310 -57.055  1.00  0.00    -0.299 N 
HETATM   13  C   UNL     1     -42.091  60.693 -57.632  1.00  0.00     0.257 C 
HETATM   14  O   UNL     1     -40.933  61.082 -57.632  1.00  0.00    -0.267 OA
HETATM   15  H   UNL     1     -44.058  60.799 -57.199  1.00  0.00     0.171 HD
BRANCH  13  16
HETATM   16  C   UNL     1     -42.435  59.483 -58.418  1.00  0.00     0.032 A 
HETATM   17  C   UNL     1     -42.393  59.538 -59.811  1.00  0.00     0.020 A 
HETATM   18  C   UNL     1     -42.735  58.406 -60.553  1.00  0.00     0.038 A 
HETATM   19  C   UNL     1     -43.083  57.213 -59.912  1.00  0.00     0.068 A 
HETATM   20  C   UNL     1     -43.122  57.163 -58.517  1.00  0.00     0.038 A 
HETATM   21  C   UNL     1     -42.797  58.297 -57.766  1.00  0.00     0.020 A 
BRANCH  19  22
HETATM   22  O   UNL     1     -43.391  56.172 -60.744  1.00  0.00    -0.356 OA
HETATM   23  C   UNL     1     -44.166  55.127 -60.166  1.00  0.00     0.210 C 
ENDBRANCH  19  22
ENDBRANCH  13  16
ENDBRANCH  10  12
ENDBRANCH   8  10
ENDBRANCH   5   8
BRANCH   1  24
HETATM   24  N   UNL     1     -41.528  55.947 -53.344  1.00  0.00    -0.376 N 
HETATM   25  C   UNL     1     -41.230  55.582 -51.950  1.00  0.00     0.143 C 
HETATM   26  C   UNL     1     -41.232  54.049 -51.788  1.00  0.00     0.145 C 
HETATM   27  N   UNL     1     -40.378  53.364 -52.772  1.00  0.00    -0.349 N 
HETATM   28  C   UNL     1     -39.891  52.071 -52.590  1.00  0.00     0.219 C 
HETATM   29  C   UNL     1     -40.537  53.829 -54.158  1.00  0.00     0.145 C 
HETATM   30  O   UNL     1     -39.473  51.396 -53.531  1.00  0.00    -0.273 OA
HETATM   31  C   UNL     1     -40.556  55.363 -54.296  1.00  0.00     0.143 C 
BRANCH  28  32
HETATM   32  C   UNL     1     -39.883  51.540 -51.161  1.00  0.00     0.103 C 
BRANCH  32  33
HETATM   33  C   UNL     1     -39.235  50.162 -51.016  1.00  0.00     0.005 C 
HETATM   34  C   UNL     1     -40.248  49.025 -51.045  1.00  0.00     0.005 C 
ENDBRANCH  32  33
ENDBRANCH  28  32
ENDBRANCH   1  24
TORSDOF 8
ENDMDL
MODEL 9
REMARK VINA RESULT:      -7.2      5.884     10.176
REMARK  8 active torsions:
REMARK  status: ('A' for Active; 'I' for Inactive)
REMARK    1  A    between atoms: C_2  and  C_3 
REMARK    2  A    between atoms: C_3  and  C_4 
REMARK       I    between atoms: C_4  and  N_5 
REMARK    3  A    between atoms: N_8  and  C_9 
REMARK    4  A    between atoms: C_13  and  N_14 
REMARK    5  A    between atoms: N_14  and  C_15 
REMARK    6  A    between atoms: C_15  and  N_16 
REMARK       I    between atoms: N_16  and  C_17 
REMARK    7  A    between atoms: C_17  and  C_18 
REMARK    8  A    between atoms: C_21  and  O_22 
ROOT
HETATM    1  C   UNL     1     -44.538  58.349 -55.467  1.00  0.00     0.052 A 
HETATM    2  C   UNL     1     -43.711  57.269 -55.102  1.00  0.00     0.062 A 
HETATM    3 CL   UNL     1     -43.092  56.093 -56.217  1.00  0.00    -0.082 Cl
HETATM    4  C   UNL     1     -43.255  57.116 -53.778  1.00  0.00     0.055 A 
HETATM    5  C   UNL     1     -43.590  58.030 -52.775  1.00  0.00     0.036 A 
HETATM    6  C   UNL     1     -44.377  59.118 -53.121  1.00  0.00     0.032 A 
HETATM    7  C   UNL     1     -44.851  59.259 -54.434  1.00  0.00     0.033 A 
ENDROOT
BRANCH   5   8
HETATM    8  N   UNL     1     -43.019  57.813 -51.503  1.00  0.00    -0.333 N 
HETATM    9  H   UNL     1     -43.695  57.615 -50.773  1.00  0.00     0.168 HD
BRANCH   8  10
HETATM   10  C   UNL     1     -41.756  57.550 -51.113  1.00  0.00     0.179 C 
HETATM   11  S   UNL     1     -40.767  58.846 -50.716  1.00  0.00    -0.040 SA
BRANCH  10  12
HETATM   12  N   UNL     1     -41.216  56.310 -51.042  1.00  0.00    -0.299 N 
HETATM   13  C   UNL     1     -41.937  55.122 -51.066  1.00  0.00     0.257 C 
HETATM   14  O   UNL     1     -42.986  54.872 -50.492  1.00  0.00    -0.267 OA
HETATM   15  H   UNL     1     -40.365  56.272 -51.591  1.00  0.00     0.171 HD
BRANCH  13  16
HETATM   16  C   UNL     1     -41.251  54.031 -51.802  1.00  0.00     0.032 A 
HETATM   17  C   UNL     1     -40.424  53.151 -51.104  1.00  0.00     0.020 A 
HETATM   18  C   UNL     1     -39.763  52.135 -51.796  1.00  0.00     0.038 A 
HETATM   19  C   UNL     1     -39.951  51.972 -53.173  1.00  0.00     0.068 A 
HETATM   20  C   UNL     1     -40.781  52.856 -53.867  1.00  0.00     0.038 A 
HETATM   21  C   UNL     1     -41.434  53.886 -53.182  1.00  0.00     0.020 A 
BRANCH  19  22
HETATM   22  O   UNL     1     -39.256  50.940 -53.738  1.00  0.00    -0.356 OA
HETATM   23  C   UNL     1     -40.043  49.955 -54.401  1.00  0.00     0.210 C 
ENDBRANCH  19  22
ENDBRANCH  13  16
ENDBRANCH  10  12
ENDBRANCH   8  10
ENDBRANCH   5   8
BRANCH   1  24
HETATM   24  N   UNL     1     -45.103  58.610 -56.723  1.00  0.00    -0.376 N 
HETATM   25  C   UNL     1     -46.222  57.805 -57.240  1.00  0.00     0.143 C 
HETATM   26  C   UNL     1     -46.959  58.571 -58.356  1.00  0.00     0.145 C 
HETATM   27  N   UNL     1     -46.056  59.069 -59.407  1.00  0.00    -0.349 N 
HETATM   28  C   UNL     1     -46.491  59.412 -60.686  1.00  0.00     0.219 C 
HETATM   29  C   UNL     1     -44.842  59.735 -58.914  1.00  0.00     0.145 C 
HETATM   30  O   UNL     1     -45.818  60.125 -61.431  1.00  0.00    -0.273 OA
HETATM   31  C   UNL     1     -44.132  58.965 -57.783  1.00  0.00     0.143 C 
BRANCH  28  32
HETATM   32  C   UNL     1     -47.835  58.843 -61.125  1.00  0.00     0.103 C 
BRANCH  32  33
HETATM   33  C   UNL     1     -47.794  57.354 -61.471  1.00  0.00     0.005 C 
HETATM   34  C   UNL     1     -48.818  56.961 -62.527  1.00  0.00     0.005 C 
ENDBRANCH  32  33
ENDBRANCH  28  32
ENDBRANCH   1  24
TORSDOF 8
ENDMDL
MODEL 10
REMARK VINA RESULT:      -7.1      2.973     10.493
REMARK  8 active torsions:
REMARK  status: ('A' for Active; 'I' for Inactive)
REMARK    1  A    between atoms: C_2  and  C_3 
REMARK    2  A    between atoms: C_3  and  C_4 
REMARK       I    between atoms: C_4  and  N_5 
REMARK    3  A    between atoms: N_8  and  C_9 
REMARK    4  A    between atoms: C_13  and  N_14 
REMARK    5  A    between atoms: N_14  and  C_15 
REMARK    6  A    between atoms: C_15  and  N_16 
REMARK       I    between atoms: N_16  and  C_17 
REMARK    7  A    between atoms: C_17  and  C_18 
REMARK    8  A    between atoms: C_21  and  O_22 
ROOT
HETATM    1  C   UNL     1     -44.212  59.909 -52.354  1.00  0.00     0.052 A 
HETATM    2  C   UNL     1     -42.839  59.639 -52.513  1.00  0.00     0.062 A 
HETATM    3 CL   UNL     1     -41.618  60.078 -51.361  1.00  0.00    -0.082 Cl
HETATM    4  C   UNL     1     -42.364  58.903 -53.615  1.00  0.00     0.055 A 
HETATM    5  C   UNL     1     -43.230  58.399 -54.590  1.00  0.00     0.036 A 
HETATM    6  C   UNL     1     -44.589  58.625 -54.435  1.00  0.00     0.032 A 
HETATM    7  C   UNL     1     -45.061  59.379 -53.349  1.00  0.00     0.033 A 
ENDROOT
BRANCH   5   8
HETATM    8  N   UNL     1     -42.649  57.617 -55.611  1.00  0.00    -0.333 N 
HETATM    9  H   UNL     1     -42.253  58.158 -56.374  1.00  0.00     0.168 HD
BRANCH   8  10
HETATM   10  C   UNL     1     -42.272  56.324 -55.655  1.00  0.00     0.179 C 
HETATM   11  S   UNL     1     -42.854  55.376 -56.911  1.00  0.00    -0.040 SA
BRANCH  10  12
HETATM   12  N   UNL     1     -41.474  55.724 -54.741  1.00  0.00    -0.299 N 
HETATM   13  C   UNL     1     -41.904  55.195 -53.529  1.00  0.00     0.257 C 
HETATM   14  O   UNL     1     -42.710  55.676 -52.747  1.00  0.00    -0.267 OA
HETATM   15  H   UNL     1     -40.787  55.144 -55.208  1.00  0.00     0.171 HD
BRANCH  13  16
HETATM   16  C   UNL     1     -41.189  53.954 -53.141  1.00  0.00     0.032 A 
HETATM   17  C   UNL     1     -40.669  53.126 -54.136  1.00  0.00     0.020 A 
HETATM   18  C   UNL     1     -40.012  51.948 -53.775  1.00  0.00     0.038 A 
HETATM   19  C   UNL     1     -39.840  51.613 -52.428  1.00  0.00     0.068 A 
HETATM   20  C   UNL     1     -40.361  52.447 -51.436  1.00  0.00     0.038 A 
HETATM   21  C   UNL     1     -41.036  53.620 -51.790  1.00  0.00     0.020 A 
BRANCH  19  22
HETATM   22  O   UNL     1     -39.175  50.441 -52.199  1.00  0.00    -0.356 OA
HETATM   23  C   UNL     1     -39.482  49.786 -50.972  1.00  0.00     0.210 C 
ENDBRANCH  19  22
ENDBRANCH  13  16
ENDBRANCH  10  12
ENDBRANCH   8  10
ENDBRANCH   5   8
BRANCH   1  24
HETATM   24  N   UNL     1     -44.828  60.659 -51.342  1.00  0.00    -0.376 N 
HETATM   25  C   UNL     1     -45.368  60.014 -50.135  1.00  0.00     0.143 C 
HETATM   26  C   UNL     1     -45.527  61.049 -49.003  1.00  0.00     0.145 C 
HETATM   27  N   UNL     1     -46.277  62.245 -49.418  1.00  0.00    -0.349 N 
HETATM   28  C   UNL     1     -46.900  63.106 -48.514  1.00  0.00     0.219 C 
HETATM   29  C   UNL     1     -45.867  62.816 -50.708  1.00  0.00     0.145 C 
HETATM   30  O   UNL     1     -47.226  64.251 -48.828  1.00  0.00    -0.273 OA
HETATM   31  C   UNL     1     -45.690  61.763 -51.820  1.00  0.00     0.143 C 
BRANCH  28  32
HETATM   32  C   UNL     1     -47.175  62.551 -47.122  1.00  0.00     0.103 C 
BRANCH  32  33
HETATM   33  C   UNL     1     -46.349  63.212 -46.017  1.00  0.00     0.005 C 
HETATM   34  C   UNL     1     -45.122  62.400 -45.626  1.00  0.00     0.005 C 
ENDBRANCH  32  33
ENDBRANCH  28  32
ENDBRANCH   1  24
TORSDOF 8
ENDMDL
