MODEL 1
REMARK VINA RESULT:      -7.4      0.000      0.000
REMARK  4 active torsions:
REMARK  status: ('A' for Active; 'I' for Inactive)
REMARK    1  A    between atoms: C_2  and  C_3 
REMARK    2  A    between atoms: C_5  and  N_6 
REMARK       I    between atoms: N_6  and  C_7 
REMARK    3  A    between atoms: C_7  and  C_8 
REMARK    4  A    between atoms: C_16  and  O_17 
ROOT
HETATM    1  C   UNL     1     -43.611  56.667 -57.959  1.00  0.00    -0.048 A 
HETATM    2  C   UNL     1     -42.907  55.728 -57.179  1.00  0.00     0.040 A 
HETATM    3  C   UNL     1     -42.963  55.748 -55.780  1.00  0.00     0.069 A 
HETATM    4  C   UNL     1     -43.741  56.720 -55.123  1.00  0.00     0.095 A 
HETATM    5  C   UNL     1     -44.425  57.671 -55.876  1.00  0.00     0.039 A 
HETATM    6  C   UNL     1     -44.351  57.646 -57.273  1.00  0.00     0.011 A 
ENDROOT
BRANCH   3   7
HETATM    7  N   UNL     1     -42.279  54.822 -54.957  1.00  0.00    -0.320 N 
HETATM    8  C   UNL     1     -41.030  54.951 -54.389  1.00  0.00     0.257 C 
HETATM    9  O   UNL     1     -40.291  55.926 -54.428  1.00  0.00    -0.267 OA
HETATM   10  H   UNL     1     -42.856  54.027 -54.699  1.00  0.00     0.169 HD
BRANCH   8  11
HETATM   11  C   UNL     1     -40.585  53.779 -53.607  1.00  0.00     0.051 A 
HETATM   12  C   UNL     1     -40.431  53.843 -52.227  1.00  0.00     0.133 A 
HETATM   13  N   UNL     1     -40.022  52.798 -51.468  1.00  0.00    -0.271 NA
HETATM   14  C   UNL     1     -39.776  51.636 -52.121  1.00  0.00     0.135 A 
HETATM   15  C   UNL     1     -39.922  51.476 -53.493  1.00  0.00     0.029 A 
HETATM   16 BR   UNL     1     -39.554  49.821 -54.315  1.00  0.00    -0.050 Br
HETATM   17  C   UNL     1     -40.341  52.564 -54.251  1.00  0.00     0.039 A 
ENDBRANCH   8  11
ENDBRANCH   3   7
BRANCH   4  18
HETATM   18  O   UNL     1     -43.746  56.644 -53.749  1.00  0.00    -0.354 OA
HETATM   19  C   UNL     1     -43.231  57.765 -53.041  1.00  0.00     0.210 C 
ENDBRANCH   4  18
BRANCH   1  20
HETATM   20  C   UNL     1     -43.559  56.662 -59.498  1.00  0.00    -0.024 C 
HETATM   21  C   UNL     1     -44.524  57.676 -60.156  1.00  0.00     0.019 C 
HETATM   22  C   UNL     1     -43.939  55.255 -60.000  1.00  0.00     0.019 C 
HETATM   23  C   UNL     1     -42.140  57.013 -60.002  1.00  0.00     0.019 C 
ENDBRANCH   1  20
TORSDOF 4
ENDMDL
MODEL 2
REMARK VINA RESULT:      -6.8      2.977      7.166
REMARK  4 active torsions:
REMARK  status: ('A' for Active; 'I' for Inactive)
REMARK    1  A    between atoms: C_2  and  C_3 
REMARK    2  A    between atoms: C_5  and  N_6 
REMARK       I    between atoms: N_6  and  C_7 
REMARK    3  A    between atoms: C_7  and  C_8 
REMARK    4  A    between atoms: C_16  and  O_17 
ROOT
HETATM    1  C   UNL     1     -40.189  51.990 -53.363  1.00  0.00    -0.048 A 
HETATM    2  C   UNL     1     -40.627  52.830 -54.405  1.00  0.00     0.040 A 
HETATM    3  C   UNL     1     -40.973  54.166 -54.174  1.00  0.00     0.069 A 
HETATM    4  C   UNL     1     -40.882  54.700 -52.874  1.00  0.00     0.095 A 
HETATM    5  C   UNL     1     -40.473  53.879 -51.827  1.00  0.00     0.039 A 
HETATM    6  C   UNL     1     -40.141  52.541 -52.070  1.00  0.00     0.011 A 
ENDROOT
BRANCH   3   7
HETATM    7  N   UNL     1     -41.412  55.048 -55.191  1.00  0.00    -0.320 N 
HETATM    8  C   UNL     1     -42.561  54.968 -55.946  1.00  0.00     0.257 C 
HETATM    9  O   UNL     1     -43.468  54.153 -55.840  1.00  0.00    -0.267 OA
HETATM   10  H   UNL     1     -40.830  55.877 -55.267  1.00  0.00     0.169 HD
BRANCH   8  11
HETATM   11  C   UNL     1     -42.708  56.035 -56.958  1.00  0.00     0.051 A 
HETATM   12  C   UNL     1     -43.185  55.764 -58.235  1.00  0.00     0.133 A 
HETATM   13  N   UNL     1     -43.333  56.706 -59.198  1.00  0.00    -0.271 NA
HETATM   14  C   UNL     1     -43.007  57.976 -58.855  1.00  0.00     0.135 A 
HETATM   15  C   UNL     1     -42.542  58.341 -57.598  1.00  0.00     0.029 A 
HETATM   16 BR   UNL     1     -42.111  60.135 -57.215  1.00  0.00    -0.050 Br
HETATM   17  C   UNL     1     -42.396  57.355 -56.628  1.00  0.00     0.039 A 
ENDBRANCH   8  11
ENDBRANCH   3   7
BRANCH   4  18
HETATM   18  O   UNL     1     -41.226  56.027 -52.753  1.00  0.00    -0.354 OA
HETATM   19  C   UNL     1     -41.413  56.526 -51.434  1.00  0.00     0.210 C 
ENDBRANCH   4  18
BRANCH   1  20
HETATM   20  C   UNL     1     -39.806  50.517 -53.598  1.00  0.00    -0.024 C 
HETATM   21  C   UNL     1     -38.477  50.334 -54.366  1.00  0.00     0.019 C 
HETATM   22  C   UNL     1     -40.923  49.841 -54.419  1.00  0.00     0.019 C 
HETATM   23  C   UNL     1     -39.644  49.770 -52.254  1.00  0.00     0.019 C 
ENDBRANCH   1  20
TORSDOF 4
ENDMDL
MODEL 3
REMARK VINA RESULT:      -6.5     15.041     17.948
REMARK  4 active torsions:
REMARK  status: ('A' for Active; 'I' for Inactive)
REMARK    1  A    between atoms: C_2  and  C_3 
REMARK    2  A    between atoms: C_5  and  N_6 
REMARK       I    between atoms: N_6  and  C_7 
REMARK    3  A    between atoms: C_7  and  C_8 
REMARK    4  A    between atoms: C_16  and  O_17 
ROOT
HETATM    1  C   UNL     1     -33.587  40.419 -52.543  1.00  0.00    -0.048 A 
HETATM    2  C   UNL     1     -34.393  40.489 -53.696  1.00  0.00     0.040 A 
HETATM    3  C   UNL     1     -33.865  40.270 -54.974  1.00  0.00     0.069 A 
HETATM    4  C   UNL     1     -32.498  39.966 -55.126  1.00  0.00     0.095 A 
HETATM    5  C   UNL     1     -31.681  39.917 -53.999  1.00  0.00     0.039 A 
HETATM    6  C   UNL     1     -32.220  40.149 -52.729  1.00  0.00     0.011 A 
ENDROOT
BRANCH   3   7
HETATM    7  N   UNL     1     -34.637  40.323 -56.159  1.00  0.00    -0.320 N 
HETATM    8  C   UNL     1     -35.200  41.429 -56.757  1.00  0.00     0.257 C 
HETATM    9  O   UNL     1     -35.085  42.599 -56.417  1.00  0.00    -0.267 OA
HETATM   10  H   UNL     1     -34.668  39.432 -56.645  1.00  0.00     0.169 HD
BRANCH   8  11
HETATM   11  C   UNL     1     -35.984  41.139 -57.976  1.00  0.00     0.051 A 
HETATM   12  C   UNL     1     -36.710  42.130 -58.625  1.00  0.00     0.133 A 
HETATM   13  N   UNL     1     -37.446  41.912 -59.742  1.00  0.00    -0.271 NA
HETATM   14  C   UNL     1     -37.435  40.650 -60.236  1.00  0.00     0.135 A 
HETATM   15  C   UNL     1     -36.723  39.604 -59.664  1.00  0.00     0.029 A 
HETATM   16 BR   UNL     1     -36.771  37.879 -60.422  1.00  0.00    -0.050 Br
HETATM   17  C   UNL     1     -35.977  39.852 -58.517  1.00  0.00     0.039 A 
ENDBRANCH   8  11
ENDBRANCH   3   7
BRANCH   4  18
HETATM   18  O   UNL     1     -32.080  39.750 -56.419  1.00  0.00    -0.354 OA
HETATM   19  C   UNL     1     -30.690  39.520 -56.616  1.00  0.00     0.210 C 
ENDBRANCH   4  18
BRANCH   1  20
HETATM   20  C   UNL     1     -34.150  40.660 -51.130  1.00  0.00    -0.024 C 
HETATM   21  C   UNL     1     -35.392  39.800 -50.799  1.00  0.00     0.019 C 
HETATM   22  C   UNL     1     -34.555  42.142 -51.005  1.00  0.00     0.019 C 
HETATM   23  C   UNL     1     -33.089  40.334 -50.053  1.00  0.00     0.019 C 
ENDBRANCH   1  20
TORSDOF 4
ENDMDL
MODEL 4
REMARK VINA RESULT:      -6.5      3.416      7.248
REMARK  4 active torsions:
REMARK  status: ('A' for Active; 'I' for Inactive)
REMARK    1  A    between atoms: C_2  and  C_3 
REMARK    2  A    between atoms: C_5  and  N_6 
REMARK       I    between atoms: N_6  and  C_7 
REMARK    3  A    between atoms: C_7  and  C_8 
REMARK    4  A    between atoms: C_16  and  O_17 
ROOT
HETATM    1  C   UNL     1     -41.443  55.962 -51.585  1.00  0.00    -0.048 A 
HETATM    2  C   UNL     1     -41.686  55.908 -52.971  1.00  0.00     0.040 A 
HETATM    3  C   UNL     1     -41.556  57.041 -53.783  1.00  0.00     0.069 A 
HETATM    4  C   UNL     1     -41.167  58.270 -53.216  1.00  0.00     0.095 A 
HETATM    5  C   UNL     1     -40.945  58.348 -51.844  1.00  0.00     0.039 A 
HETATM    6  C   UNL     1     -41.090  57.211 -51.042  1.00  0.00     0.011 A 
ENDROOT
BRANCH   3   7
HETATM    7  N   UNL     1     -41.784  57.033 -55.179  1.00  0.00    -0.320 N 
HETATM    8  C   UNL     1     -42.990  56.977 -55.843  1.00  0.00     0.257 C 
HETATM    9  O   UNL     1     -44.112  56.993 -55.353  1.00  0.00    -0.267 OA
HETATM   10  H   UNL     1     -40.936  57.190 -55.715  1.00  0.00     0.169 HD
BRANCH   8  11
HETATM   11  C   UNL     1     -42.882  56.947 -57.317  1.00  0.00     0.051 A 
HETATM   12  C   UNL     1     -43.101  55.778 -58.036  1.00  0.00     0.133 A 
HETATM   13  N   UNL     1     -43.009  55.699 -59.386  1.00  0.00    -0.271 NA
HETATM   14  C   UNL     1     -42.705  56.847 -60.039  1.00  0.00     0.135 A 
HETATM   15  C   UNL     1     -42.491  58.063 -59.403  1.00  0.00     0.029 A 
HETATM   16 BR   UNL     1     -42.070  59.608 -60.397  1.00  0.00    -0.050 Br
HETATM   17  C   UNL     1     -42.588  58.118 -58.017  1.00  0.00     0.039 A 
ENDBRANCH   8  11
ENDBRANCH   3   7
BRANCH   4  18
HETATM   18  O   UNL     1     -41.049  59.319 -54.099  1.00  0.00    -0.354 OA
HETATM   19  C   UNL     1     -42.090  60.289 -54.089  1.00  0.00     0.210 C 
ENDBRANCH   4  18
BRANCH   1  20
HETATM   20  C   UNL     1     -41.583  54.727 -50.675  1.00  0.00    -0.024 C 
HETATM   21  C   UNL     1     -41.072  54.954 -49.234  1.00  0.00     0.019 C 
HETATM   22  C   UNL     1     -40.772  53.568 -51.288  1.00  0.00     0.019 C 
HETATM   23  C   UNL     1     -43.064  54.299 -50.555  1.00  0.00     0.019 C 
ENDBRANCH   1  20
TORSDOF 4
ENDMDL
MODEL 5
REMARK VINA RESULT:      -6.5      3.128      7.092
REMARK  4 active torsions:
REMARK  status: ('A' for Active; 'I' for Inactive)
REMARK    1  A    between atoms: C_2  and  C_3 
REMARK    2  A    between atoms: C_5  and  N_6 
REMARK       I    between atoms: N_6  and  C_7 
REMARK    3  A    between atoms: C_7  and  C_8 
REMARK    4  A    between atoms: C_16  and  O_17 
ROOT
HETATM    1  C   UNL     1     -41.357  55.975 -51.511  1.00  0.00    -0.048 A 
HETATM    2  C   UNL     1     -41.634  55.959 -52.891  1.00  0.00     0.040 A 
HETATM    3  C   UNL     1     -41.523  57.113 -53.676  1.00  0.00     0.069 A 
HETATM    4  C   UNL     1     -41.119  58.326 -53.085  1.00  0.00     0.095 A 
HETATM    5  C   UNL     1     -40.863  58.367 -51.717  1.00  0.00     0.039 A 
HETATM    6  C   UNL     1     -40.990  57.208 -50.943  1.00  0.00     0.011 A 
ENDROOT
BRANCH   3   7
HETATM    7  N   UNL     1     -41.785  57.143 -55.066  1.00  0.00    -0.320 N 
HETATM    8  C   UNL     1     -42.998  57.008 -55.705  1.00  0.00     0.257 C 
HETATM    9  O   UNL     1     -44.104  56.905 -55.190  1.00  0.00    -0.267 OA
HETATM   10  H   UNL     1     -40.967  57.397 -55.613  1.00  0.00     0.169 HD
BRANCH   8  11
HETATM   11  C   UNL     1     -42.926  57.049 -57.180  1.00  0.00     0.051 A 
HETATM   12  C   UNL     1     -42.108  57.959 -57.841  1.00  0.00     0.133 A 
HETATM   13  N   UNL     1     -42.010  58.038 -59.190  1.00  0.00    -0.271 NA
HETATM   14  C   UNL     1     -42.750  57.153 -59.903  1.00  0.00     0.135 A 
HETATM   15  C   UNL     1     -43.578  56.198 -59.326  1.00  0.00     0.029 A 
HETATM   16 BR   UNL     1     -44.572  55.011 -60.399  1.00  0.00    -0.050 Br
HETATM   17  C   UNL     1     -43.663  56.139 -57.939  1.00  0.00     0.039 A 
ENDBRANCH   8  11
ENDBRANCH   3   7
BRANCH   4  18
HETATM   18  O   UNL     1     -41.022  59.399 -53.942  1.00  0.00    -0.354 OA
HETATM   19  C   UNL     1     -42.109  60.316 -53.951  1.00  0.00     0.210 C 
ENDBRANCH   4  18
BRANCH   1  20
HETATM   20  C   UNL     1     -41.476  54.716 -50.632  1.00  0.00    -0.024 C 
HETATM   21  C   UNL     1     -40.652  53.515 -51.150  1.00  0.00     0.019 C 
HETATM   22  C   UNL     1     -42.957  54.287 -50.583  1.00  0.00     0.019 C 
HETATM   23  C   UNL     1     -40.984  55.001 -49.194  1.00  0.00     0.019 C 
ENDBRANCH   1  20
TORSDOF 4
ENDMDL
MODEL 6
REMARK VINA RESULT:      -6.4     15.195     17.458
REMARK  4 active torsions:
REMARK  status: ('A' for Active; 'I' for Inactive)
REMARK    1  A    between atoms: C_2  and  C_3 
REMARK    2  A    between atoms: C_5  and  N_6 
REMARK       I    between atoms: N_6  and  C_7 
REMARK    3  A    between atoms: C_7  and  C_8 
REMARK    4  A    between atoms: C_16  and  O_17 
ROOT
HETATM    1  C   UNL     1     -35.746  40.727 -56.068  1.00  0.00    -0.048 A 
HETATM    2  C   UNL     1     -35.391  40.371 -54.753  1.00  0.00     0.040 A 
HETATM    3  C   UNL     1     -34.052  40.230 -54.368  1.00  0.00     0.069 A 
HETATM    4  C   UNL     1     -33.025  40.453 -55.305  1.00  0.00     0.095 A 
HETATM    5  C   UNL     1     -33.358  40.783 -56.616  1.00  0.00     0.039 A 
HETATM    6  C   UNL     1     -34.700  40.909 -56.991  1.00  0.00     0.011 A 
ENDROOT
BRANCH   3   7
HETATM    7  N   UNL     1     -33.648  39.881 -53.057  1.00  0.00    -0.320 N 
HETATM    8  C   UNL     1     -33.764  40.627 -51.905  1.00  0.00     0.257 C 
HETATM    9  O   UNL     1     -34.305  41.717 -51.775  1.00  0.00    -0.267 OA
HETATM   10  H   UNL     1     -33.333  38.917 -52.990  1.00  0.00     0.169 HD
BRANCH   8  11
HETATM   11  C   UNL     1     -33.207  39.984 -50.696  1.00  0.00     0.051 A 
HETATM   12  C   UNL     1     -31.851  40.057 -50.396  1.00  0.00     0.133 A 
HETATM   13  N   UNL     1     -31.292  39.482 -49.304  1.00  0.00    -0.271 NA
HETATM   14  C   UNL     1     -32.134  38.824 -48.469  1.00  0.00     0.135 A 
HETATM   15  C   UNL     1     -33.503  38.719 -48.681  1.00  0.00     0.029 A 
HETATM   16 BR   UNL     1     -34.595  37.780 -47.465  1.00  0.00    -0.050 Br
HETATM   17  C   UNL     1     -34.052  39.315 -49.810  1.00  0.00     0.039 A 
ENDBRANCH   8  11
ENDBRANCH   3   7
BRANCH   4  18
HETATM   18  O   UNL     1     -31.744  40.309 -54.825  1.00  0.00    -0.354 OA
HETATM   19  C   UNL     1     -30.953  39.275 -55.401  1.00  0.00     0.210 C 
ENDBRANCH   4  18
BRANCH   1  20
HETATM   20  C   UNL     1     -37.213  40.883 -56.511  1.00  0.00    -0.024 C 
HETATM   21  C   UNL     1     -37.808  39.610 -57.157  1.00  0.00     0.019 C 
HETATM   22  C   UNL     1     -37.297  42.022 -57.548  1.00  0.00     0.019 C 
HETATM   23  C   UNL     1     -38.117  41.230 -55.306  1.00  0.00     0.019 C 
ENDBRANCH   1  20
TORSDOF 4
ENDMDL
MODEL 7
REMARK VINA RESULT:      -6.4      4.403      7.459
REMARK  4 active torsions:
REMARK  status: ('A' for Active; 'I' for Inactive)
REMARK    1  A    between atoms: C_2  and  C_3 
REMARK    2  A    between atoms: C_5  and  N_6 
REMARK       I    between atoms: N_6  and  C_7 
REMARK    3  A    between atoms: C_7  and  C_8 
REMARK    4  A    between atoms: C_16  and  O_17 
ROOT
HETATM    1  C   UNL     1     -40.143  51.726 -52.496  1.00  0.00    -0.048 A 
HETATM    2  C   UNL     1     -40.406  53.065 -52.843  1.00  0.00     0.040 A 
HETATM    3  C   UNL     1     -40.640  54.043 -51.869  1.00  0.00     0.069 A 
HETATM    4  C   UNL     1     -40.610  53.695 -50.505  1.00  0.00     0.095 A 
HETATM    5  C   UNL     1     -40.375  52.371 -50.143  1.00  0.00     0.039 A 
HETATM    6  C   UNL     1     -40.153  51.402 -51.128  1.00  0.00     0.011 A 
ENDROOT
BRANCH   3   7
HETATM    7  N   UNL     1     -40.902  55.400 -52.170  1.00  0.00    -0.320 N 
HETATM    8  C   UNL     1     -42.035  55.941 -52.737  1.00  0.00     0.257 C 
HETATM    9  O   UNL     1     -43.072  55.360 -53.030  1.00  0.00    -0.267 OA
HETATM   10  H   UNL     1     -40.183  56.025 -51.817  1.00  0.00     0.169 HD
BRANCH   8  11
HETATM   11  C   UNL     1     -41.978  57.402 -52.956  1.00  0.00     0.051 A 
HETATM   12  C   UNL     1     -41.588  57.938 -54.177  1.00  0.00     0.133 A 
HETATM   13  N   UNL     1     -41.515  59.268 -54.425  1.00  0.00    -0.271 NA
HETATM   14  C   UNL     1     -41.869  60.093 -53.408  1.00  0.00     0.135 A 
HETATM   15  C   UNL     1     -42.289  59.644 -52.162  1.00  0.00     0.029 A 
HETATM   16 BR   UNL     1     -42.758  60.867 -50.807  1.00  0.00    -0.050 Br
HETATM   17  C   UNL     1     -42.352  58.274 -51.932  1.00  0.00     0.039 A 
ENDBRANCH   8  11
ENDBRANCH   3   7
BRANCH   4  18
HETATM   18  O   UNL     1     -40.834  54.730 -49.625  1.00  0.00    -0.354 OA
HETATM   19  C   UNL     1     -40.660  54.447 -48.242  1.00  0.00     0.210 C 
ENDBRANCH   4  18
BRANCH   1  20
HETATM   20  C   UNL     1     -39.885  50.637 -53.554  1.00  0.00    -0.024 C 
HETATM   21  C   UNL     1     -41.120  50.311 -54.426  1.00  0.00     0.019 C 
HETATM   22  C   UNL     1     -39.461  49.340 -52.835  1.00  0.00     0.019 C 
HETATM   23  C   UNL     1     -38.761  51.067 -54.524  1.00  0.00     0.019 C 
ENDBRANCH   1  20
TORSDOF 4
ENDMDL
MODEL 8
REMARK VINA RESULT:      -6.3      4.052      7.823
REMARK  4 active torsions:
REMARK  status: ('A' for Active; 'I' for Inactive)
REMARK    1  A    between atoms: C_2  and  C_3 
REMARK    2  A    between atoms: C_5  and  N_6 
REMARK       I    between atoms: N_6  and  C_7 
REMARK    3  A    between atoms: C_7  and  C_8 
REMARK    4  A    between atoms: C_16  and  O_17 
ROOT
HETATM    1  C   UNL     1     -40.984  53.400 -52.162  1.00  0.00    -0.048 A 
HETATM    2  C   UNL     1     -41.692  54.518 -51.680  1.00  0.00     0.040 A 
HETATM    3  C   UNL     1     -42.593  55.220 -52.491  1.00  0.00     0.069 A 
HETATM    4  C   UNL     1     -42.810  54.808 -53.820  1.00  0.00     0.095 A 
HETATM    5  C   UNL     1     -42.101  53.719 -54.321  1.00  0.00     0.039 A 
HETATM    6  C   UNL     1     -41.195  53.033 -53.503  1.00  0.00     0.011 A 
ENDROOT
BRANCH   3   7
HETATM    7  N   UNL     1     -43.331  56.344 -52.048  1.00  0.00    -0.320 N 
HETATM    8  C   UNL     1     -42.866  57.612 -51.777  1.00  0.00     0.257 C 
HETATM    9  O   UNL     1     -41.730  58.038 -51.932  1.00  0.00    -0.267 OA
HETATM   10  H   UNL     1     -44.333  56.175 -52.041  1.00  0.00     0.169 HD
BRANCH   8  11
HETATM   11  C   UNL     1     -43.897  58.555 -51.293  1.00  0.00     0.051 A 
HETATM   12  C   UNL     1     -45.194  58.136 -51.021  1.00  0.00     0.133 A 
HETATM   13  N   UNL     1     -46.173  58.962 -50.581  1.00  0.00    -0.271 NA
HETATM   14  C   UNL     1     -45.828  60.259 -50.387  1.00  0.00     0.135 A 
HETATM   15  C   UNL     1     -44.553  60.760 -50.614  1.00  0.00     0.029 A 
HETATM   16 BR   UNL     1     -44.168  62.581 -50.320  1.00  0.00    -0.050 Br
HETATM   17  C   UNL     1     -43.566  59.892 -51.069  1.00  0.00     0.039 A 
ENDBRANCH   8  11
ENDBRANCH   3   7
BRANCH   4  18
HETATM   18  O   UNL     1     -43.727  55.551 -54.527  1.00  0.00    -0.354 OA
HETATM   19  C   UNL     1     -43.249  56.232 -55.682  1.00  0.00     0.210 C 
ENDBRANCH   4  18
BRANCH   1  20
HETATM   20  C   UNL     1     -39.988  52.617 -51.287  1.00  0.00    -0.024 C 
HETATM   21  C   UNL     1     -40.664  51.682 -50.258  1.00  0.00     0.019 C 
HETATM   22  C   UNL     1     -39.117  53.624 -50.509  1.00  0.00     0.019 C 
HETATM   23  C   UNL     1     -39.073  51.725 -52.159  1.00  0.00     0.019 C 
ENDBRANCH   1  20
TORSDOF 4
ENDMDL
MODEL 9
REMARK VINA RESULT:      -6.2      3.416      7.264
REMARK  4 active torsions:
REMARK  status: ('A' for Active; 'I' for Inactive)
REMARK    1  A    between atoms: C_2  and  C_3 
REMARK    2  A    between atoms: C_5  and  N_6 
REMARK       I    between atoms: N_6  and  C_7 
REMARK    3  A    between atoms: C_7  and  C_8 
REMARK    4  A    between atoms: C_16  and  O_17 
ROOT
HETATM    1  C   UNL     1     -40.180  51.926 -52.841  1.00  0.00    -0.048 A 
HETATM    2  C   UNL     1     -41.065  52.880 -53.379  1.00  0.00     0.040 A 
HETATM    3  C   UNL     1     -41.325  54.090 -52.725  1.00  0.00     0.069 A 
HETATM    4  C   UNL     1     -40.688  54.377 -51.501  1.00  0.00     0.095 A 
HETATM    5  C   UNL     1     -39.828  53.436 -50.942  1.00  0.00     0.039 A 
HETATM    6  C   UNL     1     -39.587  52.225 -51.602  1.00  0.00     0.011 A 
ENDROOT
BRANCH   3   7
HETATM    7  N   UNL     1     -42.200  55.080 -53.230  1.00  0.00    -0.320 N 
HETATM    8  C   UNL     1     -42.014  55.904 -54.319  1.00  0.00     0.257 C 
HETATM    9  O   UNL     1     -41.080  55.894 -55.109  1.00  0.00    -0.267 OA
HETATM   10  H   UNL     1     -43.103  55.078 -52.764  1.00  0.00     0.169 HD
BRANCH   8  11
HETATM   11  C   UNL     1     -43.113  56.862 -54.561  1.00  0.00     0.051 A 
HETATM   12  C   UNL     1     -43.712  56.979 -55.810  1.00  0.00     0.133 A 
HETATM   13  N   UNL     1     -44.718  57.845 -56.082  1.00  0.00    -0.271 NA
HETATM   14  C   UNL     1     -45.153  58.610 -55.052  1.00  0.00     0.135 A 
HETATM   15  C   UNL     1     -44.626  58.546 -53.768  1.00  0.00     0.029 A 
HETATM   16 BR   UNL     1     -45.294  59.654 -52.397  1.00  0.00    -0.050 Br
HETATM   17  C   UNL     1     -43.592  57.651 -53.514  1.00  0.00     0.039 A 
ENDBRANCH   8  11
ENDBRANCH   3   7
BRANCH   4  18
HETATM   18  O   UNL     1     -40.995  55.599 -50.947  1.00  0.00    -0.354 OA
HETATM   19  C   UNL     1     -41.426  55.601 -49.592  1.00  0.00     0.210 C 
ENDBRANCH   4  18
BRANCH   1  20
HETATM   20  C   UNL     1     -39.885  50.588 -53.545  1.00  0.00    -0.024 C 
HETATM   21  C   UNL     1     -39.640  49.413 -52.570  1.00  0.00     0.019 C 
HETATM   22  C   UNL     1     -38.620  50.755 -54.410  1.00  0.00     0.019 C 
HETATM   23  C   UNL     1     -41.066  50.171 -54.451  1.00  0.00     0.019 C 
ENDBRANCH   1  20
TORSDOF 4
ENDMDL
MODEL 10
REMARK VINA RESULT:      -6.2      2.663      6.884
REMARK  4 active torsions:
REMARK  status: ('A' for Active; 'I' for Inactive)
REMARK    1  A    between atoms: C_2  and  C_3 
REMARK    2  A    between atoms: C_5  and  N_6 
REMARK       I    between atoms: N_6  and  C_7 
REMARK    3  A    between atoms: C_7  and  C_8 
REMARK    4  A    between atoms: C_16  and  O_17 
ROOT
HETATM    1  C   UNL     1     -40.755  52.510 -53.275  1.00  0.00    -0.048 A 
HETATM    2  C   UNL     1     -41.396  53.101 -54.381  1.00  0.00     0.040 A 
HETATM    3  C   UNL     1     -42.179  54.253 -54.245  1.00  0.00     0.069 A 
HETATM    4  C   UNL     1     -42.334  54.851 -52.979  1.00  0.00     0.095 A 
HETATM    5  C   UNL     1     -41.727  54.267 -51.870  1.00  0.00     0.039 A 
HETATM    6  C   UNL     1     -40.957  53.109 -52.019  1.00  0.00     0.011 A 
ENDROOT
BRANCH   3   7
HETATM    7  N   UNL     1     -42.836  54.885 -55.327  1.00  0.00    -0.320 N 
HETATM    8  C   UNL     1     -42.473  56.040 -55.984  1.00  0.00     0.257 C 
HETATM    9  O   UNL     1     -41.468  56.715 -55.805  1.00  0.00    -0.267 OA
HETATM   10  H   UNL     1     -43.605  54.331 -55.695  1.00  0.00     0.169 HD
BRANCH   8  11
HETATM   11  C   UNL     1     -43.401  56.457 -57.057  1.00  0.00     0.051 A 
HETATM   12  C   UNL     1     -44.091  57.662 -56.993  1.00  0.00     0.133 A 
HETATM   13  N   UNL     1     -44.954  58.084 -57.948  1.00  0.00    -0.271 NA
HETATM   14  C   UNL     1     -45.114  57.272 -59.021  1.00  0.00     0.135 A 
HETATM   15  C   UNL     1     -44.451  56.061 -59.177  1.00  0.00     0.029 A 
HETATM   16 BR   UNL     1     -44.740  54.995 -60.704  1.00  0.00    -0.050 Br
HETATM   17  C   UNL     1     -43.572  55.648 -58.182  1.00  0.00     0.039 A 
ENDBRANCH   8  11
ENDBRANCH   3   7
BRANCH   4  18
HETATM   18  O   UNL     1     -43.107  55.989 -52.952  1.00  0.00    -0.354 OA
HETATM   19  C   UNL     1     -43.661  56.362 -51.696  1.00  0.00     0.210 C 
ENDBRANCH   4  18
BRANCH   1  20
HETATM   20  C   UNL     1     -39.892  51.241 -53.405  1.00  0.00    -0.024 C 
HETATM   21  C   UNL     1     -40.549  50.125 -54.250  1.00  0.00     0.019 C 
HETATM   22  C   UNL     1     -39.632  50.674 -51.995  1.00  0.00     0.019 C 
HETATM   23  C   UNL     1     -38.538  51.564 -54.078  1.00  0.00     0.019 C 
ENDBRANCH   1  20
TORSDOF 4
ENDMDL
