MODEL 1
REMARK VINA RESULT:      -8.2      0.000      0.000
REMARK  6 active torsions:
REMARK  status: ('A' for Active; 'I' for Inactive)
REMARK    1  A    between atoms: C_4  and  C_5 
REMARK    2  A    between atoms: C_5  and  N_6 
REMARK    3  A    between atoms: C_5  and  C_10 
REMARK    4  A    between atoms: C_10  and  N_11 
REMARK       I    between atoms: N_11  and  C_12 
REMARK       I    between atoms: C_12  and  N_13 
REMARK    5  A    between atoms: N_13  and  C_14 
REMARK    6  A    between atoms: C_17  and  N_18 
ROOT
HETATM    1  N   UNL     1     -42.250  57.807 -56.301  1.00  0.00    -0.340 N 
HETATM    2  C   UNL     1     -42.353  56.599 -55.641  1.00  0.00     0.320 C 
HETATM    3  N   UNL     1     -41.218  56.331 -54.920  1.00  0.00    -0.309 N 
HETATM    4  O   UNL     1     -43.369  55.923 -55.731  1.00  0.00    -0.247 OA
HETATM    5  H   UNL     1     -41.307  58.084 -56.542  1.00  0.00     0.164 HD
HETATM    6  H   UNL     1     -40.589  57.108 -54.775  1.00  0.00     0.170 HD
ENDROOT
BRANCH   1   7
HETATM    7  C   UNL     1     -43.309  58.208 -57.219  1.00  0.00     0.164 C 
BRANCH   7   8
HETATM    8  C   UNL     1     -42.958  58.056 -58.737  1.00  0.00     0.261 C 
BRANCH   8   9
HETATM    9  C   UNL     1     -43.769  56.931 -59.304  1.00  0.00     0.085 A 
HETATM   10  O   UNL     1     -45.013  57.261 -59.766  1.00  0.00    -0.318 OA
HETATM   11  C   UNL     1     -45.589  56.110 -60.212  1.00  0.00     0.049 A 
HETATM   12  C   UNL     1     -46.970  56.213 -60.727  1.00  0.00     0.076 C 
HETATM   13  C   UNL     1     -44.710  55.056 -60.073  1.00  0.00     0.035 A 
HETATM   14  C   UNL     1     -43.536  55.585 -59.487  1.00  0.00     0.037 A 
ENDBRANCH   8   9
BRANCH   8  15
HETATM   15  N   UNL     1     -43.243  59.364 -59.510  1.00  0.00    -0.067 N 
HETATM   16  H   UNL     1     -44.191  59.250 -59.893  1.00  0.00     0.280 HD
HETATM   17  C   UNL     1     -43.202  60.600 -58.659  1.00  0.00     0.270 C 
HETATM   18  C   UNL     1     -42.326  59.521 -60.700  1.00  0.00     0.270 C 
ENDBRANCH   8  15
ENDBRANCH   7   8
ENDBRANCH   1   7
BRANCH   3  19
HETATM   19  C   UNL     1     -40.872  55.130 -54.270  1.00  0.00     0.036 A 
HETATM   20  C   UNL     1     -41.107  54.878 -52.921  1.00  0.00     0.032 A 
HETATM   21  C   UNL     1     -40.789  53.631 -52.357  1.00  0.00     0.032 A 
HETATM   22  C   UNL     1     -40.225  52.616 -53.137  1.00  0.00     0.040 A 
HETATM   23  C   UNL     1     -39.988  52.874 -54.494  1.00  0.00     0.032 A 
HETATM   24  C   UNL     1     -40.306  54.119 -55.051  1.00  0.00     0.032 A 
BRANCH  22  25
HETATM   25  N   UNL     1     -39.935  51.323 -52.599  1.00  0.00    -0.309 N 
HETATM   26  C   UNL     1     -39.770  50.095 -53.244  1.00  0.00     0.106 A 
HETATM   27  C   UNL     1     -40.043  49.813 -54.677  1.00  0.00     0.091 C 
HETATM   28  N   UNL     1     -39.424  49.147 -52.392  1.00  0.00    -0.246 NA
HETATM   29  C   UNL     1     -39.410  49.728 -51.162  1.00  0.00     0.136 A 
HETATM   30  C   UNL     1     -39.745  51.053 -51.255  1.00  0.00     0.118 A 
ENDBRANCH  22  25
ENDBRANCH   3  19
TORSDOF 6
ENDMDL
MODEL 2
REMARK VINA RESULT:      -7.8      1.201      1.579
REMARK  6 active torsions:
REMARK  status: ('A' for Active; 'I' for Inactive)
REMARK    1  A    between atoms: C_4  and  C_5 
REMARK    2  A    between atoms: C_5  and  N_6 
REMARK    3  A    between atoms: C_5  and  C_10 
REMARK    4  A    between atoms: C_10  and  N_11 
REMARK       I    between atoms: N_11  and  C_12 
REMARK       I    between atoms: C_12  and  N_13 
REMARK    5  A    between atoms: N_13  and  C_14 
REMARK    6  A    between atoms: C_17  and  N_18 
ROOT
HETATM    1  N   UNL     1     -42.692  57.971 -55.847  1.00  0.00    -0.340 N 
HETATM    2  C   UNL     1     -42.688  56.859 -55.029  1.00  0.00     0.320 C 
HETATM    3  N   UNL     1     -41.412  56.396 -54.831  1.00  0.00    -0.309 N 
HETATM    4  O   UNL     1     -43.733  56.417 -54.571  1.00  0.00    -0.247 OA
HETATM    5  H   UNL     1     -41.927  58.019 -56.509  1.00  0.00     0.164 HD
HETATM    6  H   UNL     1     -40.665  57.024 -55.090  1.00  0.00     0.170 HD
ENDROOT
BRANCH   1   7
HETATM    7  C   UNL     1     -43.967  58.534 -56.275  1.00  0.00     0.164 C 
BRANCH   7   8
HETATM    8  C   UNL     1     -43.999  59.048 -57.753  1.00  0.00     0.261 C 
BRANCH   8   9
HETATM    9  C   UNL     1     -43.525  57.946 -58.652  1.00  0.00     0.085 A 
HETATM   10  O   UNL     1     -44.260  56.794 -58.628  1.00  0.00    -0.318 OA
HETATM   11  C   UNL     1     -43.658  55.922 -59.484  1.00  0.00     0.049 A 
HETATM   12  C   UNL     1     -44.259  54.577 -59.596  1.00  0.00     0.076 C 
HETATM   13  C   UNL     1     -42.569  56.521 -60.083  1.00  0.00     0.035 A 
HETATM   14  C   UNL     1     -42.482  57.827 -59.545  1.00  0.00     0.037 A 
ENDBRANCH   8   9
BRANCH   8  15
HETATM   15  N   UNL     1     -45.423  59.495 -58.158  1.00  0.00    -0.067 N 
HETATM   16  H   UNL     1     -45.994  58.640 -58.120  1.00  0.00     0.280 HD
HETATM   17  C   UNL     1     -46.022  60.528 -57.249  1.00  0.00     0.270 C 
HETATM   18  C   UNL     1     -45.472  59.969 -59.591  1.00  0.00     0.270 C 
ENDBRANCH   8  15
ENDBRANCH   7   8
ENDBRANCH   1   7
BRANCH   3  19
HETATM   19  C   UNL     1     -41.019  55.192 -54.214  1.00  0.00     0.036 A 
HETATM   20  C   UNL     1     -41.159  54.930 -52.853  1.00  0.00     0.032 A 
HETATM   21  C   UNL     1     -40.798  53.681 -52.321  1.00  0.00     0.032 A 
HETATM   22  C   UNL     1     -40.286  52.674 -53.144  1.00  0.00     0.040 A 
HETATM   23  C   UNL     1     -40.143  52.942 -54.513  1.00  0.00     0.032 A 
HETATM   24  C   UNL     1     -40.504  54.189 -55.039  1.00  0.00     0.032 A 
BRANCH  22  25
HETATM   25  N   UNL     1     -39.954  51.378 -52.636  1.00  0.00    -0.309 N 
HETATM   26  C   UNL     1     -39.762  50.170 -53.308  1.00  0.00     0.106 A 
HETATM   27  C   UNL     1     -40.042  49.909 -54.744  1.00  0.00     0.091 C 
HETATM   28  N   UNL     1     -39.381  49.215 -52.479  1.00  0.00    -0.246 NA
HETATM   29  C   UNL     1     -39.370  49.770 -51.238  1.00  0.00     0.136 A 
HETATM   30  C   UNL     1     -39.743  51.087 -51.300  1.00  0.00     0.118 A 
ENDBRANCH  22  25
ENDBRANCH   3  19
TORSDOF 6
ENDMDL
MODEL 3
REMARK VINA RESULT:      -7.8      6.354      8.319
REMARK  6 active torsions:
REMARK  status: ('A' for Active; 'I' for Inactive)
REMARK    1  A    between atoms: C_4  and  C_5 
REMARK    2  A    between atoms: C_5  and  N_6 
REMARK    3  A    between atoms: C_5  and  C_10 
REMARK    4  A    between atoms: C_10  and  N_11 
REMARK       I    between atoms: N_11  and  C_12 
REMARK       I    between atoms: C_12  and  N_13 
REMARK    5  A    between atoms: N_13  and  C_14 
REMARK    6  A    between atoms: C_17  and  N_18 
ROOT
HETATM    1  N   UNL     1     -44.653  59.383 -50.323  1.00  0.00    -0.340 N 
HETATM    2  C   UNL     1     -43.720  58.619 -50.996  1.00  0.00     0.320 C 
HETATM    3  N   UNL     1     -43.830  57.295 -50.661  1.00  0.00    -0.309 N 
HETATM    4  O   UNL     1     -42.941  59.139 -51.784  1.00  0.00    -0.247 OA
HETATM    5  H   UNL     1     -44.942  59.012 -49.426  1.00  0.00     0.164 HD
HETATM    6  H   UNL     1     -44.678  57.025 -50.183  1.00  0.00     0.170 HD
ENDROOT
BRANCH   1   7
HETATM    7  C   UNL     1     -44.613  60.834 -50.453  1.00  0.00     0.164 C 
BRANCH   7   8
HETATM    8  C   UNL     1     -45.773  61.594 -49.730  1.00  0.00     0.261 C 
BRANCH   8   9
HETATM    9  C   UNL     1     -45.676  61.327 -48.259  1.00  0.00     0.085 A 
HETATM   10  O   UNL     1     -46.277  60.182 -47.816  1.00  0.00    -0.318 OA
HETATM   11  C   UNL     1     -46.099  60.137 -46.466  1.00  0.00     0.049 A 
HETATM   12  C   UNL     1     -46.704  58.993 -45.752  1.00  0.00     0.076 C 
HETATM   13  C   UNL     1     -45.357  61.223 -46.050  1.00  0.00     0.035 A 
HETATM   14  C   UNL     1     -45.085  61.992 -47.206  1.00  0.00     0.037 A 
ENDBRANCH   8   9
BRANCH   8  15
HETATM   15  N   UNL     1     -45.701  63.114 -50.004  1.00  0.00    -0.067 N 
HETATM   16  H   UNL     1     -45.330  63.527 -49.138  1.00  0.00     0.280 HD
HETATM   17  C   UNL     1     -44.806  63.489 -51.149  1.00  0.00     0.270 C 
HETATM   18  C   UNL     1     -47.075  63.713 -50.199  1.00  0.00     0.270 C 
ENDBRANCH   8  15
ENDBRANCH   7   8
ENDBRANCH   1   7
BRANCH   3  19
HETATM   19  C   UNL     1     -42.951  56.246 -50.993  1.00  0.00     0.036 A 
HETATM   20  C   UNL     1     -41.658  56.123 -50.490  1.00  0.00     0.032 A 
HETATM   21  C   UNL     1     -40.860  55.015 -50.822  1.00  0.00     0.032 A 
HETATM   22  C   UNL     1     -41.344  54.012 -51.668  1.00  0.00     0.040 A 
HETATM   23  C   UNL     1     -42.646  54.140 -52.174  1.00  0.00     0.032 A 
HETATM   24  C   UNL     1     -43.437  55.248 -51.842  1.00  0.00     0.032 A 
BRANCH  22  25
HETATM   25  N   UNL     1     -40.570  52.851 -51.984  1.00  0.00    -0.309 N 
HETATM   26  C   UNL     1     -40.068  52.411 -53.210  1.00  0.00     0.106 A 
HETATM   27  C   UNL     1     -40.385  52.980 -54.545  1.00  0.00     0.091 C 
HETATM   28  N   UNL     1     -39.325  51.329 -53.063  1.00  0.00    -0.246 NA
HETATM   29  C   UNL     1     -39.374  51.010 -51.742  1.00  0.00     0.136 A 
HETATM   30  C   UNL     1     -40.152  51.909 -51.061  1.00  0.00     0.118 A 
ENDBRANCH  22  25
ENDBRANCH   3  19
TORSDOF 6
ENDMDL
MODEL 4
REMARK VINA RESULT:      -7.6      1.083      1.712
REMARK  6 active torsions:
REMARK  status: ('A' for Active; 'I' for Inactive)
REMARK    1  A    between atoms: C_4  and  C_5 
REMARK    2  A    between atoms: C_5  and  N_6 
REMARK    3  A    between atoms: C_5  and  C_10 
REMARK    4  A    between atoms: C_10  and  N_11 
REMARK       I    between atoms: N_11  and  C_12 
REMARK       I    between atoms: C_12  and  N_13 
REMARK    5  A    between atoms: N_13  and  C_14 
REMARK    6  A    between atoms: C_17  and  N_18 
ROOT
HETATM    1  N   UNL     1     -42.122  58.390 -55.303  1.00  0.00    -0.340 N 
HETATM    2  C   UNL     1     -42.286  57.062 -54.962  1.00  0.00     0.320 C 
HETATM    3  N   UNL     1     -41.187  56.582 -54.298  1.00  0.00    -0.309 N 
HETATM    4  O   UNL     1     -43.320  56.470 -55.243  1.00  0.00    -0.247 OA
HETATM    5  H   UNL     1     -41.161  58.680 -55.443  1.00  0.00     0.164 HD
HETATM    6  H   UNL     1     -40.540  57.275 -53.949  1.00  0.00     0.170 HD
ENDROOT
BRANCH   1   7
HETATM    7  C   UNL     1     -43.132  59.044 -56.124  1.00  0.00     0.164 C 
BRANCH   7   8
HETATM    8  C   UNL     1     -42.827  59.060 -57.659  1.00  0.00     0.261 C 
BRANCH   8   9
HETATM    9  C   UNL     1     -43.824  58.184 -58.354  1.00  0.00     0.085 A 
HETATM   10  O   UNL     1     -43.429  56.897 -58.591  1.00  0.00    -0.318 OA
HETATM   11  C   UNL     1     -44.455  56.282 -59.244  1.00  0.00     0.049 A 
HETATM   12  C   UNL     1     -44.241  54.875 -59.645  1.00  0.00     0.076 C 
HETATM   13  C   UNL     1     -45.513  57.154 -59.393  1.00  0.00     0.035 A 
HETATM   14  C   UNL     1     -45.106  58.382 -58.819  1.00  0.00     0.037 A 
ENDBRANCH   8   9
BRANCH   8  15
HETATM   15  N   UNL     1     -42.890  60.497 -58.226  1.00  0.00    -0.067 N 
HETATM   16  H   UNL     1     -43.387  60.412 -59.123  1.00  0.00     0.280 HD
HETATM   17  C   UNL     1     -43.622  61.471 -57.349  1.00  0.00     0.270 C 
HETATM   18  C   UNL     1     -41.515  61.027 -58.558  1.00  0.00     0.270 C 
ENDBRANCH   8  15
ENDBRANCH   7   8
ENDBRANCH   1   7
BRANCH   3  19
HETATM   19  C   UNL     1     -40.904  55.246 -53.953  1.00  0.00     0.036 A 
HETATM   20  C   UNL     1     -40.291  54.333 -54.807  1.00  0.00     0.032 A 
HETATM   21  C   UNL     1     -39.986  53.033 -54.370  1.00  0.00     0.032 A 
HETATM   22  C   UNL     1     -40.296  52.624 -53.070  1.00  0.00     0.040 A 
HETATM   23  C   UNL     1     -40.916  53.545 -52.213  1.00  0.00     0.032 A 
HETATM   24  C   UNL     1     -41.218  54.840 -52.653  1.00  0.00     0.032 A 
BRANCH  22  25
HETATM   25  N   UNL     1     -39.955  51.322 -52.585  1.00  0.00    -0.309 N 
HETATM   26  C   UNL     1     -39.789  50.120 -53.276  1.00  0.00     0.106 A 
HETATM   27  C   UNL     1     -40.113  49.875 -54.705  1.00  0.00     0.091 C 
HETATM   28  N   UNL     1     -39.386  49.154 -52.469  1.00  0.00    -0.246 NA
HETATM   29  C   UNL     1     -39.335  49.697 -51.223  1.00  0.00     0.136 A 
HETATM   30  C   UNL     1     -39.705  51.016 -51.260  1.00  0.00     0.118 A 
ENDBRANCH  22  25
ENDBRANCH   3  19
TORSDOF 6
ENDMDL
MODEL 5
REMARK VINA RESULT:      -7.5      1.496      2.128
REMARK  6 active torsions:
REMARK  status: ('A' for Active; 'I' for Inactive)
REMARK    1  A    between atoms: C_4  and  C_5 
REMARK    2  A    between atoms: C_5  and  N_6 
REMARK    3  A    between atoms: C_5  and  C_10 
REMARK    4  A    between atoms: C_10  and  N_11 
REMARK       I    between atoms: N_11  and  C_12 
REMARK       I    between atoms: C_12  and  N_13 
REMARK    5  A    between atoms: N_13  and  C_14 
REMARK    6  A    between atoms: C_17  and  N_18 
ROOT
HETATM    1  N   UNL     1     -42.985  57.421 -57.579  1.00  0.00    -0.340 N 
HETATM    2  C   UNL     1     -42.403  56.954 -56.418  1.00  0.00     0.320 C 
HETATM    3  N   UNL     1     -42.116  55.617 -56.512  1.00  0.00    -0.309 N 
HETATM    4  O   UNL     1     -42.192  57.710 -55.479  1.00  0.00    -0.247 OA
HETATM    5  H   UNL     1     -43.508  56.730 -58.103  1.00  0.00     0.164 HD
HETATM    6  H   UNL     1     -42.140  55.220 -57.440  1.00  0.00     0.170 HD
ENDROOT
BRANCH   1   7
HETATM    7  C   UNL     1     -43.476  58.792 -57.627  1.00  0.00     0.164 C 
BRANCH   7   8
HETATM    8  C   UNL     1     -44.222  59.181 -58.947  1.00  0.00     0.261 C 
BRANCH   8   9
HETATM    9  C   UNL     1     -45.092  58.033 -59.360  1.00  0.00     0.085 A 
HETATM   10  O   UNL     1     -44.480  57.045 -60.079  1.00  0.00    -0.318 OA
HETATM   11  C   UNL     1     -45.436  56.120 -60.373  1.00  0.00     0.049 A 
HETATM   12  C   UNL     1     -45.013  54.962 -61.190  1.00  0.00     0.076 C 
HETATM   13  C   UNL     1     -46.642  56.490 -59.817  1.00  0.00     0.035 A 
HETATM   14  C   UNL     1     -46.421  57.726 -59.163  1.00  0.00     0.037 A 
ENDBRANCH   8   9
BRANCH   8  15
HETATM   15  N   UNL     1     -45.074  60.456 -58.752  1.00  0.00    -0.067 N 
HETATM   16  H   UNL     1     -46.050  60.146 -58.853  1.00  0.00     0.280 HD
HETATM   17  C   UNL     1     -44.902  61.110 -57.411  1.00  0.00     0.270 C 
HETATM   18  C   UNL     1     -44.837  61.460 -59.855  1.00  0.00     0.270 C 
ENDBRANCH   8  15
ENDBRANCH   7   8
ENDBRANCH   1   7
BRANCH   3  19
HETATM   19  C   UNL     1     -41.690  54.752 -55.484  1.00  0.00     0.036 A 
HETATM   20  C   UNL     1     -42.509  54.314 -54.445  1.00  0.00     0.032 A 
HETATM   21  C   UNL     1     -42.029  53.403 -53.489  1.00  0.00     0.032 A 
HETATM   22  C   UNL     1     -40.719  52.920 -53.554  1.00  0.00     0.040 A 
HETATM   23  C   UNL     1     -39.897  53.365 -54.600  1.00  0.00     0.032 A 
HETATM   24  C   UNL     1     -40.379  54.274 -55.550  1.00  0.00     0.032 A 
BRANCH  22  25
HETATM   25  N   UNL     1     -40.221  51.957 -52.621  1.00  0.00    -0.309 N 
HETATM   26  C   UNL     1     -40.075  52.039 -51.234  1.00  0.00     0.106 A 
HETATM   27  C   UNL     1     -40.246  53.259 -50.404  1.00  0.00     0.091 C 
HETATM   28  N   UNL     1     -39.655  50.894 -50.727  1.00  0.00    -0.246 NA
HETATM   29  C   UNL     1     -39.467  50.057 -51.782  1.00  0.00     0.136 A 
HETATM   30  C   UNL     1     -39.780  50.690 -52.957  1.00  0.00     0.118 A 
ENDBRANCH  22  25
ENDBRANCH   3  19
TORSDOF 6
ENDMDL
MODEL 6
REMARK VINA RESULT:      -7.5      2.440      3.435
REMARK  6 active torsions:
REMARK  status: ('A' for Active; 'I' for Inactive)
REMARK    1  A    between atoms: C_4  and  C_5 
REMARK    2  A    between atoms: C_5  and  N_6 
REMARK    3  A    between atoms: C_5  and  C_10 
REMARK    4  A    between atoms: C_10  and  N_11 
REMARK       I    between atoms: N_11  and  C_12 
REMARK       I    between atoms: C_12  and  N_13 
REMARK    5  A    between atoms: N_13  and  C_14 
REMARK    6  A    between atoms: C_17  and  N_18 
ROOT
HETATM    1  N   UNL     1     -43.881  55.870 -58.264  1.00  0.00    -0.340 N 
HETATM    2  C   UNL     1     -43.058  55.886 -57.155  1.00  0.00     0.320 C 
HETATM    3  N   UNL     1     -43.232  54.758 -56.394  1.00  0.00    -0.309 N 
HETATM    4  O   UNL     1     -42.291  56.819 -56.961  1.00  0.00    -0.247 OA
HETATM    5  H   UNL     1     -44.742  55.350 -58.150  1.00  0.00     0.164 HD
HETATM    6  H   UNL     1     -43.728  53.996 -56.834  1.00  0.00     0.170 HD
ENDROOT
BRANCH   1   7
HETATM    7  C   UNL     1     -43.929  57.042 -59.129  1.00  0.00     0.164 C 
BRANCH   7   8
HETATM    8  C   UNL     1     -45.204  57.933 -58.962  1.00  0.00     0.261 C 
BRANCH   8   9
HETATM    9  C   UNL     1     -46.230  57.493 -59.962  1.00  0.00     0.085 A 
HETATM   10  O   UNL     1     -46.852  58.489 -60.662  1.00  0.00    -0.318 OA
HETATM   11  C   UNL     1     -47.753  57.889 -61.489  1.00  0.00     0.049 A 
HETATM   12  C   UNL     1     -48.583  58.779 -62.327  1.00  0.00     0.076 C 
HETATM   13  C   UNL     1     -47.685  56.518 -61.350  1.00  0.00     0.035 A 
HETATM   14  C   UNL     1     -46.703  56.262 -60.363  1.00  0.00     0.037 A 
ENDBRANCH   8   9
BRANCH   8  15
HETATM   15  N   UNL     1     -45.775  57.830 -57.529  1.00  0.00    -0.067 N 
HETATM   16  H   UNL     1     -45.580  56.864 -57.230  1.00  0.00     0.280 HD
HETATM   17  C   UNL     1     -45.150  58.782 -56.550  1.00  0.00     0.270 C 
HETATM   18  C   UNL     1     -47.278  57.978 -57.513  1.00  0.00     0.270 C 
ENDBRANCH   8  15
ENDBRANCH   7   8
ENDBRANCH   1   7
BRANCH   3  19
HETATM   19  C   UNL     1     -42.715  54.497 -55.111  1.00  0.00     0.036 A 
HETATM   20  C   UNL     1     -41.385  54.164 -54.858  1.00  0.00     0.032 A 
HETATM   21  C   UNL     1     -40.929  53.977 -53.543  1.00  0.00     0.032 A 
HETATM   22  C   UNL     1     -41.800  54.113 -52.457  1.00  0.00     0.040 A 
HETATM   23  C   UNL     1     -43.138  54.445 -52.715  1.00  0.00     0.032 A 
HETATM   24  C   UNL     1     -43.588  54.631 -54.028  1.00  0.00     0.032 A 
BRANCH  22  25
HETATM   25  N   UNL     1     -41.351  53.973 -51.106  1.00  0.00    -0.309 N 
HETATM   26  C   UNL     1     -40.471  53.047 -50.542  1.00  0.00     0.106 A 
HETATM   27  C   UNL     1     -39.916  51.841 -51.210  1.00  0.00     0.091 C 
HETATM   28  N   UNL     1     -40.249  53.311 -49.267  1.00  0.00    -0.246 NA
HETATM   29  C   UNL     1     -41.025  54.385 -48.960  1.00  0.00     0.136 A 
HETATM   30  C   UNL     1     -41.731  54.795 -50.061  1.00  0.00     0.118 A 
ENDBRANCH  22  25
ENDBRANCH   3  19
TORSDOF 6
ENDMDL
MODEL 7
REMARK VINA RESULT:      -7.4      2.386      9.592
REMARK  6 active torsions:
REMARK  status: ('A' for Active; 'I' for Inactive)
REMARK    1  A    between atoms: C_4  and  C_5 
REMARK    2  A    between atoms: C_5  and  N_6 
REMARK    3  A    between atoms: C_5  and  C_10 
REMARK    4  A    between atoms: C_10  and  N_11 
REMARK       I    between atoms: N_11  and  C_12 
REMARK       I    between atoms: C_12  and  N_13 
REMARK    5  A    between atoms: N_13  and  C_14 
REMARK    6  A    between atoms: C_17  and  N_18 
ROOT
HETATM    1  N   UNL     1     -41.099  55.037 -55.480  1.00  0.00    -0.340 N 
HETATM    2  C   UNL     1     -42.129  55.832 -55.943  1.00  0.00     0.320 C 
HETATM    3  N   UNL     1     -42.382  55.590 -57.269  1.00  0.00    -0.309 N 
HETATM    4  O   UNL     1     -42.697  56.615 -55.194  1.00  0.00    -0.247 OA
HETATM    5  H   UNL     1     -40.421  54.763 -56.180  1.00  0.00     0.164 HD
HETATM    6  H   UNL     1     -41.978  54.749 -57.653  1.00  0.00     0.170 HD
ENDROOT
BRANCH   1   7
HETATM    7  C   UNL     1     -40.601  55.236 -54.125  1.00  0.00     0.164 C 
BRANCH   7   8
HETATM    8  C   UNL     1     -41.338  54.406 -53.022  1.00  0.00     0.261 C 
BRANCH   8   9
HETATM    9  C   UNL     1     -40.587  53.128 -52.803  1.00  0.00     0.085 A 
HETATM   10  O   UNL     1     -40.551  52.265 -53.863  1.00  0.00    -0.318 OA
HETATM   11  C   UNL     1     -39.851  51.169 -53.457  1.00  0.00     0.049 A 
HETATM   12  C   UNL     1     -39.713  50.069 -54.434  1.00  0.00     0.076 C 
HETATM   13  C   UNL     1     -39.410  51.341 -52.162  1.00  0.00     0.035 A 
HETATM   14  C   UNL     1     -39.885  52.605 -51.739  1.00  0.00     0.037 A 
ENDBRANCH   8   9
BRANCH   8  15
HETATM   15  N   UNL     1     -41.438  55.201 -51.699  1.00  0.00    -0.067 N 
HETATM   16  H   UNL     1     -40.637  54.887 -51.134  1.00  0.00     0.280 HD
HETATM   17  C   UNL     1     -41.365  56.691 -51.871  1.00  0.00     0.270 C 
HETATM   18  C   UNL     1     -42.675  54.827 -50.915  1.00  0.00     0.270 C 
ENDBRANCH   8  15
ENDBRANCH   7   8
ENDBRANCH   1   7
BRANCH   3  19
HETATM   19  C   UNL     1     -43.222  56.320 -58.132  1.00  0.00     0.036 A 
HETATM   20  C   UNL     1     -43.200  56.207 -59.521  1.00  0.00     0.032 A 
HETATM   21  C   UNL     1     -44.111  56.925 -60.314  1.00  0.00     0.032 A 
HETATM   22  C   UNL     1     -45.057  57.772 -59.729  1.00  0.00     0.040 A 
HETATM   23  C   UNL     1     -45.074  57.885 -58.331  1.00  0.00     0.032 A 
HETATM   24  C   UNL     1     -44.163  57.169 -57.544  1.00  0.00     0.032 A 
BRANCH  22  25
HETATM   25  N   UNL     1     -46.026  58.478 -60.510  1.00  0.00    -0.309 N 
HETATM   26  C   UNL     1     -47.222  58.033 -61.077  1.00  0.00     0.106 A 
HETATM   27  C   UNL     1     -47.691  56.625 -61.147  1.00  0.00     0.091 C 
HETATM   28  N   UNL     1     -47.877  59.024 -61.655  1.00  0.00    -0.246 NA
HETATM   29  C   UNL     1     -47.092  60.127 -61.523  1.00  0.00     0.136 A 
HETATM   30  C   UNL     1     -45.939  59.816 -60.850  1.00  0.00     0.118 A 
ENDBRANCH  22  25
ENDBRANCH   3  19
TORSDOF 6
ENDMDL
MODEL 8
REMARK VINA RESULT:      -7.4      2.676      3.964
REMARK  6 active torsions:
REMARK  status: ('A' for Active; 'I' for Inactive)
REMARK    1  A    between atoms: C_4  and  C_5 
REMARK    2  A    between atoms: C_5  and  N_6 
REMARK    3  A    between atoms: C_5  and  C_10 
REMARK    4  A    between atoms: C_10  and  N_11 
REMARK       I    between atoms: N_11  and  C_12 
REMARK       I    between atoms: C_12  and  N_13 
REMARK    5  A    between atoms: N_13  and  C_14 
REMARK    6  A    between atoms: C_17  and  N_18 
ROOT
HETATM    1  N   UNL     1     -43.685  55.424 -58.130  1.00  0.00    -0.340 N 
HETATM    2  C   UNL     1     -42.982  55.618 -56.958  1.00  0.00     0.320 C 
HETATM    3  N   UNL     1     -42.956  54.475 -56.202  1.00  0.00    -0.309 N 
HETATM    4  O   UNL     1     -42.467  56.701 -56.711  1.00  0.00    -0.247 OA
HETATM    5  H   UNL     1     -44.411  54.719 -58.082  1.00  0.00     0.164 HD
HETATM    6  H   UNL     1     -43.227  53.623 -56.673  1.00  0.00     0.170 HD
ENDROOT
BRANCH   1   7
HETATM    7  C   UNL     1     -43.928  56.560 -59.010  1.00  0.00     0.164 C 
BRANCH   7   8
HETATM    8  C   UNL     1     -45.427  56.786 -59.397  1.00  0.00     0.261 C 
BRANCH   8   9
HETATM    9  C   UNL     1     -45.755  58.237 -59.214  1.00  0.00     0.085 A 
HETATM   10  O   UNL     1     -46.928  58.510 -58.568  1.00  0.00    -0.318 OA
HETATM   11  C   UNL     1     -47.050  59.866 -58.526  1.00  0.00     0.049 A 
HETATM   12  C   UNL     1     -48.277  60.405 -57.901  1.00  0.00     0.076 C 
HETATM   13  C   UNL     1     -45.949  60.461 -59.106  1.00  0.00     0.035 A 
HETATM   14  C   UNL     1     -45.113  59.409 -59.552  1.00  0.00     0.037 A 
ENDBRANCH   8   9
BRANCH   8  15
HETATM   15  N   UNL     1     -45.698  56.357 -60.858  1.00  0.00    -0.067 N 
HETATM   16  H   UNL     1     -45.298  57.107 -61.438  1.00  0.00     0.280 HD
HETATM   17  C   UNL     1     -45.064  55.050 -61.240  1.00  0.00     0.270 C 
HETATM   18  C   UNL     1     -47.176  56.329 -61.167  1.00  0.00     0.270 C 
ENDBRANCH   8  15
ENDBRANCH   7   8
ENDBRANCH   1   7
BRANCH   3  19
HETATM   19  C   UNL     1     -42.501  54.328 -54.877  1.00  0.00     0.036 A 
HETATM   20  C   UNL     1     -41.183  54.035 -54.533  1.00  0.00     0.032 A 
HETATM   21  C   UNL     1     -40.791  53.963 -53.186  1.00  0.00     0.032 A 
HETATM   22  C   UNL     1     -41.715  54.179 -52.159  1.00  0.00     0.040 A 
HETATM   23  C   UNL     1     -43.042  54.471 -52.509  1.00  0.00     0.032 A 
HETATM   24  C   UNL     1     -43.428  54.540 -53.853  1.00  0.00     0.032 A 
BRANCH  22  25
HETATM   25  N   UNL     1     -41.333  54.158 -50.781  1.00  0.00    -0.309 N 
HETATM   26  C   UNL     1     -40.635  53.189 -50.055  1.00  0.00     0.106 A 
HETATM   27  C   UNL     1     -40.271  51.829 -50.529  1.00  0.00     0.091 C 
HETATM   28  N   UNL     1     -40.406  53.589 -48.818  1.00  0.00    -0.246 NA
HETATM   29  C   UNL     1     -41.000  54.807 -48.696  1.00  0.00     0.136 A 
HETATM   30  C   UNL     1     -41.599  55.168 -49.874  1.00  0.00     0.118 A 
ENDBRANCH  22  25
ENDBRANCH   3  19
TORSDOF 6
ENDMDL
MODEL 9
REMARK VINA RESULT:      -7.3      2.560      4.358
REMARK  6 active torsions:
REMARK  status: ('A' for Active; 'I' for Inactive)
REMARK    1  A    between atoms: C_4  and  C_5 
REMARK    2  A    between atoms: C_5  and  N_6 
REMARK    3  A    between atoms: C_5  and  C_10 
REMARK    4  A    between atoms: C_10  and  N_11 
REMARK       I    between atoms: N_11  and  C_12 
REMARK       I    between atoms: C_12  and  N_13 
REMARK    5  A    between atoms: N_13  and  C_14 
REMARK    6  A    between atoms: C_17  and  N_18 
ROOT
HETATM    1  N   UNL     1     -43.879  55.212 -58.058  1.00  0.00    -0.340 N 
HETATM    2  C   UNL     1     -43.038  55.369 -56.974  1.00  0.00     0.320 C 
HETATM    3  N   UNL     1     -43.214  54.360 -56.062  1.00  0.00    -0.309 N 
HETATM    4  O   UNL     1     -42.256  56.309 -56.922  1.00  0.00    -0.247 OA
HETATM    5  H   UNL     1     -44.745  54.725 -57.861  1.00  0.00     0.164 HD
HETATM    6  H   UNL     1     -43.726  53.552 -56.385  1.00  0.00     0.170 HD
ENDROOT
BRANCH   1   7
HETATM    7  C   UNL     1     -43.928  56.253 -59.077  1.00  0.00     0.164 C 
BRANCH   7   8
HETATM    8  C   UNL     1     -44.575  57.600 -58.614  1.00  0.00     0.261 C 
BRANCH   8   9
HETATM    9  C   UNL     1     -43.761  58.734 -59.159  1.00  0.00     0.085 A 
HETATM   10  O   UNL     1     -42.890  59.321 -58.285  1.00  0.00    -0.318 OA
HETATM   11  C   UNL     1     -42.273  60.332 -58.960  1.00  0.00     0.049 A 
HETATM   12  C   UNL     1     -41.302  61.146 -58.198  1.00  0.00     0.076 C 
HETATM   13  C   UNL     1     -42.716  60.370 -60.265  1.00  0.00     0.035 A 
HETATM   14  C   UNL     1     -43.677  59.340 -60.394  1.00  0.00     0.037 A 
ENDBRANCH   8   9
BRANCH   8  15
HETATM   15  N   UNL     1     -46.040  57.711 -59.098  1.00  0.00    -0.067 N 
HETATM   16  H   UNL     1     -46.067  58.557 -59.682  1.00  0.00     0.280 HD
HETATM   17  C   UNL     1     -46.508  56.538 -59.909  1.00  0.00     0.270 C 
HETATM   18  C   UNL     1     -46.989  57.964 -57.950  1.00  0.00     0.270 C 
ENDBRANCH   8  15
ENDBRANCH   7   8
ENDBRANCH   1   7
BRANCH   3  19
HETATM   19  C   UNL     1     -42.678  54.271 -54.763  1.00  0.00     0.036 A 
HETATM   20  C   UNL     1     -41.364  53.901 -54.484  1.00  0.00     0.032 A 
HETATM   21  C   UNL     1     -40.885  53.894 -53.163  1.00  0.00     0.032 A 
HETATM   22  C   UNL     1     -41.717  54.251 -52.098  1.00  0.00     0.040 A 
HETATM   23  C   UNL     1     -43.040  54.620 -52.382  1.00  0.00     0.032 A 
HETATM   24  C   UNL     1     -43.514  54.625 -53.700  1.00  0.00     0.032 A 
BRANCH  22  25
HETATM   25  N   UNL     1     -41.242  54.296 -50.750  1.00  0.00    -0.309 N 
HETATM   26  C   UNL     1     -41.107  55.380 -49.878  1.00  0.00     0.106 A 
HETATM   27  C   UNL     1     -41.270  56.814 -50.228  1.00  0.00     0.091 C 
HETATM   28  N   UNL     1     -40.709  54.986 -48.682  1.00  0.00    -0.246 NA
HETATM   29  C   UNL     1     -40.523  53.642 -48.766  1.00  0.00     0.136 A 
HETATM   30  C   UNL     1     -40.815  53.196 -50.028  1.00  0.00     0.118 A 
ENDBRANCH  22  25
ENDBRANCH   3  19
TORSDOF 6
ENDMDL
MODEL 10
REMARK VINA RESULT:      -7.2      3.578      4.997
REMARK  6 active torsions:
REMARK  status: ('A' for Active; 'I' for Inactive)
REMARK    1  A    between atoms: C_4  and  C_5 
REMARK    2  A    between atoms: C_5  and  N_6 
REMARK    3  A    between atoms: C_5  and  C_10 
REMARK    4  A    between atoms: C_10  and  N_11 
REMARK       I    between atoms: N_11  and  C_12 
REMARK       I    between atoms: C_12  and  N_13 
REMARK    5  A    between atoms: N_13  and  C_14 
REMARK    6  A    between atoms: C_17  and  N_18 
ROOT
HETATM    1  N   UNL     1     -42.770  58.439 -50.964  1.00  0.00    -0.340 N 
HETATM    2  C   UNL     1     -42.766  57.092 -51.267  1.00  0.00     0.320 C 
HETATM    3  N   UNL     1     -41.504  56.565 -51.167  1.00  0.00    -0.309 N 
HETATM    4  O   UNL     1     -43.805  56.516 -51.564  1.00  0.00    -0.247 OA
HETATM    5  H   UNL     1     -41.901  58.922 -51.154  1.00  0.00     0.164 HD
HETATM    6  H   UNL     1     -40.823  57.132 -50.682  1.00  0.00     0.170 HD
ENDROOT
BRANCH   1   7
HETATM    7  C   UNL     1     -43.999  59.203 -51.135  1.00  0.00     0.164 C 
BRANCH   7   8
HETATM    8  C   UNL     1     -43.961  60.268 -52.280  1.00  0.00     0.261 C 
BRANCH   8   9
HETATM    9  C   UNL     1     -44.169  59.569 -53.590  1.00  0.00     0.085 A 
HETATM   10  O   UNL     1     -43.099  58.866 -54.070  1.00  0.00    -0.318 OA
HETATM   11  C   UNL     1     -43.481  58.334 -55.265  1.00  0.00     0.049 A 
HETATM   12  C   UNL     1     -42.463  57.553 -56.001  1.00  0.00     0.076 C 
HETATM   13  C   UNL     1     -44.794  58.660 -55.533  1.00  0.00     0.035 A 
HETATM   14  C   UNL     1     -45.238  59.458 -54.452  1.00  0.00     0.037 A 
ENDBRANCH   8   9
BRANCH   8  15
HETATM   15  N   UNL     1     -45.046  61.350 -52.073  1.00  0.00    -0.067 N 
HETATM   16  H   UNL     1     -45.844  61.044 -52.645  1.00  0.00     0.280 HD
HETATM   17  C   UNL     1     -45.492  61.506 -50.648  1.00  0.00     0.270 C 
HETATM   18  C   UNL     1     -44.616  62.685 -52.634  1.00  0.00     0.270 C 
ENDBRANCH   8  15
ENDBRANCH   7   8
ENDBRANCH   1   7
BRANCH   3  19
HETATM   19  C   UNL     1     -41.069  55.287 -51.569  1.00  0.00     0.036 A 
HETATM   20  C   UNL     1     -40.713  54.271 -50.685  1.00  0.00     0.032 A 
HETATM   21  C   UNL     1     -40.347  53.001 -51.160  1.00  0.00     0.032 A 
HETATM   22  C   UNL     1     -40.325  52.729 -52.532  1.00  0.00     0.040 A 
HETATM   23  C   UNL     1     -40.680  53.756 -53.418  1.00  0.00     0.032 A 
HETATM   24  C   UNL     1     -41.045  55.021 -52.940  1.00  0.00     0.032 A 
BRANCH  22  25
HETATM   25  N   UNL     1     -40.000  51.432 -53.040  1.00  0.00    -0.309 N 
HETATM   26  C   UNL     1     -39.742  50.239 -52.362  1.00  0.00     0.106 A 
HETATM   27  C   UNL     1     -39.568  50.081 -50.895  1.00  0.00     0.091 C 
HETATM   28  N   UNL     1     -39.565  49.237 -53.205  1.00  0.00    -0.246 NA
HETATM   29  C   UNL     1     -39.650  49.771 -54.453  1.00  0.00     0.136 A 
HETATM   30  C   UNL     1     -39.889  51.118 -54.382  1.00  0.00     0.118 A 
ENDBRANCH  22  25
ENDBRANCH   3  19
TORSDOF 6
ENDMDL
