MODEL 1
REMARK VINA RESULT:      -7.4      0.000      0.000
REMARK  4 active torsions:
REMARK  status: ('A' for Active; 'I' for Inactive)
REMARK    1  A    between atoms: C_2  and  C_3 
REMARK    2  A    between atoms: C_3  and  C_4 
REMARK    3  A    between atoms: C_4  and  C_5 
REMARK    4  A    between atoms: C_25  and  N_26 
ROOT
HETATM    1  C   UNL     1     -41.166  54.218 -53.081  1.00  0.00     0.067 A 
HETATM    2  N   UNL     1     -41.089  53.456 -54.186  1.00  0.00    -0.177 NA
HETATM    3  N   UNL     1     -42.075  53.915 -54.980  1.00  0.00    -0.256 N 
HETATM    4  H   UNL     1     -42.230  53.468 -55.877  1.00  0.00     0.191 HD
HETATM    5  C   UNL     1     -42.762  54.940 -54.420  1.00  0.00     0.176 A 
HETATM    6  C   UNL     1     -42.182  55.201 -53.203  1.00  0.00     0.049 A 
HETATM    7  C   UNL     1     -42.738  56.292 -52.353  1.00  0.00     0.144 A 
HETATM    8  C   UNL     1     -43.032  55.798 -50.910  1.00  0.00     0.246 A 
HETATM    9  O   UNL     1     -43.861  54.975 -50.556  1.00  0.00    -0.271 OA
HETATM   10  N   UNL     1     -42.183  56.494 -50.057  1.00  0.00    -0.325 N 
HETATM   11  C   UNL     1     -41.372  57.378 -50.754  1.00  0.00     0.043 A 
HETATM   12  C   UNL     1     -41.634  57.312 -52.131  1.00  0.00     0.003 A 
HETATM   13  C   UNL     1     -40.428  58.219 -50.203  1.00  0.00     0.030 A 
HETATM   14  C   UNL     1     -39.712  59.033 -51.077  1.00  0.00     0.003 A 
HETATM   15  C   UNL     1     -39.959  58.993 -52.460  1.00  0.00     0.007 A 
HETATM   16  C   UNL     1     -40.931  58.137 -53.012  1.00  0.00    -0.051 A 
HETATM   17  C   UNL     1     -41.152  58.133 -54.495  1.00  0.00     0.049 C 
HETATM   18  C   UNL     1     -44.014  56.859 -52.961  1.00  0.00     0.081 A 
HETATM   19  C   UNL     1     -44.832  57.806 -52.099  1.00  0.00     0.021 C 
HETATM   20  N   UNL     1     -45.511  58.591 -51.383  1.00  0.00    -0.096 N 
HETATM   21  C   UNL     1     -44.487  56.481 -54.180  1.00  0.00     0.140 A 
HETATM   22  O   UNL     1     -43.815  55.533 -54.972  1.00  0.00    -0.279 OA
HETATM   23  H   UNL     1     -42.193  56.368 -49.054  1.00  0.00     0.169 HD
ENDROOT
BRANCH  21  24
HETATM   24  N   UNL     1     -45.644  56.941 -54.768  1.00  0.00    -0.282 NA
HETATM   25  H   UNL     1     -46.500  56.475 -54.477  1.00  0.00     0.126 HD
HETATM   26  H   UNL     1     -45.555  56.998 -55.780  1.00  0.00     0.126 HD
ENDBRANCH  21  24
BRANCH   1  27
HETATM   27  C   UNL     1     -40.254  53.931 -51.931  1.00  0.00     0.062 C 
BRANCH  27  28
HETATM   28  C   UNL     1     -40.848  52.888 -50.980  1.00  0.00     0.006 C 
BRANCH  28  29
HETATM   29  C   UNL     1     -40.570  53.233 -49.518  1.00  0.00    -0.004 C 
HETATM   30  C   UNL     1     -39.522  54.328 -49.398  1.00  0.00     0.005 C 
ENDBRANCH  28  29
ENDBRANCH  27  28
ENDBRANCH   1  27
TORSDOF 4
ENDMDL
MODEL 2
REMARK VINA RESULT:      -7.1      2.489      4.149
REMARK  4 active torsions:
REMARK  status: ('A' for Active; 'I' for Inactive)
REMARK    1  A    between atoms: C_2  and  C_3 
REMARK    2  A    between atoms: C_3  and  C_4 
REMARK    3  A    between atoms: C_4  and  C_5 
REMARK    4  A    between atoms: C_25  and  N_26 
ROOT
HETATM    1  C   UNL     1     -42.155  55.669 -52.482  1.00  0.00     0.067 A 
HETATM    2  N   UNL     1     -42.632  54.540 -51.929  1.00  0.00    -0.177 NA
HETATM    3  N   UNL     1     -43.719  54.936 -51.241  1.00  0.00    -0.256 N 
HETATM    4  H   UNL     1     -44.241  54.247 -50.710  1.00  0.00     0.191 HD
HETATM    5  C   UNL     1     -43.946  56.269 -51.344  1.00  0.00     0.176 A 
HETATM    6  C   UNL     1     -42.980  56.781 -52.175  1.00  0.00     0.049 A 
HETATM    7  C   UNL     1     -42.981  58.242 -52.472  1.00  0.00     0.144 A 
HETATM    8  C   UNL     1     -41.588  58.878 -52.212  1.00  0.00     0.246 A 
HETATM    9  O   UNL     1     -41.010  59.003 -51.144  1.00  0.00    -0.271 OA
HETATM   10  N   UNL     1     -41.104  59.322 -53.438  1.00  0.00    -0.325 N 
HETATM   11  C   UNL     1     -41.998  59.058 -54.465  1.00  0.00     0.043 A 
HETATM   12  C   UNL     1     -43.140  58.406 -53.975  1.00  0.00     0.003 A 
HETATM   13  C   UNL     1     -41.822  59.375 -55.796  1.00  0.00     0.030 A 
HETATM   14  C   UNL     1     -42.842  59.023 -56.676  1.00  0.00     0.003 A 
HETATM   15  C   UNL     1     -44.000  58.376 -56.211  1.00  0.00     0.007 A 
HETATM   16  C   UNL     1     -44.174  58.063 -54.848  1.00  0.00    -0.051 A 
HETATM   17  C   UNL     1     -45.428  57.371 -54.407  1.00  0.00     0.049 C 
HETATM   18  C   UNL     1     -44.030  58.967 -51.639  1.00  0.00     0.081 A 
HETATM   19  C   UNL     1     -43.992  60.486 -51.646  1.00  0.00     0.021 C 
HETATM   20  N   UNL     1     -43.960  61.747 -51.651  1.00  0.00    -0.096 N 
HETATM   21  C   UNL     1     -44.913  58.320 -50.831  1.00  0.00     0.140 A 
HETATM   22  O   UNL     1     -44.921  56.918 -50.717  1.00  0.00    -0.279 OA
HETATM   23  H   UNL     1     -40.216  59.795 -53.536  1.00  0.00     0.169 HD
ENDROOT
BRANCH  21  24
HETATM   24  N   UNL     1     -45.865  58.923 -50.040  1.00  0.00    -0.282 NA
HETATM   25  H   UNL     1     -46.186  58.375 -49.245  1.00  0.00     0.126 HD
HETATM   26  H   UNL     1     -46.634  59.295 -50.592  1.00  0.00     0.126 HD
ENDBRANCH  21  24
BRANCH   1  27
HETATM   27  C   UNL     1     -40.884  55.617 -53.268  1.00  0.00     0.062 C 
BRANCH  27  28
HETATM   28  C   UNL     1     -41.136  55.244 -54.732  1.00  0.00     0.006 C 
BRANCH  28  29
HETATM   29  C   UNL     1     -40.175  54.157 -55.212  1.00  0.00    -0.004 C 
HETATM   30  C   UNL     1     -40.368  52.866 -54.433  1.00  0.00     0.005 C 
ENDBRANCH  28  29
ENDBRANCH  27  28
ENDBRANCH   1  27
TORSDOF 4
ENDMDL
MODEL 3
REMARK VINA RESULT:      -7.1      1.691      2.039
REMARK  4 active torsions:
REMARK  status: ('A' for Active; 'I' for Inactive)
REMARK    1  A    between atoms: C_2  and  C_3 
REMARK    2  A    between atoms: C_3  and  C_4 
REMARK    3  A    between atoms: C_4  and  C_5 
REMARK    4  A    between atoms: C_25  and  N_26 
ROOT
HETATM    1  C   UNL     1     -43.279  55.216 -53.055  1.00  0.00     0.067 A 
HETATM    2  N   UNL     1     -43.496  54.356 -54.066  1.00  0.00    -0.177 NA
HETATM    3  N   UNL     1     -44.112  55.093 -55.009  1.00  0.00    -0.256 N 
HETATM    4  H   UNL     1     -44.402  54.643 -55.871  1.00  0.00     0.191 HD
HETATM    5  C   UNL     1     -44.286  56.384 -54.632  1.00  0.00     0.176 A 
HETATM    6  C   UNL     1     -43.723  56.522 -53.387  1.00  0.00     0.049 A 
HETATM    7  C   UNL     1     -43.767  57.852 -52.714  1.00  0.00     0.144 A 
HETATM    8  C   UNL     1     -44.339  57.745 -51.275  1.00  0.00     0.246 A 
HETATM    9  O   UNL     1     -45.472  57.437 -50.941  1.00  0.00    -0.271 OA
HETATM   10  N   UNL     1     -43.318  58.098 -50.400  1.00  0.00    -0.325 N 
HETATM   11  C   UNL     1     -42.152  58.421 -51.080  1.00  0.00     0.043 A 
HETATM   12  C   UNL     1     -42.333  58.290 -52.466  1.00  0.00     0.003 A 
HETATM   13  C   UNL     1     -40.962  58.817 -50.508  1.00  0.00     0.030 A 
HETATM   14  C   UNL     1     -39.903  59.097 -51.367  1.00  0.00     0.003 A 
HETATM   15  C   UNL     1     -40.059  58.981 -52.759  1.00  0.00     0.007 A 
HETATM   16  C   UNL     1     -41.281  58.583 -53.335  1.00  0.00    -0.051 A 
HETATM   17  C   UNL     1     -41.391  58.475 -54.826  1.00  0.00     0.049 C 
HETATM   18  C   UNL     1     -44.603  58.840 -53.517  1.00  0.00     0.081 A 
HETATM   19  C   UNL     1     -44.946  60.161 -52.850  1.00  0.00     0.021 C 
HETATM   20  N   UNL     1     -45.231  61.257 -52.295  1.00  0.00    -0.096 N 
HETATM   21  C   UNL     1     -45.124  58.549 -54.740  1.00  0.00     0.140 A 
HETATM   22  O   UNL     1     -44.915  57.302 -55.356  1.00  0.00    -0.279 OA
HETATM   23  H   UNL     1     -43.443  58.129 -49.398  1.00  0.00     0.169 HD
ENDROOT
BRANCH  21  24
HETATM   24  N   UNL     1     -45.904  59.393 -55.499  1.00  0.00    -0.282 NA
HETATM   25  H   UNL     1     -46.211  59.019 -56.395  1.00  0.00     0.126 HD
HETATM   26  H   UNL     1     -45.488  60.317 -55.586  1.00  0.00     0.126 HD
ENDBRANCH  21  24
BRANCH   1  27
HETATM   27  C   UNL     1     -42.669  54.712 -51.786  1.00  0.00     0.062 C 
BRANCH  27  28
HETATM   28  C   UNL     1     -41.138  54.749 -51.837  1.00  0.00     0.006 C 
BRANCH  28  29
HETATM   29  C   UNL     1     -40.536  55.108 -50.479  1.00  0.00    -0.004 C 
HETATM   30  C   UNL     1     -41.581  55.043 -49.377  1.00  0.00     0.005 C 
ENDBRANCH  28  29
ENDBRANCH  27  28
ENDBRANCH   1  27
TORSDOF 4
ENDMDL
MODEL 4
REMARK VINA RESULT:      -7.0      2.277      5.290
REMARK  4 active torsions:
REMARK  status: ('A' for Active; 'I' for Inactive)
REMARK    1  A    between atoms: C_2  and  C_3 
REMARK    2  A    between atoms: C_3  and  C_4 
REMARK    3  A    between atoms: C_4  and  C_5 
REMARK    4  A    between atoms: C_25  and  N_26 
ROOT
HETATM    1  C   UNL     1     -44.203  58.516 -53.586  1.00  0.00     0.067 A 
HETATM    2  N   UNL     1     -44.289  59.841 -53.798  1.00  0.00    -0.177 NA
HETATM    3  N   UNL     1     -43.434  60.381 -52.910  1.00  0.00    -0.256 N 
HETATM    4  H   UNL     1     -43.346  61.391 -52.866  1.00  0.00     0.191 HD
HETATM    5  C   UNL     1     -42.809  59.446 -52.152  1.00  0.00     0.176 A 
HETATM    6  C   UNL     1     -43.245  58.218 -52.583  1.00  0.00     0.049 A 
HETATM    7  C   UNL     1     -42.720  56.989 -51.921  1.00  0.00     0.144 A 
HETATM    8  C   UNL     1     -43.870  56.052 -51.463  1.00  0.00     0.246 A 
HETATM    9  O   UNL     1     -44.713  56.265 -50.605  1.00  0.00    -0.271 OA
HETATM   10  N   UNL     1     -43.761  54.878 -52.199  1.00  0.00    -0.325 N 
HETATM   11  C   UNL     1     -42.690  54.925 -53.080  1.00  0.00     0.043 A 
HETATM   12  C   UNL     1     -42.022  56.156 -52.983  1.00  0.00     0.003 A 
HETATM   13  C   UNL     1     -42.305  53.923 -53.945  1.00  0.00     0.030 A 
HETATM   14  C   UNL     1     -41.197  54.167 -54.752  1.00  0.00     0.003 A 
HETATM   15  C   UNL     1     -40.505  55.388 -54.670  1.00  0.00     0.007 A 
HETATM   16  C   UNL     1     -40.900  56.402 -53.777  1.00  0.00    -0.051 A 
HETATM   17  C   UNL     1     -40.127  57.686 -53.732  1.00  0.00     0.049 C 
HETATM   18  C   UNL     1     -41.853  57.346 -50.721  1.00  0.00     0.081 A 
HETATM   19  C   UNL     1     -41.443  56.210 -49.799  1.00  0.00     0.021 C 
HETATM   20  N   UNL     1     -41.105  55.266 -49.033  1.00  0.00    -0.096 N 
HETATM   21  C   UNL     1     -41.523  58.626 -50.398  1.00  0.00     0.140 A 
HETATM   22  O   UNL     1     -41.960  59.719 -51.167  1.00  0.00    -0.279 OA
HETATM   23  H   UNL     1     -44.385  54.093 -52.073  1.00  0.00     0.169 HD
ENDROOT
BRANCH  21  24
HETATM   24  N   UNL     1     -40.763  59.008 -49.315  1.00  0.00    -0.282 NA
HETATM   25  H   UNL     1     -39.931  58.448 -49.143  1.00  0.00     0.126 HD
HETATM   26  H   UNL     1     -41.331  59.128 -48.480  1.00  0.00     0.126 HD
ENDBRANCH  21  24
BRANCH   1  27
HETATM   27  C   UNL     1     -45.090  57.593 -54.358  1.00  0.00     0.062 C 
BRANCH  27  28
HETATM   28  C   UNL     1     -44.827  57.680 -55.865  1.00  0.00     0.006 C 
BRANCH  28  29
HETATM   29  C   UNL     1     -43.557  56.929 -56.262  1.00  0.00    -0.004 C 
HETATM   30  C   UNL     1     -42.508  57.875 -56.824  1.00  0.00     0.005 C 
ENDBRANCH  28  29
ENDBRANCH  27  28
ENDBRANCH   1  27
TORSDOF 4
ENDMDL
MODEL 5
REMARK VINA RESULT:      -6.9     15.911     18.278
REMARK  4 active torsions:
REMARK  status: ('A' for Active; 'I' for Inactive)
REMARK    1  A    between atoms: C_2  and  C_3 
REMARK    2  A    between atoms: C_3  and  C_4 
REMARK    3  A    between atoms: C_4  and  C_5 
REMARK    4  A    between atoms: C_25  and  N_26 
ROOT
HETATM    1  C   UNL     1     -34.710  40.817 -55.316  1.00  0.00     0.067 A 
HETATM    2  N   UNL     1     -35.161  41.904 -55.967  1.00  0.00    -0.177 NA
HETATM    3  N   UNL     1     -36.272  42.260 -55.296  1.00  0.00    -0.256 N 
HETATM    4  H   UNL     1     -36.809  43.055 -55.624  1.00  0.00     0.191 HD
HETATM    5  C   UNL     1     -36.533  41.443 -54.246  1.00  0.00     0.176 A 
HETATM    6  C   UNL     1     -35.522  40.515 -54.193  1.00  0.00     0.049 A 
HETATM    7  C   UNL     1     -35.548  39.474 -53.126  1.00  0.00     0.144 A 
HETATM    8  C   UNL     1     -35.388  38.047 -53.717  1.00  0.00     0.246 A 
HETATM    9  O   UNL     1     -36.162  37.448 -54.447  1.00  0.00    -0.271 OA
HETATM   10  N   UNL     1     -34.187  37.536 -53.237  1.00  0.00    -0.325 N 
HETATM   11  C   UNL     1     -33.541  38.444 -52.410  1.00  0.00     0.043 A 
HETATM   12  C   UNL     1     -34.283  39.630 -52.299  1.00  0.00     0.003 A 
HETATM   13  C   UNL     1     -32.336  38.244 -51.770  1.00  0.00     0.030 A 
HETATM   14  C   UNL     1     -31.852  39.284 -50.981  1.00  0.00     0.003 A 
HETATM   15  C   UNL     1     -32.578  40.480 -50.847  1.00  0.00     0.007 A 
HETATM   16  C   UNL     1     -33.812  40.672 -51.497  1.00  0.00    -0.051 A 
HETATM   17  C   UNL     1     -34.544  41.968 -51.320  1.00  0.00     0.049 C 
HETATM   18  C   UNL     1     -36.842  39.547 -52.327  1.00  0.00     0.081 A 
HETATM   19  C   UNL     1     -37.129  38.405 -51.366  1.00  0.00     0.021 C 
HETATM   20  N   UNL     1     -37.366  37.456 -50.570  1.00  0.00    -0.096 N 
HETATM   21  C   UNL     1     -37.775  40.520 -52.510  1.00  0.00     0.140 A 
HETATM   22  O   UNL     1     -37.598  41.544 -53.458  1.00  0.00    -0.279 OA
HETATM   23  H   UNL     1     -33.860  36.607 -53.461  1.00  0.00     0.169 HD
ENDROOT
BRANCH  21  24
HETATM   24  N   UNL     1     -38.970  40.623 -51.834  1.00  0.00    -0.282 NA
HETATM   25  H   UNL     1     -39.320  41.569 -51.701  1.00  0.00     0.126 HD
HETATM   26  H   UNL     1     -38.962  40.086 -50.970  1.00  0.00     0.126 HD
ENDBRANCH  21  24
BRANCH   1  27
HETATM   27  C   UNL     1     -33.510  40.096 -55.843  1.00  0.00     0.062 C 
BRANCH  27  28
HETATM   28  C   UNL     1     -32.243  40.450 -55.058  1.00  0.00     0.006 C 
BRANCH  28  29
HETATM   29  C   UNL     1     -31.185  39.354 -55.168  1.00  0.00    -0.004 C 
HETATM   30  C   UNL     1     -30.408  39.465 -56.470  1.00  0.00     0.005 C 
ENDBRANCH  28  29
ENDBRANCH  27  28
ENDBRANCH   1  27
TORSDOF 4
ENDMDL
MODEL 6
REMARK VINA RESULT:      -6.8      2.178      2.874
REMARK  4 active torsions:
REMARK  status: ('A' for Active; 'I' for Inactive)
REMARK    1  A    between atoms: C_2  and  C_3 
REMARK    2  A    between atoms: C_3  and  C_4 
REMARK    3  A    between atoms: C_4  and  C_5 
REMARK    4  A    between atoms: C_25  and  N_26 
ROOT
HETATM    1  C   UNL     1     -43.400  55.988 -54.183  1.00  0.00     0.067 A 
HETATM    2  N   UNL     1     -43.815  55.768 -55.443  1.00  0.00    -0.177 NA
HETATM    3  N   UNL     1     -44.547  56.855 -55.751  1.00  0.00    -0.256 N 
HETATM    4  H   UNL     1     -44.992  56.904 -56.661  1.00  0.00     0.191 HD
HETATM    5  C   UNL     1     -44.603  57.752 -54.736  1.00  0.00     0.176 A 
HETATM    6  C   UNL     1     -43.838  57.252 -53.711  1.00  0.00     0.049 A 
HETATM    7  C   UNL     1     -43.716  58.035 -52.448  1.00  0.00     0.144 A 
HETATM    8  C   UNL     1     -44.048  57.168 -51.204  1.00  0.00     0.246 A 
HETATM    9  O   UNL     1     -45.122  56.674 -50.901  1.00  0.00    -0.271 OA
HETATM   10  N   UNL     1     -42.883  57.067 -50.451  1.00  0.00    -0.325 N 
HETATM   11  C   UNL     1     -41.832  57.754 -51.043  1.00  0.00     0.043 A 
HETATM   12  C   UNL     1     -42.244  58.352 -52.243  1.00  0.00     0.003 A 
HETATM   13  C   UNL     1     -40.549  57.855 -50.549  1.00  0.00     0.030 A 
HETATM   14  C   UNL     1     -39.634  58.594 -51.295  1.00  0.00     0.003 A 
HETATM   15  C   UNL     1     -40.021  59.210 -52.498  1.00  0.00     0.007 A 
HETATM   16  C   UNL     1     -41.337  59.107 -52.990  1.00  0.00    -0.051 A 
HETATM   17  C   UNL     1     -41.695  59.783 -54.279  1.00  0.00     0.049 C 
HETATM   18  C   UNL     1     -44.630  59.253 -52.473  1.00  0.00     0.081 A 
HETATM   19  C   UNL     1     -44.804  60.016 -51.171  1.00  0.00     0.021 C 
HETATM   20  N   UNL     1     -44.948  60.649 -50.089  1.00  0.00    -0.096 N 
HETATM   21  C   UNL     1     -45.357  59.614 -53.565  1.00  0.00     0.140 A 
HETATM   22  O   UNL     1     -45.304  58.880 -54.764  1.00  0.00    -0.279 OA
HETATM   23  H   UNL     1     -42.840  56.566 -49.574  1.00  0.00     0.169 HD
ENDROOT
BRANCH  21  24
HETATM   24  N   UNL     1     -46.215  60.688 -53.637  1.00  0.00    -0.282 NA
HETATM   25  H   UNL     1     -46.173  61.226 -54.500  1.00  0.00     0.126 HD
HETATM   26  H   UNL     1     -46.155  61.275 -52.809  1.00  0.00     0.126 HD
ENDBRANCH  21  24
BRANCH   1  27
HETATM   27  C   UNL     1     -42.611  54.931 -53.479  1.00  0.00     0.062 C 
BRANCH  27  28
HETATM   28  C   UNL     1     -42.361  53.715 -54.377  1.00  0.00     0.006 C 
BRANCH  28  29
HETATM   29  C   UNL     1     -40.906  53.253 -54.310  1.00  0.00    -0.004 C 
HETATM   30  C   UNL     1     -39.998  54.168 -55.116  1.00  0.00     0.005 C 
ENDBRANCH  28  29
ENDBRANCH  27  28
ENDBRANCH   1  27
TORSDOF 4
ENDMDL
MODEL 7
REMARK VINA RESULT:      -6.7      3.120      5.540
REMARK  4 active torsions:
REMARK  status: ('A' for Active; 'I' for Inactive)
REMARK    1  A    between atoms: C_2  and  C_3 
REMARK    2  A    between atoms: C_3  and  C_4 
REMARK    3  A    between atoms: C_4  and  C_5 
REMARK    4  A    between atoms: C_25  and  N_26 
ROOT
HETATM    1  C   UNL     1     -42.520  57.817 -56.956  1.00  0.00     0.067 A 
HETATM    2  N   UNL     1     -41.857  58.678 -57.747  1.00  0.00    -0.177 NA
HETATM    3  N   UNL     1     -41.799  59.817 -57.031  1.00  0.00    -0.256 N 
HETATM    4  H   UNL     1     -41.357  60.632 -57.441  1.00  0.00     0.191 HD
HETATM    5  C   UNL     1     -42.394  59.702 -55.818  1.00  0.00     0.176 A 
HETATM    6  C   UNL     1     -42.841  58.408 -55.707  1.00  0.00     0.049 A 
HETATM    7  C   UNL     1     -43.547  57.989 -54.462  1.00  0.00     0.144 A 
HETATM    8  C   UNL     1     -44.905  57.306 -54.777  1.00  0.00     0.246 A 
HETATM    9  O   UNL     1     -45.897  57.810 -55.279  1.00  0.00    -0.271 OA
HETATM   10  N   UNL     1     -44.809  55.986 -54.354  1.00  0.00    -0.325 N 
HETATM   11  C   UNL     1     -43.564  55.716 -53.803  1.00  0.00     0.043 A 
HETATM   12  C   UNL     1     -42.748  56.857 -53.838  1.00  0.00     0.003 A 
HETATM   13  C   UNL     1     -43.150  54.507 -53.285  1.00  0.00     0.030 A 
HETATM   14  C   UNL     1     -41.856  54.440 -52.777  1.00  0.00     0.003 A 
HETATM   15  C   UNL     1     -41.019  55.569 -52.793  1.00  0.00     0.007 A 
HETATM   16  C   UNL     1     -41.454  56.802 -53.316  1.00  0.00    -0.051 A 
HETATM   17  C   UNL     1     -40.519  57.974 -53.310  1.00  0.00     0.049 C 
HETATM   18  C   UNL     1     -43.783  59.181 -53.543  1.00  0.00     0.081 A 
HETATM   19  C   UNL     1     -44.700  58.966 -52.351  1.00  0.00     0.021 C 
HETATM   20  N   UNL     1     -45.463  58.788 -51.363  1.00  0.00    -0.096 N 
HETATM   21  C   UNL     1     -43.295  60.425 -53.800  1.00  0.00     0.140 A 
HETATM   22  O   UNL     1     -42.522  60.694 -54.944  1.00  0.00    -0.279 OA
HETATM   23  H   UNL     1     -45.574  55.330 -54.429  1.00  0.00     0.169 HD
ENDROOT
BRANCH  21  24
HETATM   24  N   UNL     1     -43.496  61.541 -53.020  1.00  0.00    -0.282 NA
HETATM   25  H   UNL     1     -43.909  62.341 -53.495  1.00  0.00     0.126 HD
HETATM   26  H   UNL     1     -42.660  61.790 -52.495  1.00  0.00     0.126 HD
ENDBRANCH  21  24
BRANCH   1  27
HETATM   27  C   UNL     1     -42.841  56.451 -57.471  1.00  0.00     0.062 C 
BRANCH  27  28
HETATM   28  C   UNL     1     -43.882  56.496 -58.594  1.00  0.00     0.006 C 
BRANCH  28  29
HETATM   29  C   UNL     1     -43.540  55.524 -59.722  1.00  0.00    -0.004 C 
HETATM   30  C   UNL     1     -44.641  54.493 -59.916  1.00  0.00     0.005 C 
ENDBRANCH  28  29
ENDBRANCH  27  28
ENDBRANCH   1  27
TORSDOF 4
ENDMDL
MODEL 8
REMARK VINA RESULT:      -6.7      2.112      4.346
REMARK  4 active torsions:
REMARK  status: ('A' for Active; 'I' for Inactive)
REMARK    1  A    between atoms: C_2  and  C_3 
REMARK    2  A    between atoms: C_3  and  C_4 
REMARK    3  A    between atoms: C_4  and  C_5 
REMARK    4  A    between atoms: C_25  and  N_26 
ROOT
HETATM    1  C   UNL     1     -42.928  56.906 -51.521  1.00  0.00     0.067 A 
HETATM    2  N   UNL     1     -43.991  57.068 -50.714  1.00  0.00    -0.177 NA
HETATM    3  N   UNL     1     -45.013  57.327 -51.552  1.00  0.00    -0.256 N 
HETATM    4  H   UNL     1     -45.931  57.513 -51.163  1.00  0.00     0.191 HD
HETATM    5  C   UNL     1     -44.633  57.327 -52.854  1.00  0.00     0.176 A 
HETATM    6  C   UNL     1     -43.296  57.017 -52.886  1.00  0.00     0.049 A 
HETATM    7  C   UNL     1     -42.599  56.946 -54.203  1.00  0.00     0.144 A 
HETATM    8  C   UNL     1     -41.310  57.812 -54.214  1.00  0.00     0.246 A 
HETATM    9  O   UNL     1     -41.224  59.027 -54.130  1.00  0.00    -0.271 OA
HETATM   10  N   UNL     1     -40.234  56.944 -54.367  1.00  0.00    -0.325 N 
HETATM   11  C   UNL     1     -40.653  55.624 -54.457  1.00  0.00     0.043 A 
HETATM   12  C   UNL     1     -42.050  55.538 -54.357  1.00  0.00     0.003 A 
HETATM   13  C   UNL     1     -39.837  54.524 -54.619  1.00  0.00     0.030 A 
HETATM   14  C   UNL     1     -40.453  53.278 -54.687  1.00  0.00     0.003 A 
HETATM   15  C   UNL     1     -41.851  53.163 -54.597  1.00  0.00     0.007 A 
HETATM   16  C   UNL     1     -42.677  54.293 -54.440  1.00  0.00    -0.051 A 
HETATM   17  C   UNL     1     -44.162  54.113 -54.348  1.00  0.00     0.049 C 
HETATM   18  C   UNL     1     -43.519  57.397 -55.330  1.00  0.00     0.081 A 
HETATM   19  C   UNL     1     -42.888  57.614 -56.695  1.00  0.00     0.021 C 
HETATM   20  N   UNL     1     -42.364  57.795 -57.827  1.00  0.00    -0.096 N 
HETATM   21  C   UNL     1     -44.832  57.701 -55.140  1.00  0.00     0.140 A 
HETATM   22  O   UNL     1     -45.437  57.609 -53.874  1.00  0.00    -0.279 OA
HETATM   23  H   UNL     1     -39.278  57.265 -54.425  1.00  0.00     0.169 HD
ENDROOT
BRANCH  21  24
HETATM   24  N   UNL     1     -45.703  58.134 -56.114  1.00  0.00    -0.282 NA
HETATM   25  H   UNL     1     -46.383  57.447 -56.432  1.00  0.00     0.126 HD
HETATM   26  H   UNL     1     -45.213  58.582 -56.885  1.00  0.00     0.126 HD
ENDBRANCH  21  24
BRANCH   1  27
HETATM   27  C   UNL     1     -41.580  56.677 -50.914  1.00  0.00     0.062 C 
BRANCH  27  28
HETATM   28  C   UNL     1     -41.556  55.418 -50.041  1.00  0.00     0.006 C 
BRANCH  28  29
HETATM   29  C   UNL     1     -40.326  54.558 -50.324  1.00  0.00    -0.004 C 
HETATM   30  C   UNL     1     -40.704  53.270 -51.037  1.00  0.00     0.005 C 
ENDBRANCH  28  29
ENDBRANCH  27  28
ENDBRANCH   1  27
TORSDOF 4
ENDMDL
MODEL 9
REMARK VINA RESULT:      -6.6      2.280      5.451
REMARK  4 active torsions:
REMARK  status: ('A' for Active; 'I' for Inactive)
REMARK    1  A    between atoms: C_2  and  C_3 
REMARK    2  A    between atoms: C_3  and  C_4 
REMARK    3  A    between atoms: C_4  and  C_5 
REMARK    4  A    between atoms: C_25  and  N_26 
ROOT
HETATM    1  C   UNL     1     -41.498  58.958 -52.267  1.00  0.00     0.067 A 
HETATM    2  N   UNL     1     -40.395  59.504 -51.726  1.00  0.00    -0.177 NA
HETATM    3  N   UNL     1     -39.981  58.599 -50.819  1.00  0.00    -0.256 N 
HETATM    4  H   UNL     1     -39.163  58.807 -50.257  1.00  0.00     0.191 HD
HETATM    5  C   UNL     1     -40.778  57.503 -50.774  1.00  0.00     0.176 A 
HETATM    6  C   UNL     1     -41.753  57.671 -51.726  1.00  0.00     0.049 A 
HETATM    7  C   UNL     1     -42.784  56.609 -51.903  1.00  0.00     0.144 A 
HETATM    8  C   UNL     1     -44.221  57.195 -51.857  1.00  0.00     0.246 A 
HETATM    9  O   UNL     1     -44.787  57.714 -50.907  1.00  0.00    -0.271 OA
HETATM   10  N   UNL     1     -44.786  56.999 -53.112  1.00  0.00    -0.325 N 
HETATM   11  C   UNL     1     -43.904  56.362 -53.974  1.00  0.00     0.043 A 
HETATM   12  C   UNL     1     -42.683  56.103 -53.333  1.00  0.00     0.003 A 
HETATM   13  C   UNL     1     -44.158  56.017 -55.285  1.00  0.00     0.030 A 
HETATM   14  C   UNL     1     -43.137  55.381 -55.986  1.00  0.00     0.003 A 
HETATM   15  C   UNL     1     -41.907  55.102 -55.366  1.00  0.00     0.007 A 
HETATM   16  C   UNL     1     -41.660  55.451 -54.024  1.00  0.00    -0.051 A 
HETATM   17  C   UNL     1     -40.329  55.132 -53.414  1.00  0.00     0.049 C 
HETATM   18  C   UNL     1     -42.644  55.531 -50.837  1.00  0.00     0.081 A 
HETATM   19  C   UNL     1     -43.764  54.510 -50.731  1.00  0.00     0.021 C 
HETATM   20  N   UNL     1     -44.695  53.663 -50.644  1.00  0.00    -0.096 N 
HETATM   21  C   UNL     1     -41.627  55.509 -49.932  1.00  0.00     0.140 A 
HETATM   22  O   UNL     1     -40.620  56.490 -49.929  1.00  0.00    -0.279 OA
HETATM   23  H   UNL     1     -45.731  57.276 -53.336  1.00  0.00     0.169 HD
ENDROOT
BRANCH  21  24
HETATM   24  N   UNL     1     -41.463  54.576 -48.934  1.00  0.00    -0.282 NA
HETATM   25  H   UNL     1     -40.502  54.307 -48.738  1.00  0.00     0.126 HD
HETATM   26  H   UNL     1     -42.073  53.772 -49.065  1.00  0.00     0.126 HD
ENDBRANCH  21  24
BRANCH   1  27
HETATM   27  C   UNL     1     -42.279  59.737 -53.276  1.00  0.00     0.062 C 
BRANCH  27  28
HETATM   28  C   UNL     1     -41.789  59.472 -54.703  1.00  0.00     0.006 C 
BRANCH  28  29
HETATM   29  C   UNL     1     -42.932  59.537 -55.715  1.00  0.00    -0.004 C 
HETATM   30  C   UNL     1     -42.533  58.907 -57.040  1.00  0.00     0.005 C 
ENDBRANCH  28  29
ENDBRANCH  27  28
ENDBRANCH   1  27
TORSDOF 4
ENDMDL
MODEL 10
REMARK VINA RESULT:      -6.5      2.765      4.336
REMARK  4 active torsions:
REMARK  status: ('A' for Active; 'I' for Inactive)
REMARK    1  A    between atoms: C_2  and  C_3 
REMARK    2  A    between atoms: C_3  and  C_4 
REMARK    3  A    between atoms: C_4  and  C_5 
REMARK    4  A    between atoms: C_25  and  N_26 
ROOT
HETATM    1  C   UNL     1     -42.335  58.405 -54.813  1.00  0.00     0.067 A 
HETATM    2  N   UNL     1     -41.718  59.159 -55.740  1.00  0.00    -0.177 NA
HETATM    3  N   UNL     1     -41.757  60.408 -55.239  1.00  0.00    -0.256 N 
HETATM    4  H   UNL     1     -41.366  61.168 -55.785  1.00  0.00     0.191 HD
HETATM    5  C   UNL     1     -42.368  60.466 -54.030  1.00  0.00     0.176 A 
HETATM    6  C   UNL     1     -42.724  59.183 -53.693  1.00  0.00     0.049 A 
HETATM    7  C   UNL     1     -43.424  58.941 -52.399  1.00  0.00     0.144 A 
HETATM    8  C   UNL     1     -44.723  58.114 -52.599  1.00  0.00     0.246 A 
HETATM    9  O   UNL     1     -45.738  58.445 -53.191  1.00  0.00    -0.271 OA
HETATM   10  N   UNL     1     -44.541  56.900 -51.945  1.00  0.00    -0.325 N 
HETATM   11  C   UNL     1     -43.292  56.826 -51.344  1.00  0.00     0.043 A 
HETATM   12  C   UNL     1     -42.559  58.000 -51.576  1.00  0.00     0.003 A 
HETATM   13  C   UNL     1     -42.804  55.762 -50.615  1.00  0.00     0.030 A 
HETATM   14  C   UNL     1     -41.520  55.883 -50.092  1.00  0.00     0.003 A 
HETATM   15  C   UNL     1     -40.766  57.051 -50.303  1.00  0.00     0.007 A 
HETATM   16  C   UNL     1     -41.276  58.135 -51.042  1.00  0.00    -0.051 A 
HETATM   17  C   UNL     1     -40.429  59.356 -51.237  1.00  0.00     0.049 C 
HETATM   18  C   UNL     1     -43.765  60.256 -51.710  1.00  0.00     0.081 A 
HETATM   19  C   UNL     1     -44.690  60.189 -50.507  1.00  0.00     0.021 C 
HETATM   20  N   UNL     1     -45.459  60.133 -49.509  1.00  0.00    -0.096 N 
HETATM   21  C   UNL     1     -43.362  61.467 -52.182  1.00  0.00     0.140 A 
HETATM   22  O   UNL     1     -42.586  61.586 -53.348  1.00  0.00    -0.279 OA
HETATM   23  H   UNL     1     -45.255  56.186 -51.909  1.00  0.00     0.169 HD
ENDROOT
BRANCH  21  24
HETATM   24  N   UNL     1     -43.659  62.686 -51.615  1.00  0.00    -0.282 NA
HETATM   25  H   UNL     1     -43.044  62.981 -50.860  1.00  0.00     0.126 HD
HETATM   26  H   UNL     1     -44.643  62.757 -51.365  1.00  0.00     0.126 HD
ENDBRANCH  21  24
BRANCH   1  27
HETATM   27  C   UNL     1     -42.545  56.949 -55.079  1.00  0.00     0.062 C 
BRANCH  27  28
HETATM   28  C   UNL     1     -41.372  56.102 -54.573  1.00  0.00     0.006 C 
BRANCH  28  29
HETATM   29  C   UNL     1     -41.837  54.741 -54.061  1.00  0.00    -0.004 C 
HETATM   30  C   UNL     1     -40.742  54.046 -53.267  1.00  0.00     0.005 C 
ENDBRANCH  28  29
ENDBRANCH  27  28
ENDBRANCH   1  27
TORSDOF 4
ENDMDL
