MODEL 1
REMARK VINA RESULT:      -9.2      0.000      0.000
REMARK  5 active torsions:
REMARK  status: ('A' for Active; 'I' for Inactive)
REMARK    1  A    between atoms: C_4  and  C_5 
REMARK    2  A    between atoms: C_5  and  C_6 
REMARK       I    between atoms: C_6  and  N_7 
REMARK    3  A    between atoms: N_7  and  C_8 
REMARK    4  A    between atoms: C_8  and  C_9 
REMARK    5  A    between atoms: N_11  and  C_12 
ROOT
HETATM    1  C   UNL     1     -41.668  54.672 -55.648  1.00  0.00     0.184 C 
ENDROOT
BRANCH   1   2
HETATM    2  N   UNL     1     -41.953  56.046 -56.012  1.00  0.00    -0.354 N 
HETATM    3  C   UNL     1     -42.747  56.387 -57.087  1.00  0.00     0.231 C 
HETATM    4  O   UNL     1     -43.262  55.534 -57.808  1.00  0.00    -0.272 OA
HETATM    5  H   UNL     1     -41.447  56.770 -55.516  1.00  0.00     0.162 HD
BRANCH   3   6
HETATM    6  C   UNL     1     -42.963  57.914 -57.292  1.00  0.00     0.072 C 
HETATM    7  C   UNL     1     -41.822  58.412 -58.225  1.00  0.00     0.050 C 
HETATM    8  C   UNL     1     -41.690  59.933 -58.240  1.00  0.00     0.169 C 
HETATM    9  O   UNL     1     -41.523  60.446 -56.923  1.00  0.00    -0.391 OA
HETATM   10  C   UNL     1     -42.634  60.137 -56.086  1.00  0.00     0.169 C 
HETATM   11  C   UNL     1     -42.756  58.630 -55.925  1.00  0.00     0.050 C 
BRANCH   6  12
HETATM   12  C   UNL     1     -44.398  58.140 -57.822  1.00  0.00    -0.040 A 
HETATM   13  C   UNL     1     -45.482  58.133 -56.921  1.00  0.00     0.008 A 
HETATM   14  C   UNL     1     -46.796  58.323 -57.357  1.00  0.00     0.001 A 
HETATM   15  C   UNL     1     -47.061  58.507 -58.709  1.00  0.00     0.000 A 
HETATM   16  C   UNL     1     -46.013  58.491 -59.623  1.00  0.00     0.001 A 
HETATM   17  C   UNL     1     -44.697  58.304 -59.186  1.00  0.00     0.008 A 
ENDBRANCH   6  12
ENDBRANCH   3   6
ENDBRANCH   1   2
BRANCH   1  18
HETATM   18  C   UNL     1     -41.540  54.603 -54.130  1.00  0.00     0.084 A 
HETATM   19  N   UNL     1     -42.139  55.534 -53.449  1.00  0.00    -0.171 NA
HETATM   20  N   UNL     1     -42.081  55.521 -52.077  1.00  0.00    -0.229 N 
HETATM   21  C   UNL     1     -41.336  54.595 -51.346  1.00  0.00     0.275 A 
HETATM   22  O   UNL     1     -41.195  54.631 -50.125  1.00  0.00    -0.266 OA
HETATM   23  C   UNL     1     -40.692  53.512 -52.111  1.00  0.00     0.046 A 
HETATM   24  C   UNL     1     -40.786  53.498 -53.498  1.00  0.00     0.008 A 
HETATM   25  C   UNL     1     -39.990  52.503 -51.436  1.00  0.00     0.018 A 
HETATM   26  C   UNL     1     -40.177  52.462 -54.217  1.00  0.00     0.014 A 
HETATM   27  C   UNL     1     -39.480  51.454 -53.545  1.00  0.00     0.001 A 
HETATM   28  C   UNL     1     -39.384  51.474 -52.155  1.00  0.00     0.001 A 
BRANCH  20  29
HETATM   29  C   UNL     1     -42.655  56.666 -51.371  1.00  0.00     0.114 C 
HETATM   30  C   UNL     1     -42.613  57.943 -52.214  1.00  0.00     0.027 C 
HETATM   31  C   UNL     1     -43.635  58.836 -51.533  1.00  0.00     0.002 C 
HETATM   32  C   UNL     1     -44.779  57.884 -51.218  1.00  0.00     0.002 C 
HETATM   33  C   UNL     1     -44.125  56.528 -50.937  1.00  0.00     0.027 C 
ENDBRANCH  20  29
ENDBRANCH   1  18
TORSDOF 5
ENDMDL
MODEL 2
REMARK VINA RESULT:      -9.2      1.821      2.507
REMARK  5 active torsions:
REMARK  status: ('A' for Active; 'I' for Inactive)
REMARK    1  A    between atoms: C_4  and  C_5 
REMARK    2  A    between atoms: C_5  and  C_6 
REMARK       I    between atoms: C_6  and  N_7 
REMARK    3  A    between atoms: N_7  and  C_8 
REMARK    4  A    between atoms: C_8  and  C_9 
REMARK    5  A    between atoms: N_11  and  C_12 
ROOT
HETATM    1  C   UNL     1     -40.495  53.942 -55.042  1.00  0.00     0.184 C 
ENDROOT
BRANCH   1   2
HETATM    2  N   UNL     1     -41.082  55.216 -55.403  1.00  0.00    -0.354 N 
HETATM    3  C   UNL     1     -42.434  55.386 -55.617  1.00  0.00     0.231 C 
HETATM    4  O   UNL     1     -43.227  54.451 -55.516  1.00  0.00    -0.272 OA
HETATM    5  H   UNL     1     -40.444  55.975 -55.615  1.00  0.00     0.162 HD
BRANCH   3   6
HETATM    6  C   UNL     1     -42.873  56.838 -55.961  1.00  0.00     0.072 C 
HETATM    7  C   UNL     1     -42.049  57.790 -55.047  1.00  0.00     0.050 C 
HETATM    8  C   UNL     1     -42.606  59.210 -55.015  1.00  0.00     0.169 C 
HETATM    9  O   UNL     1     -43.978  59.214 -54.637  1.00  0.00    -0.391 OA
HETATM   10  C   UNL     1     -44.784  58.476 -55.552  1.00  0.00     0.169 C 
HETATM   11  C   UNL     1     -44.363  57.014 -55.548  1.00  0.00     0.050 C 
BRANCH   6  12
HETATM   12  C   UNL     1     -42.691  57.058 -57.481  1.00  0.00    -0.040 A 
HETATM   13  C   UNL     1     -43.151  56.080 -58.386  1.00  0.00     0.008 A 
HETATM   14  C   UNL     1     -42.998  56.233 -59.766  1.00  0.00     0.001 A 
HETATM   15  C   UNL     1     -42.366  57.361 -60.277  1.00  0.00     0.000 A 
HETATM   16  C   UNL     1     -41.879  58.328 -59.405  1.00  0.00     0.001 A 
HETATM   17  C   UNL     1     -42.034  58.177 -58.023  1.00  0.00     0.008 A 
ENDBRANCH   6  12
ENDBRANCH   3   6
ENDBRANCH   1   2
BRANCH   1  18
HETATM   18  C   UNL     1     -40.584  53.794 -53.527  1.00  0.00     0.084 A 
HETATM   19  N   UNL     1     -41.012  54.825 -52.861  1.00  0.00    -0.171 NA
HETATM   20  N   UNL     1     -41.135  54.753 -51.496  1.00  0.00    -0.229 N 
HETATM   21  C   UNL     1     -40.746  53.644 -50.743  1.00  0.00     0.275 A 
HETATM   22  O   UNL     1     -40.758  53.604 -49.515  1.00  0.00    -0.266 OA
HETATM   23  C   UNL     1     -40.303  52.457 -51.496  1.00  0.00     0.046 A 
HETATM   24  C   UNL     1     -40.219  52.512 -52.883  1.00  0.00     0.008 A 
HETATM   25  C   UNL     1     -39.969  51.281 -50.811  1.00  0.00     0.018 A 
HETATM   26  C   UNL     1     -39.803  51.377 -53.591  1.00  0.00     0.014 A 
HETATM   27  C   UNL     1     -39.474  50.203 -52.908  1.00  0.00     0.001 A 
HETATM   28  C   UNL     1     -39.555  50.154 -51.519  1.00  0.00     0.001 A 
BRANCH  20  29
HETATM   29  C   UNL     1     -41.488  55.985 -50.790  1.00  0.00     0.114 C 
HETATM   30  C   UNL     1     -40.406  57.058 -50.926  1.00  0.00     0.027 C 
HETATM   31  C   UNL     1     -41.143  58.335 -50.560  1.00  0.00     0.002 C 
HETATM   32  C   UNL     1     -42.486  58.177 -51.256  1.00  0.00     0.002 C 
HETATM   33  C   UNL     1     -42.788  56.676 -51.238  1.00  0.00     0.027 C 
ENDBRANCH  20  29
ENDBRANCH   1  18
TORSDOF 5
ENDMDL
MODEL 3
REMARK VINA RESULT:      -8.7      2.146      7.336
REMARK  5 active torsions:
REMARK  status: ('A' for Active; 'I' for Inactive)
REMARK    1  A    between atoms: C_4  and  C_5 
REMARK    2  A    between atoms: C_5  and  C_6 
REMARK       I    between atoms: C_6  and  N_7 
REMARK    3  A    between atoms: N_7  and  C_8 
REMARK    4  A    between atoms: C_8  and  C_9 
REMARK    5  A    between atoms: N_11  and  C_12 
ROOT
HETATM    1  C   UNL     1     -42.770  55.477 -56.827  1.00  0.00     0.184 C 
ENDROOT
BRANCH   1   2
HETATM    2  N   UNL     1     -42.680  54.949 -55.481  1.00  0.00    -0.354 N 
HETATM    3  C   UNL     1     -41.480  54.643 -54.873  1.00  0.00     0.231 C 
HETATM    4  O   UNL     1     -40.405  54.799 -55.450  1.00  0.00    -0.272 OA
HETATM    5  H   UNL     1     -43.549  54.694 -55.026  1.00  0.00     0.162 HD
BRANCH   3   6
HETATM    6  C   UNL     1     -41.592  54.123 -53.412  1.00  0.00     0.072 C 
HETATM    7  C   UNL     1     -43.104  54.121 -53.045  1.00  0.00     0.050 C 
HETATM    8  C   UNL     1     -43.350  53.971 -51.546  1.00  0.00     0.169 C 
HETATM    9  O   UNL     1     -42.655  54.971 -50.810  1.00  0.00    -0.391 OA
HETATM   10  C   UNL     1     -41.246  54.894 -51.006  1.00  0.00     0.169 C 
HETATM   11  C   UNL     1     -40.912  55.156 -52.466  1.00  0.00     0.050 C 
BRANCH   6  12
HETATM   12  C   UNL     1     -40.888  52.748 -53.325  1.00  0.00    -0.040 A 
HETATM   13  C   UNL     1     -40.070  52.454 -52.216  1.00  0.00     0.008 A 
HETATM   14  C   UNL     1     -39.407  51.230 -52.102  1.00  0.00     0.001 A 
HETATM   15  C   UNL     1     -39.531  50.274 -53.104  1.00  0.00     0.000 A 
HETATM   16  C   UNL     1     -40.310  50.549 -54.222  1.00  0.00     0.001 A 
HETATM   17  C   UNL     1     -40.977  51.774 -54.335  1.00  0.00     0.008 A 
ENDBRANCH   6  12
ENDBRANCH   3   6
ENDBRANCH   1   2
BRANCH   1  18
HETATM   18  C   UNL     1     -42.568  56.986 -56.758  1.00  0.00     0.084 A 
HETATM   19  N   UNL     1     -42.547  57.521 -55.573  1.00  0.00    -0.171 NA
HETATM   20  N   UNL     1     -42.350  58.873 -55.437  1.00  0.00    -0.229 N 
HETATM   21  C   UNL     1     -42.247  59.750 -56.517  1.00  0.00     0.275 A 
HETATM   22  O   UNL     1     -42.170  60.972 -56.410  1.00  0.00    -0.266 OA
HETATM   23  C   UNL     1     -42.226  59.144 -57.861  1.00  0.00     0.046 A 
HETATM   24  C   UNL     1     -42.381  57.769 -57.999  1.00  0.00     0.008 A 
HETATM   25  C   UNL     1     -42.049  59.956 -58.990  1.00  0.00     0.018 A 
HETATM   26  C   UNL     1     -42.353  57.201 -59.279  1.00  0.00     0.014 A 
HETATM   27  C   UNL     1     -42.173  58.010 -60.405  1.00  0.00     0.001 A 
HETATM   28  C   UNL     1     -42.023  59.387 -60.262  1.00  0.00     0.001 A 
BRANCH  20  29
HETATM   29  C   UNL     1     -42.473  59.435 -54.092  1.00  0.00     0.114 C 
HETATM   30  C   UNL     1     -43.516  58.696 -53.251  1.00  0.00     0.027 C 
HETATM   31  C   UNL     1     -43.156  59.097 -51.831  1.00  0.00     0.002 C 
HETATM   32  C   UNL     1     -41.636  59.031 -51.822  1.00  0.00     0.002 C 
HETATM   33  C   UNL     1     -41.196  59.428 -53.233  1.00  0.00     0.027 C 
ENDBRANCH  20  29
ENDBRANCH   1  18
TORSDOF 5
ENDMDL
MODEL 4
REMARK VINA RESULT:      -8.5      2.099      8.042
REMARK  5 active torsions:
REMARK  status: ('A' for Active; 'I' for Inactive)
REMARK    1  A    between atoms: C_4  and  C_5 
REMARK    2  A    between atoms: C_5  and  C_6 
REMARK       I    between atoms: C_6  and  N_7 
REMARK    3  A    between atoms: N_7  and  C_8 
REMARK    4  A    between atoms: C_8  and  C_9 
REMARK    5  A    between atoms: N_11  and  C_12 
ROOT
HETATM    1  C   UNL     1     -41.145  58.232 -54.029  1.00  0.00     0.184 C 
ENDROOT
BRANCH   1   2
HETATM    2  N   UNL     1     -41.517  57.092 -53.216  1.00  0.00    -0.354 N 
HETATM    3  C   UNL     1     -41.069  55.812 -53.469  1.00  0.00     0.231 C 
HETATM    4  O   UNL     1     -40.323  55.563 -54.414  1.00  0.00    -0.272 OA
HETATM    5  H   UNL     1     -42.226  57.241 -52.507  1.00  0.00     0.162 HD
BRANCH   3   6
HETATM    6  C   UNL     1     -41.552  54.730 -52.461  1.00  0.00     0.072 C 
HETATM    7  C   UNL     1     -43.108  54.739 -52.495  1.00  0.00     0.050 C 
HETATM    8  C   UNL     1     -43.731  53.989 -51.322  1.00  0.00     0.169 C 
HETATM    9  O   UNL     1     -43.253  54.493 -50.080  1.00  0.00    -0.391 OA
HETATM   10  C   UNL     1     -41.840  54.350 -49.956  1.00  0.00     0.169 C 
HETATM   11  C   UNL     1     -41.143  55.175 -51.026  1.00  0.00     0.050 C 
BRANCH   6  12
HETATM   12  C   UNL     1     -40.889  53.383 -52.832  1.00  0.00    -0.040 A 
HETATM   13  C   UNL     1     -39.921  52.824 -51.973  1.00  0.00     0.008 A 
HETATM   14  C   UNL     1     -39.289  51.615 -52.274  1.00  0.00     0.001 A 
HETATM   15  C   UNL     1     -39.597  50.942 -53.451  1.00  0.00     0.000 A 
HETATM   16  C   UNL     1     -40.528  51.485 -54.328  1.00  0.00     0.001 A 
HETATM   17  C   UNL     1     -41.164  52.694 -54.026  1.00  0.00     0.008 A 
ENDBRANCH   6  12
ENDBRANCH   3   6
ENDBRANCH   1   2
BRANCH   1  18
HETATM   18  C   UNL     1     -42.347  58.615 -54.884  1.00  0.00     0.084 A 
HETATM   19  N   UNL     1     -42.383  58.137 -56.092  1.00  0.00    -0.171 NA
HETATM   20  N   UNL     1     -43.447  58.427 -56.910  1.00  0.00    -0.229 N 
HETATM   21  C   UNL     1     -44.485  59.287 -56.550  1.00  0.00     0.275 A 
HETATM   22  O   UNL     1     -45.390  59.632 -57.307  1.00  0.00    -0.266 OA
HETATM   23  C   UNL     1     -44.472  59.796 -55.166  1.00  0.00     0.046 A 
HETATM   24  C   UNL     1     -43.417  59.468 -54.322  1.00  0.00     0.008 A 
HETATM   25  C   UNL     1     -45.522  60.605 -54.711  1.00  0.00     0.018 A 
HETATM   26  C   UNL     1     -43.417  59.950 -53.006  1.00  0.00     0.014 A 
HETATM   27  C   UNL     1     -44.465  60.753 -52.550  1.00  0.00     0.001 A 
HETATM   28  C   UNL     1     -45.517  61.083 -53.402  1.00  0.00     0.001 A 
BRANCH  20  29
HETATM   29  C   UNL     1     -43.366  57.976 -58.300  1.00  0.00     0.114 C 
HETATM   30  C   UNL     1     -41.964  58.164 -58.885  1.00  0.00     0.027 C 
HETATM   31  C   UNL     1     -41.972  57.242 -60.091  1.00  0.00     0.002 C 
HETATM   32  C   UNL     1     -42.682  55.998 -59.578  1.00  0.00     0.002 C 
HETATM   33  C   UNL     1     -43.706  56.498 -58.555  1.00  0.00     0.027 C 
ENDBRANCH  20  29
ENDBRANCH   1  18
TORSDOF 5
ENDMDL
MODEL 5
REMARK VINA RESULT:      -8.5      1.375      2.747
REMARK  5 active torsions:
REMARK  status: ('A' for Active; 'I' for Inactive)
REMARK    1  A    between atoms: C_4  and  C_5 
REMARK    2  A    between atoms: C_5  and  C_6 
REMARK       I    between atoms: C_6  and  N_7 
REMARK    3  A    between atoms: N_7  and  C_8 
REMARK    4  A    between atoms: C_8  and  C_9 
REMARK    5  A    between atoms: N_11  and  C_12 
ROOT
HETATM    1  C   UNL     1     -42.616  54.697 -55.984  1.00  0.00     0.184 C 
ENDROOT
BRANCH   1   2
HETATM    2  N   UNL     1     -43.355  55.874 -56.395  1.00  0.00    -0.354 N 
HETATM    3  C   UNL     1     -43.344  56.353 -57.688  1.00  0.00     0.231 C 
HETATM    4  O   UNL     1     -42.694  55.803 -58.576  1.00  0.00    -0.272 OA
HETATM    5  H   UNL     1     -43.800  56.419 -55.665  1.00  0.00     0.162 HD
BRANCH   3   6
HETATM    6  C   UNL     1     -44.231  57.606 -57.938  1.00  0.00     0.072 C 
HETATM    7  C   UNL     1     -44.807  58.036 -56.558  1.00  0.00     0.050 C 
HETATM    8  C   UNL     1     -45.962  59.027 -56.680  1.00  0.00     0.169 C 
HETATM    9  O   UNL     1     -46.992  58.512 -57.517  1.00  0.00    -0.391 OA
HETATM   10  C   UNL     1     -46.526  58.257 -58.839  1.00  0.00     0.169 C 
HETATM   11  C   UNL     1     -45.450  57.183 -58.809  1.00  0.00     0.050 C 
BRANCH   6  12
HETATM   12  C   UNL     1     -43.379  58.674 -58.662  1.00  0.00    -0.040 A 
HETATM   13  C   UNL     1     -43.458  58.795 -60.064  1.00  0.00     0.008 A 
HETATM   14  C   UNL     1     -42.698  59.739 -60.759  1.00  0.00     0.001 A 
HETATM   15  C   UNL     1     -41.826  60.574 -60.072  1.00  0.00     0.000 A 
HETATM   16  C   UNL     1     -41.707  60.458 -58.692  1.00  0.00     0.001 A 
HETATM   17  C   UNL     1     -42.471  59.515 -57.994  1.00  0.00     0.008 A 
ENDBRANCH   6  12
ENDBRANCH   3   6
ENDBRANCH   1   2
BRANCH   1  18
HETATM   18  C   UNL     1     -42.278  54.845 -54.505  1.00  0.00     0.084 A 
HETATM   19  N   UNL     1     -42.812  55.852 -53.879  1.00  0.00    -0.171 NA
HETATM   20  N   UNL     1     -42.565  56.033 -52.540  1.00  0.00    -0.229 N 
HETATM   21  C   UNL     1     -41.692  55.233 -51.802  1.00  0.00     0.275 A 
HETATM   22  O   UNL     1     -41.386  55.444 -50.630  1.00  0.00    -0.266 OA
HETATM   23  C   UNL     1     -41.119  54.065 -52.495  1.00  0.00     0.046 A 
HETATM   24  C   UNL     1     -41.403  53.854 -53.840  1.00  0.00     0.008 A 
HETATM   25  C   UNL     1     -40.293  53.175 -51.795  1.00  0.00     0.018 A 
HETATM   26  C   UNL     1     -40.859  52.738 -54.489  1.00  0.00     0.014 A 
HETATM   27  C   UNL     1     -40.039  51.848 -53.791  1.00  0.00     0.001 A 
HETATM   28  C   UNL     1     -39.754  52.066 -52.445  1.00  0.00     0.001 A 
BRANCH  20  29
HETATM   29  C   UNL     1     -43.081  57.255 -51.924  1.00  0.00     0.114 C 
HETATM   30  C   UNL     1     -43.364  58.347 -52.959  1.00  0.00     0.027 C 
HETATM   31  C   UNL     1     -44.292  59.291 -52.214  1.00  0.00     0.002 C 
HETATM   32  C   UNL     1     -45.229  58.349 -51.472  1.00  0.00     0.002 C 
HETATM   33  C   UNL     1     -44.390  57.115 -51.129  1.00  0.00     0.027 C 
ENDBRANCH  20  29
ENDBRANCH   1  18
TORSDOF 5
ENDMDL
MODEL 6
REMARK VINA RESULT:      -8.3      2.501      5.136
REMARK  5 active torsions:
REMARK  status: ('A' for Active; 'I' for Inactive)
REMARK    1  A    between atoms: C_4  and  C_5 
REMARK    2  A    between atoms: C_5  and  C_6 
REMARK       I    between atoms: C_6  and  N_7 
REMARK    3  A    between atoms: N_7  and  C_8 
REMARK    4  A    between atoms: C_8  and  C_9 
REMARK    5  A    between atoms: N_11  and  C_12 
ROOT
HETATM    1  C   UNL     1     -43.255  55.924 -51.081  1.00  0.00     0.184 C 
ENDROOT
BRANCH   1   2
HETATM    2  N   UNL     1     -43.241  57.364 -51.249  1.00  0.00    -0.354 N 
HETATM    3  C   UNL     1     -44.383  58.135 -51.200  1.00  0.00     0.231 C 
HETATM    4  O   UNL     1     -45.492  57.638 -51.014  1.00  0.00    -0.272 OA
HETATM    5  H   UNL     1     -42.363  57.788 -51.526  1.00  0.00     0.162 HD
BRANCH   3   6
HETATM    6  C   UNL     1     -44.155  59.665 -51.366  1.00  0.00     0.072 C 
HETATM    7  C   UNL     1     -42.835  60.011 -50.619  1.00  0.00     0.050 C 
HETATM    8  C   UNL     1     -42.656  61.510 -50.394  1.00  0.00     0.169 C 
HETATM    9  O   UNL     1     -43.778  62.063 -49.715  1.00  0.00    -0.391 OA
HETATM   10  C   UNL     1     -44.984  61.899 -50.456  1.00  0.00     0.169 C 
HETATM   11  C   UNL     1     -45.293  60.418 -50.617  1.00  0.00     0.050 C 
BRANCH   6  12
HETATM   12  C   UNL     1     -44.170  60.002 -52.876  1.00  0.00    -0.040 A 
HETATM   13  C   UNL     1     -43.005  60.506 -53.488  1.00  0.00     0.008 A 
HETATM   14  C   UNL     1     -42.977  60.834 -54.846  1.00  0.00     0.001 A 
HETATM   15  C   UNL     1     -44.120  60.682 -55.623  1.00  0.00     0.000 A 
HETATM   16  C   UNL     1     -45.290  60.213 -55.038  1.00  0.00     0.001 A 
HETATM   17  C   UNL     1     -45.318  59.882 -53.679  1.00  0.00     0.008 A 
ENDBRANCH   6  12
ENDBRANCH   3   6
ENDBRANCH   1   2
BRANCH   1  18
HETATM   18  C   UNL     1     -42.375  55.314 -52.166  1.00  0.00     0.084 A 
HETATM   19  N   UNL     1     -42.430  55.862 -53.343  1.00  0.00    -0.171 NA
HETATM   20  N   UNL     1     -41.649  55.374 -54.361  1.00  0.00    -0.229 N 
HETATM   21  C   UNL     1     -40.833  54.249 -54.237  1.00  0.00     0.275 A 
HETATM   22  O   UNL     1     -40.206  53.744 -55.165  1.00  0.00    -0.266 OA
HETATM   23  C   UNL     1     -40.733  53.651 -52.893  1.00  0.00     0.046 A 
HETATM   24  C   UNL     1     -41.490  54.171 -51.849  1.00  0.00     0.008 A 
HETATM   25  C   UNL     1     -39.874  52.564 -52.676  1.00  0.00     0.018 A 
HETATM   26  C   UNL     1     -41.383  53.601 -50.574  1.00  0.00     0.014 A 
HETATM   27  C   UNL     1     -40.525  52.520 -50.356  1.00  0.00     0.001 A 
HETATM   28  C   UNL     1     -39.772  52.000 -51.406  1.00  0.00     0.001 A 
BRANCH  20  29
HETATM   29  C   UNL     1     -41.855  55.941 -55.694  1.00  0.00     0.114 C 
HETATM   30  C   UNL     1     -42.827  55.106 -56.531  1.00  0.00     0.027 C 
HETATM   31  C   UNL     1     -43.252  56.071 -57.624  1.00  0.00     0.002 C 
HETATM   32  C   UNL     1     -43.448  57.383 -56.878  1.00  0.00     0.002 C 
HETATM   33  C   UNL     1     -42.419  57.372 -55.744  1.00  0.00     0.027 C 
ENDBRANCH  20  29
ENDBRANCH   1  18
TORSDOF 5
ENDMDL
MODEL 7
REMARK VINA RESULT:      -8.2      2.356      7.252
REMARK  5 active torsions:
REMARK  status: ('A' for Active; 'I' for Inactive)
REMARK    1  A    between atoms: C_4  and  C_5 
REMARK    2  A    between atoms: C_5  and  C_6 
REMARK       I    between atoms: C_6  and  N_7 
REMARK    3  A    between atoms: N_7  and  C_8 
REMARK    4  A    between atoms: C_8  and  C_9 
REMARK    5  A    between atoms: N_11  and  C_12 
ROOT
HETATM    1  C   UNL     1     -42.040  59.543 -55.813  1.00  0.00     0.184 C 
ENDROOT
BRANCH   1   2
HETATM    2  N   UNL     1     -42.628  59.495 -54.489  1.00  0.00    -0.354 N 
HETATM    3  C   UNL     1     -41.875  59.503 -53.333  1.00  0.00     0.231 C 
HETATM    4  O   UNL     1     -40.646  59.548 -53.362  1.00  0.00    -0.272 OA
HETATM    5  H   UNL     1     -43.627  59.334 -54.433  1.00  0.00     0.162 HD
BRANCH   3   6
HETATM    6  C   UNL     1     -42.693  59.483 -52.011  1.00  0.00     0.072 C 
HETATM    7  C   UNL     1     -44.134  59.956 -52.361  1.00  0.00     0.050 C 
HETATM    8  C   UNL     1     -44.954  60.322 -51.126  1.00  0.00     0.169 C 
HETATM    9  O   UNL     1     -44.283  61.297 -50.336  1.00  0.00    -0.391 OA
HETATM   10  C   UNL     1     -43.021  60.826 -49.868  1.00  0.00     0.169 C 
HETATM   11  C   UNL     1     -42.102  60.554 -51.048  1.00  0.00     0.050 C 
BRANCH   6  12
HETATM   12  C   UNL     1     -42.592  58.069 -51.392  1.00  0.00    -0.040 A 
HETATM   13  C   UNL     1     -41.390  57.662 -50.779  1.00  0.00     0.008 A 
HETATM   14  C   UNL     1     -41.251  56.390 -50.217  1.00  0.00     0.001 A 
HETATM   15  C   UNL     1     -42.306  55.486 -50.271  1.00  0.00     0.000 A 
HETATM   16  C   UNL     1     -43.493  55.853 -50.894  1.00  0.00     0.001 A 
HETATM   17  C   UNL     1     -43.634  57.127 -51.454  1.00  0.00     0.008 A 
ENDBRANCH   6  12
ENDBRANCH   3   6
ENDBRANCH   1   2
BRANCH   1  18
HETATM   18  C   UNL     1     -42.496  58.305 -56.577  1.00  0.00     0.084 A 
HETATM   19  N   UNL     1     -42.403  57.167 -55.957  1.00  0.00    -0.171 NA
HETATM   20  N   UNL     1     -42.815  56.014 -56.580  1.00  0.00    -0.229 N 
HETATM   21  C   UNL     1     -43.266  55.970 -57.900  1.00  0.00     0.275 A 
HETATM   22  O   UNL     1     -43.543  54.934 -58.501  1.00  0.00    -0.266 OA
HETATM   23  C   UNL     1     -43.416  57.263 -58.592  1.00  0.00     0.046 A 
HETATM   24  C   UNL     1     -43.040  58.437 -57.947  1.00  0.00     0.008 A 
HETATM   25  C   UNL     1     -43.935  57.302 -59.893  1.00  0.00     0.018 A 
HETATM   26  C   UNL     1     -43.192  59.662 -58.609  1.00  0.00     0.014 A 
HETATM   27  C   UNL     1     -43.713  59.702 -59.905  1.00  0.00     0.001 A 
HETATM   28  C   UNL     1     -44.083  58.523 -60.549  1.00  0.00     0.001 A 
BRANCH  20  29
HETATM   29  C   UNL     1     -42.560  54.751 -55.888  1.00  0.00     0.114 C 
HETATM   30  C   UNL     1     -41.078  54.570 -55.548  1.00  0.00     0.027 C 
HETATM   31  C   UNL     1     -41.104  53.499 -54.471  1.00  0.00     0.002 C 
HETATM   32  C   UNL     1     -42.287  53.902 -53.603  1.00  0.00     0.002 C 
HETATM   33  C   UNL     1     -43.299  54.545 -54.555  1.00  0.00     0.027 C 
ENDBRANCH  20  29
ENDBRANCH   1  18
TORSDOF 5
ENDMDL
MODEL 8
REMARK VINA RESULT:      -8.2      2.552      5.997
REMARK  5 active torsions:
REMARK  status: ('A' for Active; 'I' for Inactive)
REMARK    1  A    between atoms: C_4  and  C_5 
REMARK    2  A    between atoms: C_5  and  C_6 
REMARK       I    between atoms: C_6  and  N_7 
REMARK    3  A    between atoms: N_7  and  C_8 
REMARK    4  A    between atoms: C_8  and  C_9 
REMARK    5  A    between atoms: N_11  and  C_12 
ROOT
HETATM    1  C   UNL     1     -43.406  55.741 -51.247  1.00  0.00     0.184 C 
ENDROOT
BRANCH   1   2
HETATM    2  N   UNL     1     -43.064  57.146 -51.149  1.00  0.00    -0.354 N 
HETATM    3  C   UNL     1     -43.816  58.143 -51.733  1.00  0.00     0.231 C 
HETATM    4  O   UNL     1     -44.830  57.893 -52.383  1.00  0.00    -0.272 OA
HETATM    5  H   UNL     1     -42.170  57.376 -50.728  1.00  0.00     0.162 HD
BRANCH   3   6
HETATM    6  C   UNL     1     -43.303  59.591 -51.483  1.00  0.00     0.072 C 
HETATM    7  C   UNL     1     -44.080  60.141 -50.253  1.00  0.00     0.050 C 
HETATM    8  C   UNL     1     -43.947  61.653 -50.096  1.00  0.00     0.169 C 
HETATM    9  O   UNL     1     -44.344  62.329 -51.284  1.00  0.00    -0.391 OA
HETATM   10  C   UNL     1     -43.540  61.958 -52.401  1.00  0.00     0.169 C 
HETATM   11  C   UNL     1     -43.716  60.477 -52.695  1.00  0.00     0.050 C 
BRANCH   6  12
HETATM   12  C   UNL     1     -41.765  59.547 -51.331  1.00  0.00    -0.040 A 
HETATM   13  C   UNL     1     -40.967  59.166 -52.428  1.00  0.00     0.008 A 
HETATM   14  C   UNL     1     -39.575  59.102 -52.331  1.00  0.00     0.001 A 
HETATM   15  C   UNL     1     -38.946  59.402 -51.128  1.00  0.00     0.000 A 
HETATM   16  C   UNL     1     -39.711  59.755 -50.022  1.00  0.00     0.001 A 
HETATM   17  C   UNL     1     -41.105  59.821 -50.120  1.00  0.00     0.008 A 
ENDBRANCH   6  12
ENDBRANCH   3   6
ENDBRANCH   1   2
BRANCH   1  18
HETATM   18  C   UNL     1     -42.481  55.100 -52.276  1.00  0.00     0.084 A 
HETATM   19  N   UNL     1     -42.517  55.588 -53.480  1.00  0.00    -0.171 NA
HETATM   20  N   UNL     1     -41.696  55.071 -54.452  1.00  0.00    -0.229 N 
HETATM   21  C   UNL     1     -40.858  53.974 -54.249  1.00  0.00     0.275 A 
HETATM   22  O   UNL     1     -40.193  53.439 -55.134  1.00  0.00    -0.266 OA
HETATM   23  C   UNL     1     -40.780  53.446 -52.875  1.00  0.00     0.046 A 
HETATM   24  C   UNL     1     -41.579  53.997 -51.879  1.00  0.00     0.008 A 
HETATM   25  C   UNL     1     -39.903  52.393 -52.581  1.00  0.00     0.018 A 
HETATM   26  C   UNL     1     -41.494  53.494 -50.574  1.00  0.00     0.014 A 
HETATM   27  C   UNL     1     -40.617  52.446 -50.280  1.00  0.00     0.001 A 
HETATM   28  C   UNL     1     -39.822  51.894 -51.282  1.00  0.00     0.001 A 
BRANCH  20  29
HETATM   29  C   UNL     1     -41.878  55.566 -55.816  1.00  0.00     0.114 C 
HETATM   30  C   UNL     1     -42.994  54.822 -56.555  1.00  0.00     0.027 C 
HETATM   31  C   UNL     1     -43.326  55.759 -57.703  1.00  0.00     0.002 C 
HETATM   32  C   UNL     1     -43.302  57.134 -57.053  1.00  0.00     0.002 C 
HETATM   33  C   UNL     1     -42.236  57.055 -55.956  1.00  0.00     0.027 C 
ENDBRANCH  20  29
ENDBRANCH   1  18
TORSDOF 5
ENDMDL
MODEL 9
REMARK VINA RESULT:      -8.2      2.030      4.851
REMARK  5 active torsions:
REMARK  status: ('A' for Active; 'I' for Inactive)
REMARK    1  A    between atoms: C_4  and  C_5 
REMARK    2  A    between atoms: C_5  and  C_6 
REMARK       I    between atoms: C_6  and  N_7 
REMARK    3  A    between atoms: N_7  and  C_8 
REMARK    4  A    between atoms: C_8  and  C_9 
REMARK    5  A    between atoms: N_11  and  C_12 
ROOT
HETATM    1  C   UNL     1     -45.023  57.169 -54.794  1.00  0.00     0.184 C 
ENDROOT
BRANCH   1   2
HETATM    2  N   UNL     1     -44.483  57.264 -56.135  1.00  0.00    -0.354 N 
HETATM    3  C   UNL     1     -44.776  58.307 -56.989  1.00  0.00     0.231 C 
HETATM    4  O   UNL     1     -45.525  59.224 -56.657  1.00  0.00    -0.272 OA
HETATM    5  H   UNL     1     -43.964  56.466 -56.482  1.00  0.00     0.162 HD
BRANCH   3   6
HETATM    6  C   UNL     1     -44.069  58.247 -58.373  1.00  0.00     0.072 C 
HETATM    7  C   UNL     1     -42.539  58.342 -58.106  1.00  0.00     0.050 C 
HETATM    8  C   UNL     1     -41.734  58.646 -59.367  1.00  0.00     0.169 C 
HETATM    9  O   UNL     1     -42.208  59.827 -60.005  1.00  0.00    -0.391 OA
HETATM   10  C   UNL     1     -43.571  59.707 -60.404  1.00  0.00     0.169 C 
HETATM   11  C   UNL     1     -44.453  59.523 -59.180  1.00  0.00     0.050 C 
BRANCH   6  12
HETATM   12  C   UNL     1     -44.535  56.968 -59.107  1.00  0.00    -0.040 A 
HETATM   13  C   UNL     1     -45.825  56.922 -59.675  1.00  0.00     0.008 A 
HETATM   14  C   UNL     1     -46.290  55.784 -60.337  1.00  0.00     0.001 A 
HETATM   15  C   UNL     1     -45.485  54.656 -60.435  1.00  0.00     0.000 A 
HETATM   16  C   UNL     1     -44.219  54.665 -59.860  1.00  0.00     0.001 A 
HETATM   17  C   UNL     1     -43.750  55.805 -59.199  1.00  0.00     0.008 A 
ENDBRANCH   6  12
ENDBRANCH   3   6
ENDBRANCH   1   2
BRANCH   1  18
HETATM   18  C   UNL     1     -43.860  57.228 -53.811  1.00  0.00     0.084 A 
HETATM   19  N   UNL     1     -42.950  56.306 -53.923  1.00  0.00    -0.171 NA
HETATM   20  N   UNL     1     -41.865  56.312 -53.082  1.00  0.00    -0.229 N 
HETATM   21  C   UNL     1     -41.705  57.220 -52.034  1.00  0.00     0.275 A 
HETATM   22  O   UNL     1     -40.791  57.174 -51.214  1.00  0.00    -0.266 OA
HETATM   23  C   UNL     1     -42.710  58.293 -51.931  1.00  0.00     0.046 A 
HETATM   24  C   UNL     1     -43.788  58.315 -52.810  1.00  0.00     0.008 A 
HETATM   25  C   UNL     1     -42.573  59.285 -50.949  1.00  0.00     0.018 A 
HETATM   26  C   UNL     1     -44.734  59.343 -52.709  1.00  0.00     0.014 A 
HETATM   27  C   UNL     1     -44.596  60.334 -51.733  1.00  0.00     0.001 A 
HETATM   28  C   UNL     1     -43.518  60.305 -50.852  1.00  0.00     0.001 A 
BRANCH  20  29
HETATM   29  C   UNL     1     -40.948  55.175 -53.164  1.00  0.00     0.114 C 
HETATM   30  C   UNL     1     -41.619  53.863 -52.748  1.00  0.00     0.027 C 
HETATM   31  C   UNL     1     -40.699  52.808 -53.338  1.00  0.00     0.002 C 
HETATM   32  C   UNL     1     -40.361  53.365 -54.713  1.00  0.00     0.002 C 
HETATM   33  C   UNL     1     -40.344  54.888 -54.550  1.00  0.00     0.027 C 
ENDBRANCH  20  29
ENDBRANCH   1  18
TORSDOF 5
ENDMDL
MODEL 10
REMARK VINA RESULT:      -8.1      1.864      7.506
REMARK  5 active torsions:
REMARK  status: ('A' for Active; 'I' for Inactive)
REMARK    1  A    between atoms: C_4  and  C_5 
REMARK    2  A    between atoms: C_5  and  C_6 
REMARK       I    between atoms: C_6  and  N_7 
REMARK    3  A    between atoms: N_7  and  C_8 
REMARK    4  A    between atoms: C_8  and  C_9 
REMARK    5  A    between atoms: N_11  and  C_12 
ROOT
HETATM    1  C   UNL     1     -42.286  55.325 -56.561  1.00  0.00     0.184 C 
ENDROOT
BRANCH   1   2
HETATM    2  N   UNL     1     -42.340  54.869 -55.186  1.00  0.00    -0.354 N 
HETATM    3  C   UNL     1     -41.249  54.895 -54.343  1.00  0.00     0.231 C 
HETATM    4  O   UNL     1     -40.153  55.308 -54.717  1.00  0.00    -0.272 OA
HETATM    5  H   UNL     1     -43.192  54.409 -54.885  1.00  0.00     0.162 HD
BRANCH   3   6
HETATM    6  C   UNL     1     -41.519  54.397 -52.895  1.00  0.00     0.072 C 
HETATM    7  C   UNL     1     -43.064  54.316 -52.724  1.00  0.00     0.050 C 
HETATM    8  C   UNL     1     -43.492  54.180 -51.265  1.00  0.00     0.169 C 
HETATM    9  O   UNL     1     -42.953  55.233 -50.473  1.00  0.00    -0.391 OA
HETATM   10  C   UNL     1     -41.528  55.233 -50.485  1.00  0.00     0.169 C 
HETATM   11  C   UNL     1     -41.024  55.485 -51.898  1.00  0.00     0.050 C 
BRANCH   6  12
HETATM   12  C   UNL     1     -40.758  53.067 -52.683  1.00  0.00    -0.040 A 
HETATM   13  C   UNL     1     -40.508  52.225 -53.785  1.00  0.00     0.008 A 
HETATM   14  C   UNL     1     -39.834  51.010 -53.638  1.00  0.00     0.001 A 
HETATM   15  C   UNL     1     -39.407  50.599 -52.381  1.00  0.00     0.000 A 
HETATM   16  C   UNL     1     -39.665  51.397 -51.273  1.00  0.00     0.001 A 
HETATM   17  C   UNL     1     -40.337  52.615 -51.420  1.00  0.00     0.008 A 
ENDBRANCH   6  12
ENDBRANCH   3   6
ENDBRANCH   1   2
BRANCH   1  18
HETATM   18  C   UNL     1     -42.877  56.729 -56.617  1.00  0.00     0.084 A 
HETATM   19  N   UNL     1     -42.872  57.411 -55.511  1.00  0.00    -0.171 NA
HETATM   20  N   UNL     1     -43.371  58.690 -55.495  1.00  0.00    -0.229 N 
HETATM   21  C   UNL     1     -43.974  59.297 -56.598  1.00  0.00     0.275 A 
HETATM   22  O   UNL     1     -44.513  60.401 -56.570  1.00  0.00    -0.266 OA
HETATM   23  C   UNL     1     -43.942  58.544 -57.865  1.00  0.00     0.046 A 
HETATM   24  C   UNL     1     -43.397  57.265 -57.894  1.00  0.00     0.008 A 
HETATM   25  C   UNL     1     -44.461  59.122 -59.032  1.00  0.00     0.018 A 
HETATM   26  C   UNL     1     -43.365  56.560 -59.104  1.00  0.00     0.014 A 
HETATM   27  C   UNL     1     -43.879  57.137 -60.269  1.00  0.00     0.001 A 
HETATM   28  C   UNL     1     -44.428  58.416 -60.234  1.00  0.00     0.001 A 
BRANCH  20  29
HETATM   29  C   UNL     1     -43.465  59.357 -54.196  1.00  0.00     0.114 C 
HETATM   30  C   UNL     1     -43.663  58.361 -53.050  1.00  0.00     0.027 C 
HETATM   31  C   UNL     1     -43.267  59.167 -51.826  1.00  0.00     0.002 C 
HETATM   32  C   UNL     1     -42.031  59.925 -52.288  1.00  0.00     0.002 C 
HETATM   33  C   UNL     1     -42.250  60.203 -53.778  1.00  0.00     0.027 C 
ENDBRANCH  20  29
ENDBRANCH   1  18
TORSDOF 5
ENDMDL
