MODEL 1
REMARK VINA RESULT:      -8.0      0.000      0.000
REMARK  4 active torsions:
REMARK  status: ('A' for Active; 'I' for Inactive)
REMARK    1  A    between atoms: C_9  and  C_10 
REMARK    2  A    between atoms: C_18  and  C_19 
REMARK       I    between atoms: C_19  and  N_20 
REMARK    3  A    between atoms: N_20  and  C_21 
REMARK    4  A    between atoms: C_24  and  O_25 
ROOT
HETATM    1  C   UNL     1     -44.125  58.697 -53.157  1.00  0.00     0.070 C 
HETATM    2  C   UNL     1     -43.607  58.898 -54.559  1.00  0.00     0.037 C 
HETATM    3  N   UNL     1     -43.655  60.206 -55.034  1.00  0.00    -0.192 N 
HETATM    4  C   UNL     1     -43.041  60.601 -56.166  1.00  0.00     0.725 A 
HETATM    5  N   UNL     1     -42.441  59.668 -56.967  1.00  0.00    -0.084 N 
HETATM    6  N   UNL     1     -41.821  60.247 -58.016  1.00  0.00    -0.149 NA
HETATM    7  C   UNL     1     -42.122  61.534 -57.801  1.00  0.00     0.275 A 
HETATM    8  N   UNL     1     -42.870  61.791 -56.680  1.00  0.00    -0.054 NA
HETATM    9  C   UNL     1     -42.440  58.227 -56.691  1.00  0.00     0.202 C 
HETATM   10  C   UNL     1     -43.057  57.927 -55.329  1.00  0.00     0.062 C 
HETATM   11  H   UNL     1     -44.003  60.925 -54.405  1.00  0.00     0.184 HD
ENDROOT
BRANCH  10  12
HETATM   12  C   UNL     1     -42.899  56.507 -54.911  1.00  0.00     0.256 C 
HETATM   13  N   UNL     1     -41.599  56.164 -54.611  1.00  0.00    -0.323 N 
HETATM   14  H   UNL     1     -40.895  56.884 -54.714  1.00  0.00     0.169 HD
HETATM   15  O   UNL     1     -43.902  55.812 -54.811  1.00  0.00    -0.267 OA
BRANCH  13  16
HETATM   16  C   UNL     1     -41.128  54.908 -54.175  1.00  0.00     0.035 A 
HETATM   17  C   UNL     1     -40.586  53.941 -55.021  1.00  0.00     0.032 A 
HETATM   18  C   UNL     1     -40.140  52.720 -54.504  1.00  0.00     0.039 A 
HETATM   19  C   UNL     1     -40.216  52.448 -53.137  1.00  0.00     0.068 A 
HETATM   20  C   UNL     1     -40.755  53.410 -52.288  1.00  0.00     0.039 A 
HETATM   21  C   UNL     1     -41.212  54.630 -52.806  1.00  0.00     0.032 A 
BRANCH  19  22
HETATM   22  O   UNL     1     -39.738  51.222 -52.769  1.00  0.00    -0.356 OA
HETATM   23  C   UNL     1     -39.693  50.219 -53.776  1.00  0.00     0.210 C 
ENDBRANCH  19  22
ENDBRANCH  13  16
ENDBRANCH  10  12
BRANCH   9  24
HETATM   24  C   UNL     1     -43.140  57.468 -57.819  1.00  0.00    -0.026 A 
HETATM   25  C   UNL     1     -44.518  57.612 -58.067  1.00  0.00     0.035 A 
HETATM   26  C   UNL     1     -45.139  56.893 -59.095  1.00  0.00     0.056 A 
HETATM   27 CL   UNL     1     -46.835  57.133 -59.326  1.00  0.00    -0.083 Cl
HETATM   28  C   UNL     1     -44.392  56.016 -59.886  1.00  0.00     0.055 A 
HETATM   29 CL   UNL     1     -45.092  55.097 -61.171  1.00  0.00    -0.083 Cl
HETATM   30  C   UNL     1     -43.026  55.857 -59.641  1.00  0.00     0.026 A 
HETATM   31  C   UNL     1     -42.405  56.574 -58.614  1.00  0.00     0.011 A 
ENDBRANCH   9  24
TORSDOF 4
ENDMDL
MODEL 2
REMARK VINA RESULT:      -7.9      1.790      2.382
REMARK  4 active torsions:
REMARK  status: ('A' for Active; 'I' for Inactive)
REMARK    1  A    between atoms: C_9  and  C_10 
REMARK    2  A    between atoms: C_18  and  C_19 
REMARK       I    between atoms: C_19  and  N_20 
REMARK    3  A    between atoms: N_20  and  C_21 
REMARK    4  A    between atoms: C_24  and  O_25 
ROOT
HETATM    1  C   UNL     1     -44.482  56.864 -50.968  1.00  0.00     0.070 C 
HETATM    2  C   UNL     1     -43.990  57.734 -52.098  1.00  0.00     0.037 C 
HETATM    3  N   UNL     1     -44.214  59.099 -51.945  1.00  0.00    -0.192 N 
HETATM    4  C   UNL     1     -43.655  60.031 -52.741  1.00  0.00     0.725 A 
HETATM    5  N   UNL     1     -42.930  59.636 -53.831  1.00  0.00    -0.084 N 
HETATM    6  N   UNL     1     -42.391  60.694 -54.472  1.00  0.00    -0.149 NA
HETATM    7  C   UNL     1     -42.865  61.701 -53.728  1.00  0.00     0.275 A 
HETATM    8  N   UNL     1     -43.646  61.336 -52.660  1.00  0.00    -0.054 NA
HETATM    9  C   UNL     1     -42.734  58.236 -54.226  1.00  0.00     0.202 C 
HETATM   10  C   UNL     1     -43.310  57.285 -53.182  1.00  0.00     0.062 C 
HETATM   11  H   UNL     1     -44.660  59.411 -51.086  1.00  0.00     0.184 HD
ENDROOT
BRANCH  10  12
HETATM   12  C   UNL     1     -42.962  55.859 -53.429  1.00  0.00     0.256 C 
HETATM   13  N   UNL     1     -41.712  55.511 -52.965  1.00  0.00    -0.323 N 
HETATM   14  H   UNL     1     -41.161  56.238 -52.527  1.00  0.00     0.169 HD
HETATM   15  O   UNL     1     -43.803  55.132 -53.942  1.00  0.00    -0.267 OA
BRANCH  13  16
HETATM   16  C   UNL     1     -41.101  54.241 -53.035  1.00  0.00     0.035 A 
HETATM   17  C   UNL     1     -40.857  53.556 -54.224  1.00  0.00     0.032 A 
HETATM   18  C   UNL     1     -40.242  52.299 -54.203  1.00  0.00     0.039 A 
HETATM   19  C   UNL     1     -39.852  51.711 -52.998  1.00  0.00     0.068 A 
HETATM   20  C   UNL     1     -40.092  52.391 -51.808  1.00  0.00     0.039 A 
HETATM   21  C   UNL     1     -40.717  53.645 -51.827  1.00  0.00     0.032 A 
BRANCH  19  22
HETATM   22  O   UNL     1     -39.258  50.487 -53.125  1.00  0.00    -0.356 OA
HETATM   23  C   UNL     1     -39.484  49.783 -54.339  1.00  0.00     0.210 C 
ENDBRANCH  19  22
ENDBRANCH  13  16
ENDBRANCH  10  12
BRANCH   9  24
HETATM   24  C   UNL     1     -43.320  57.986 -55.616  1.00  0.00    -0.026 A 
HETATM   25  C   UNL     1     -44.687  58.175 -55.890  1.00  0.00     0.035 A 
HETATM   26  C   UNL     1     -45.202  57.924 -57.168  1.00  0.00     0.056 A 
HETATM   27 CL   UNL     1     -46.893  58.183 -57.412  1.00  0.00    -0.083 Cl
HETATM   28  C   UNL     1     -44.357  57.475 -58.186  1.00  0.00     0.055 A 
HETATM   29 CL   UNL     1     -44.924  57.144 -59.784  1.00  0.00    -0.083 Cl
HETATM   30  C   UNL     1     -43.001  57.272 -57.921  1.00  0.00     0.026 A 
HETATM   31  C   UNL     1     -42.486  57.523 -56.647  1.00  0.00     0.011 A 
ENDBRANCH   9  24
TORSDOF 4
ENDMDL
MODEL 3
REMARK VINA RESULT:      -7.4      3.388      4.896
REMARK  4 active torsions:
REMARK  status: ('A' for Active; 'I' for Inactive)
REMARK    1  A    between atoms: C_9  and  C_10 
REMARK    2  A    between atoms: C_18  and  C_19 
REMARK       I    between atoms: C_19  and  N_20 
REMARK    3  A    between atoms: N_20  and  C_21 
REMARK    4  A    between atoms: C_24  and  O_25 
ROOT
HETATM    1  C   UNL     1     -44.943  54.950 -60.659  1.00  0.00     0.070 C 
HETATM    2  C   UNL     1     -45.164  56.340 -60.118  1.00  0.00     0.037 C 
HETATM    3  N   UNL     1     -46.196  57.058 -60.714  1.00  0.00    -0.192 N 
HETATM    4  C   UNL     1     -46.671  58.217 -60.217  1.00  0.00     0.725 A 
HETATM    5  N   UNL     1     -46.045  58.796 -59.148  1.00  0.00    -0.084 N 
HETATM    6  N   UNL     1     -46.692  59.908 -58.742  1.00  0.00    -0.149 NA
HETATM    7  C   UNL     1     -47.684  59.957 -59.641  1.00  0.00     0.275 A 
HETATM    8  N   UNL     1     -47.704  58.941 -60.561  1.00  0.00    -0.054 NA
HETATM    9  C   UNL     1     -44.845  58.250 -58.502  1.00  0.00     0.202 C 
HETATM   10  C   UNL     1     -44.484  56.884 -59.078  1.00  0.00     0.062 C 
HETATM   11  H   UNL     1     -46.737  56.595 -61.440  1.00  0.00     0.184 HD
ENDROOT
BRANCH  10  12
HETATM   12  C   UNL     1     -43.400  56.196 -58.325  1.00  0.00     0.256 C 
HETATM   13  N   UNL     1     -43.676  56.044 -56.984  1.00  0.00    -0.323 N 
HETATM   14  H   UNL     1     -44.554  56.415 -56.646  1.00  0.00     0.169 HD
HETATM   15  O   UNL     1     -42.429  55.783 -58.945  1.00  0.00    -0.267 OA
BRANCH  13  16
HETATM   16  C   UNL     1     -42.861  55.425 -56.012  1.00  0.00     0.035 A 
HETATM   17  C   UNL     1     -43.048  54.121 -55.552  1.00  0.00     0.032 A 
HETATM   18  C   UNL     1     -42.190  53.584 -54.587  1.00  0.00     0.039 A 
HETATM   19  C   UNL     1     -41.129  54.331 -54.072  1.00  0.00     0.068 A 
HETATM   20  C   UNL     1     -40.938  55.632 -54.527  1.00  0.00     0.039 A 
HETATM   21  C   UNL     1     -41.802  56.176 -55.487  1.00  0.00     0.032 A 
BRANCH  19  22
HETATM   22  O   UNL     1     -40.369  53.680 -53.142  1.00  0.00    -0.356 OA
HETATM   23  C   UNL     1     -40.743  53.834 -51.779  1.00  0.00     0.210 C 
ENDBRANCH  19  22
ENDBRANCH  13  16
ENDBRANCH  10  12
BRANCH   9  24
HETATM   24  C   UNL     1     -43.686  59.242 -58.606  1.00  0.00    -0.026 A 
HETATM   25  C   UNL     1     -43.176  59.660 -59.848  1.00  0.00     0.035 A 
HETATM   26  C   UNL     1     -42.103  60.557 -59.917  1.00  0.00     0.056 A 
HETATM   27 CL   UNL     1     -41.542  61.015 -61.486  1.00  0.00    -0.083 Cl
HETATM   28  C   UNL     1     -41.521  61.042 -58.742  1.00  0.00     0.055 A 
HETATM   29 CL   UNL     1     -40.194  62.149 -58.751  1.00  0.00    -0.083 Cl
HETATM   30  C   UNL     1     -42.012  60.624 -57.503  1.00  0.00     0.026 A 
HETATM   31  C   UNL     1     -43.083  59.729 -57.435  1.00  0.00     0.011 A 
ENDBRANCH   9  24
TORSDOF 4
ENDMDL
MODEL 4
REMARK VINA RESULT:      -7.0      3.645      6.783
REMARK  4 active torsions:
REMARK  status: ('A' for Active; 'I' for Inactive)
REMARK    1  A    between atoms: C_9  and  C_10 
REMARK    2  A    between atoms: C_18  and  C_19 
REMARK       I    between atoms: C_19  and  N_20 
REMARK    3  A    between atoms: N_20  and  C_21 
REMARK    4  A    between atoms: C_24  and  O_25 
ROOT
HETATM    1  C   UNL     1     -42.142  60.127 -55.555  1.00  0.00     0.070 C 
HETATM    2  C   UNL     1     -41.874  59.209 -54.388  1.00  0.00     0.037 C 
HETATM    3  N   UNL     1     -41.020  59.714 -53.412  1.00  0.00    -0.192 N 
HETATM    4  C   UNL     1     -40.845  59.129 -52.212  1.00  0.00     0.725 A 
HETATM    5  N   UNL     1     -41.428  57.917 -51.963  1.00  0.00    -0.084 N 
HETATM    6  N   UNL     1     -41.205  57.514 -50.695  1.00  0.00    -0.149 NA
HETATM    7  C   UNL     1     -40.446  58.522 -50.247  1.00  0.00     0.275 A 
HETATM    8  N   UNL     1     -40.201  59.529 -51.146  1.00  0.00    -0.054 NA
HETATM    9  C   UNL     1     -42.229  57.173 -52.943  1.00  0.00     0.202 C 
HETATM   10  C   UNL     1     -42.450  57.994 -54.210  1.00  0.00     0.062 C 
HETATM   11  H   UNL     1     -40.664  60.658 -53.538  1.00  0.00     0.184 HD
ENDROOT
BRANCH  10  12
HETATM   12  C   UNL     1     -43.420  57.373 -55.152  1.00  0.00     0.256 C 
HETATM   13  N   UNL     1     -43.058  57.500 -56.476  1.00  0.00    -0.323 N 
HETATM   14  H   UNL     1     -42.201  58.000 -56.676  1.00  0.00     0.169 HD
HETATM   15  O   UNL     1     -44.380  56.771 -54.690  1.00  0.00    -0.267 OA
BRANCH  13  16
HETATM   16  C   UNL     1     -43.754  57.010 -57.600  1.00  0.00     0.035 A 
HETATM   17  C   UNL     1     -43.391  55.864 -58.306  1.00  0.00     0.032 A 
HETATM   18  C   UNL     1     -44.141  55.446 -59.411  1.00  0.00     0.039 A 
HETATM   19  C   UNL     1     -45.269  56.157 -59.823  1.00  0.00     0.068 A 
HETATM   20  C   UNL     1     -45.638  57.301 -59.122  1.00  0.00     0.039 A 
HETATM   21  C   UNL     1     -44.881  57.727 -58.021  1.00  0.00     0.032 A 
BRANCH  19  22
HETATM   22  O   UNL     1     -45.910  55.633 -60.910  1.00  0.00    -0.356 OA
HETATM   23  C   UNL     1     -47.146  56.230 -61.280  1.00  0.00     0.210 C 
ENDBRANCH  19  22
ENDBRANCH  13  16
ENDBRANCH  10  12
BRANCH   9  24
HETATM   24  C   UNL     1     -41.583  55.819 -53.242  1.00  0.00    -0.026 A 
HETATM   25  C   UNL     1     -41.458  54.823 -52.257  1.00  0.00     0.035 A 
HETATM   26  C   UNL     1     -40.849  53.597 -52.551  1.00  0.00     0.056 A 
HETATM   27 CL   UNL     1     -40.740  52.432 -51.279  1.00  0.00    -0.083 Cl
HETATM   28  C   UNL     1     -40.350  53.354 -53.834  1.00  0.00     0.055 A 
HETATM   29 CL   UNL     1     -39.585  51.867 -54.268  1.00  0.00    -0.083 Cl
HETATM   30  C   UNL     1     -40.458  54.342 -54.816  1.00  0.00     0.026 A 
HETATM   31  C   UNL     1     -41.066  55.565 -54.523  1.00  0.00     0.011 A 
ENDBRANCH   9  24
TORSDOF 4
ENDMDL
MODEL 5
REMARK VINA RESULT:      -7.0      1.718      2.404
REMARK  4 active torsions:
REMARK  status: ('A' for Active; 'I' for Inactive)
REMARK    1  A    between atoms: C_9  and  C_10 
REMARK    2  A    between atoms: C_18  and  C_19 
REMARK       I    between atoms: C_19  and  N_20 
REMARK    3  A    between atoms: N_20  and  C_21 
REMARK    4  A    between atoms: C_24  and  O_25 
ROOT
HETATM    1  C   UNL     1     -44.856  58.024 -51.773  1.00  0.00     0.070 C 
HETATM    2  C   UNL     1     -44.732  58.811 -53.054  1.00  0.00     0.037 C 
HETATM    3  N   UNL     1     -45.711  59.778 -53.260  1.00  0.00    -0.192 N 
HETATM    4  C   UNL     1     -45.634  60.709 -54.230  1.00  0.00     0.725 A 
HETATM    5  N   UNL     1     -44.617  60.646 -55.143  1.00  0.00    -0.084 N 
HETATM    6  N   UNL     1     -44.657  61.691 -55.996  1.00  0.00    -0.149 NA
HETATM    7  C   UNL     1     -45.750  62.327 -55.556  1.00  0.00     0.275 A 
HETATM    8  N   UNL     1     -46.378  61.756 -54.478  1.00  0.00    -0.054 NA
HETATM    9  C   UNL     1     -43.594  59.595 -55.163  1.00  0.00     0.202 C 
HETATM   10  C   UNL     1     -43.723  58.679 -53.949  1.00  0.00     0.062 C 
HETATM   11  H   UNL     1     -46.412  59.904 -52.534  1.00  0.00     0.184 HD
ENDROOT
BRANCH  10  12
HETATM   12  C   UNL     1     -42.591  57.722 -53.812  1.00  0.00     0.256 C 
HETATM   13  N   UNL     1     -42.944  56.414 -54.064  1.00  0.00    -0.323 N 
HETATM   14  H   UNL     1     -43.912  56.232 -54.298  1.00  0.00     0.169 HD
HETATM   15  O   UNL     1     -41.478  58.165 -53.561  1.00  0.00    -0.267 OA
BRANCH  13  16
HETATM   16  C   UNL     1     -42.102  55.283 -54.030  1.00  0.00     0.035 A 
HETATM   17  C   UNL     1     -42.094  54.347 -52.997  1.00  0.00     0.032 A 
HETATM   18  C   UNL     1     -41.226  53.250 -53.045  1.00  0.00     0.039 A 
HETATM   19  C   UNL     1     -40.363  53.064 -54.126  1.00  0.00     0.068 A 
HETATM   20  C   UNL     1     -40.368  53.994 -55.160  1.00  0.00     0.039 A 
HETATM   21  C   UNL     1     -41.229  55.099 -55.109  1.00  0.00     0.032 A 
BRANCH  19  22
HETATM   22  O   UNL     1     -39.577  51.948 -54.045  1.00  0.00    -0.356 OA
HETATM   23  C   UNL     1     -39.591  51.237 -52.814  1.00  0.00     0.210 C 
ENDBRANCH  19  22
ENDBRANCH  13  16
ENDBRANCH  10  12
BRANCH   9  24
HETATM   24  C   UNL     1     -43.653  58.817 -56.478  1.00  0.00    -0.026 A 
HETATM   25  C   UNL     1     -44.875  58.428 -57.056  1.00  0.00     0.035 A 
HETATM   26  C   UNL     1     -44.903  57.702 -58.253  1.00  0.00     0.056 A 
HETATM   27 CL   UNL     1     -46.450  57.268 -58.889  1.00  0.00    -0.083 Cl
HETATM   28  C   UNL     1     -43.707  57.350 -58.884  1.00  0.00     0.055 A 
HETATM   29 CL   UNL     1     -43.665  56.454 -60.361  1.00  0.00    -0.083 Cl
HETATM   30  C   UNL     1     -42.488  57.720 -58.313  1.00  0.00     0.026 A 
HETATM   31  C   UNL     1     -42.460  58.445 -57.118  1.00  0.00     0.011 A 
ENDBRANCH   9  24
TORSDOF 4
ENDMDL
MODEL 6
REMARK VINA RESULT:      -7.0     16.716     19.645
REMARK  4 active torsions:
REMARK  status: ('A' for Active; 'I' for Inactive)
REMARK    1  A    between atoms: C_9  and  C_10 
REMARK    2  A    between atoms: C_18  and  C_19 
REMARK       I    between atoms: C_19  and  N_20 
REMARK    3  A    between atoms: N_20  and  C_21 
REMARK    4  A    between atoms: C_24  and  O_25 
ROOT
HETATM    1  C   UNL     1     -31.652  37.562 -54.502  1.00  0.00     0.070 C 
HETATM    2  C   UNL     1     -32.220  38.433 -53.409  1.00  0.00     0.037 C 
HETATM    3  N   UNL     1     -31.896  38.052 -52.111  1.00  0.00    -0.192 N 
HETATM    4  C   UNL     1     -32.131  38.828 -51.035  1.00  0.00     0.725 A 
HETATM    5  N   UNL     1     -32.830  39.994 -51.187  1.00  0.00    -0.084 N 
HETATM    6  N   UNL     1     -32.912  40.673 -50.024  1.00  0.00    -0.149 NA
HETATM    7  C   UNL     1     -32.268  39.834 -49.203  1.00  0.00     0.275 A 
HETATM    8  N   UNL     1     -31.777  38.692 -49.783  1.00  0.00    -0.054 NA
HETATM    9  C   UNL     1     -33.382  40.461 -52.464  1.00  0.00     0.202 C 
HETATM   10  C   UNL     1     -32.945  39.560 -53.615  1.00  0.00     0.062 C 
HETATM   11  H   UNL     1     -31.288  37.245 -51.992  1.00  0.00     0.184 HD
ENDROOT
BRANCH  10  12
HETATM   12  C   UNL     1     -33.307  40.099 -54.954  1.00  0.00     0.256 C 
HETATM   13  N   UNL     1     -34.594  39.793 -55.339  1.00  0.00    -0.323 N 
HETATM   14  H   UNL     1     -35.149  39.236 -54.701  1.00  0.00     0.169 HD
HETATM   15  O   UNL     1     -32.491  40.793 -55.545  1.00  0.00    -0.267 OA
BRANCH  13  16
HETATM   16  C   UNL     1     -35.237  40.167 -56.538  1.00  0.00     0.035 A 
HETATM   17  C   UNL     1     -35.419  39.314 -57.626  1.00  0.00     0.032 A 
HETATM   18  C   UNL     1     -36.070  39.768 -58.778  1.00  0.00     0.039 A 
HETATM   19  C   UNL     1     -36.558  41.073 -58.860  1.00  0.00     0.068 A 
HETATM   20  C   UNL     1     -36.380  41.928 -57.778  1.00  0.00     0.039 A 
HETATM   21  C   UNL     1     -35.719  41.479 -56.626  1.00  0.00     0.032 A 
BRANCH  19  22
HETATM   22  O   UNL     1     -37.179  41.378 -60.039  1.00  0.00    -0.356 OA
HETATM   23  C   UNL     1     -37.417  42.754 -60.305  1.00  0.00     0.210 C 
ENDBRANCH  19  22
ENDBRANCH  13  16
ENDBRANCH  10  12
BRANCH   9  24
HETATM   24  C   UNL     1     -34.904  40.581 -52.375  1.00  0.00    -0.026 A 
HETATM   25  C   UNL     1     -35.697  39.562 -51.815  1.00  0.00     0.035 A 
HETATM   26  C   UNL     1     -37.091  39.689 -51.759  1.00  0.00     0.056 A 
HETATM   27 CL   UNL     1     -37.984  38.387 -51.055  1.00  0.00    -0.083 Cl
HETATM   28  C   UNL     1     -37.710  40.833 -52.269  1.00  0.00     0.055 A 
HETATM   29 CL   UNL     1     -39.423  41.056 -52.235  1.00  0.00    -0.083 Cl
HETATM   30  C   UNL     1     -36.933  41.845 -52.838  1.00  0.00     0.026 A 
HETATM   31  C   UNL     1     -35.542  41.719 -52.893  1.00  0.00     0.011 A 
ENDBRANCH   9  24
TORSDOF 4
ENDMDL
MODEL 7
REMARK VINA RESULT:      -6.9      4.027      7.035
REMARK  4 active torsions:
REMARK  status: ('A' for Active; 'I' for Inactive)
REMARK    1  A    between atoms: C_9  and  C_10 
REMARK    2  A    between atoms: C_18  and  C_19 
REMARK       I    between atoms: C_19  and  N_20 
REMARK    3  A    between atoms: N_20  and  C_21 
REMARK    4  A    between atoms: C_24  and  O_25 
ROOT
HETATM    1  C   UNL     1     -42.948  61.822 -54.335  1.00  0.00     0.070 C 
HETATM    2  C   UNL     1     -43.445  60.861 -53.283  1.00  0.00     0.037 C 
HETATM    3  N   UNL     1     -43.964  61.448 -52.133  1.00  0.00    -0.192 N 
HETATM    4  C   UNL     1     -44.644  60.759 -51.196  1.00  0.00     0.725 A 
HETATM    5  N   UNL     1     -44.735  59.398 -51.298  1.00  0.00    -0.084 N 
HETATM    6  N   UNL     1     -45.504  58.882 -50.316  1.00  0.00    -0.149 NA
HETATM    7  C   UNL     1     -45.816  59.994 -49.638  1.00  0.00     0.275 A 
HETATM    8  N   UNL     1     -45.306  61.163 -50.144  1.00  0.00    -0.054 NA
HETATM    9  C   UNL     1     -44.106  58.608 -52.363  1.00  0.00     0.202 C 
HETATM   10  C   UNL     1     -43.474  59.513 -53.418  1.00  0.00     0.062 C 
HETATM   11  H   UNL     1     -43.997  62.464 -52.094  1.00  0.00     0.184 HD
ENDROOT
BRANCH  10  12
HETATM   12  C   UNL     1     -43.001  58.773 -54.619  1.00  0.00     0.256 C 
HETATM   13  N   UNL     1     -44.025  58.330 -55.429  1.00  0.00    -0.323 N 
HETATM   14  H   UNL     1     -44.971  58.530 -55.131  1.00  0.00     0.169 HD
HETATM   15  O   UNL     1     -41.796  58.682 -54.813  1.00  0.00    -0.267 OA
BRANCH  13  16
HETATM   16  C   UNL     1     -43.904  57.615 -56.639  1.00  0.00     0.035 A 
HETATM   17  C   UNL     1     -43.234  56.399 -56.765  1.00  0.00     0.032 A 
HETATM   18  C   UNL     1     -43.165  55.755 -58.006  1.00  0.00     0.039 A 
HETATM   19  C   UNL     1     -43.770  56.307 -59.136  1.00  0.00     0.068 A 
HETATM   20  C   UNL     1     -44.441  57.520 -59.016  1.00  0.00     0.039 A 
HETATM   21  C   UNL     1     -44.503  58.171 -57.776  1.00  0.00     0.032 A 
BRANCH  19  22
HETATM   22  O   UNL     1     -43.630  55.569 -60.278  1.00  0.00    -0.356 OA
HETATM   23  C   UNL     1     -44.784  54.888 -60.751  1.00  0.00     0.210 C 
ENDBRANCH  19  22
ENDBRANCH  13  16
ENDBRANCH  10  12
BRANCH   9  24
HETATM   24  C   UNL     1     -43.096  57.623 -51.772  1.00  0.00    -0.026 A 
HETATM   25  C   UNL     1     -43.277  56.231 -51.865  1.00  0.00     0.035 A 
HETATM   26  C   UNL     1     -42.346  55.350 -51.302  1.00  0.00     0.056 A 
HETATM   27 CL   UNL     1     -42.650  53.656 -51.464  1.00  0.00    -0.083 Cl
HETATM   28  C   UNL     1     -41.225  55.849 -50.634  1.00  0.00     0.055 A 
HETATM   29 CL   UNL     1     -40.037  54.821 -49.915  1.00  0.00    -0.083 Cl
HETATM   30  C   UNL     1     -41.043  57.230 -50.526  1.00  0.00     0.026 A 
HETATM   31  C   UNL     1     -41.971  58.110 -51.087  1.00  0.00     0.011 A 
ENDBRANCH   9  24
TORSDOF 4
ENDMDL
MODEL 8
REMARK VINA RESULT:      -6.8      3.434      6.982
REMARK  4 active torsions:
REMARK  status: ('A' for Active; 'I' for Inactive)
REMARK    1  A    between atoms: C_9  and  C_10 
REMARK    2  A    between atoms: C_18  and  C_19 
REMARK       I    between atoms: C_19  and  N_20 
REMARK    3  A    between atoms: N_20  and  C_21 
REMARK    4  A    between atoms: C_24  and  O_25 
ROOT
HETATM    1  C   UNL     1     -41.826  60.694 -57.495  1.00  0.00     0.070 C 
HETATM    2  C   UNL     1     -42.304  59.947 -56.275  1.00  0.00     0.037 C 
HETATM    3  N   UNL     1     -41.988  60.531 -55.052  1.00  0.00    -0.192 N 
HETATM    4  C   UNL     1     -42.515  60.123 -53.882  1.00  0.00     0.725 A 
HETATM    5  N   UNL     1     -43.305  59.007 -53.854  1.00  0.00    -0.084 N 
HETATM    6  N   UNL     1     -43.800  58.786 -52.618  1.00  0.00    -0.149 NA
HETATM    7  C   UNL     1     -43.234  59.793 -51.942  1.00  0.00     0.275 A 
HETATM    8  N   UNL     1     -42.438  60.633 -52.680  1.00  0.00    -0.054 NA
HETATM    9  C   UNL     1     -43.606  58.182 -55.030  1.00  0.00     0.202 C 
HETATM   10  C   UNL     1     -43.052  58.816 -56.302  1.00  0.00     0.062 C 
HETATM   11  H   UNL     1     -41.490  61.418 -55.067  1.00  0.00     0.184 HD
ENDROOT
BRANCH  10  12
HETATM   12  C   UNL     1     -43.500  58.130 -57.545  1.00  0.00     0.256 C 
HETATM   13  N   UNL     1     -44.855  58.240 -57.774  1.00  0.00    -0.323 N 
HETATM   14  H   UNL     1     -45.401  58.748 -57.090  1.00  0.00     0.169 HD
HETATM   15  O   UNL     1     -42.657  57.606 -58.260  1.00  0.00    -0.267 OA
BRANCH  13  16
HETATM   16  C   UNL     1     -45.579  57.715 -58.865  1.00  0.00     0.035 A 
HETATM   17  C   UNL     1     -45.448  56.408 -59.333  1.00  0.00     0.032 A 
HETATM   18  C   UNL     1     -46.208  55.968 -60.422  1.00  0.00     0.039 A 
HETATM   19  C   UNL     1     -47.117  56.818 -61.053  1.00  0.00     0.068 A 
HETATM   20  C   UNL     1     -47.253  58.123 -60.590  1.00  0.00     0.039 A 
HETATM   21  C   UNL     1     -46.485  58.569 -59.506  1.00  0.00     0.032 A 
BRANCH  19  22
HETATM   22  O   UNL     1     -47.797  56.255 -62.097  1.00  0.00    -0.356 OA
HETATM   23  C   UNL     1     -48.982  56.914 -62.525  1.00  0.00     0.210 C 
ENDBRANCH  19  22
ENDBRANCH  13  16
ENDBRANCH  10  12
BRANCH   9  24
HETATM   24  C   UNL     1     -43.091  56.757 -54.828  1.00  0.00    -0.026 A 
HETATM   25  C   UNL     1     -41.729  56.432 -54.973  1.00  0.00     0.035 A 
HETATM   26  C   UNL     1     -41.285  55.116 -54.798  1.00  0.00     0.056 A 
HETATM   27 CL   UNL     1     -39.595  54.810 -54.996  1.00  0.00    -0.083 Cl
HETATM   28  C   UNL     1     -42.197  54.105 -54.482  1.00  0.00     0.055 A 
HETATM   29 CL   UNL     1     -41.720  52.461 -54.254  1.00  0.00    -0.083 Cl
HETATM   30  C   UNL     1     -43.552  54.415 -54.348  1.00  0.00     0.026 A 
HETATM   31  C   UNL     1     -43.997  55.728 -54.522  1.00  0.00     0.011 A 
ENDBRANCH   9  24
TORSDOF 4
ENDMDL
MODEL 9
REMARK VINA RESULT:      -6.7      4.353      8.036
REMARK  4 active torsions:
REMARK  status: ('A' for Active; 'I' for Inactive)
REMARK    1  A    between atoms: C_9  and  C_10 
REMARK    2  A    between atoms: C_18  and  C_19 
REMARK       I    between atoms: C_19  and  N_20 
REMARK    3  A    between atoms: N_20  and  C_21 
REMARK    4  A    between atoms: C_24  and  O_25 
ROOT
HETATM    1  C   UNL     1     -43.863  54.454 -54.553  1.00  0.00     0.070 C 
HETATM    2  C   UNL     1     -43.329  55.238 -53.380  1.00  0.00     0.037 C 
HETATM    3  N   UNL     1     -42.997  54.485 -52.258  1.00  0.00    -0.192 N 
HETATM    4  C   UNL     1     -42.311  54.984 -51.212  1.00  0.00     0.725 A 
HETATM    5  N   UNL     1     -42.023  56.321 -51.174  1.00  0.00    -0.084 N 
HETATM    6  N   UNL     1     -41.275  56.632 -50.094  1.00  0.00    -0.149 NA
HETATM    7  C   UNL     1     -41.181  55.433 -49.506  1.00  0.00     0.275 A 
HETATM    8  N   UNL     1     -41.804  54.399 -50.158  1.00  0.00    -0.054 NA
HETATM    9  C   UNL     1     -42.442  57.282 -52.200  1.00  0.00     0.202 C 
HETATM   10  C   UNL     1     -43.101  56.574 -53.380  1.00  0.00     0.062 C 
HETATM   11  H   UNL     1     -43.109  53.476 -52.316  1.00  0.00     0.184 HD
ENDROOT
BRANCH  10  12
HETATM   12  C   UNL     1     -43.362  57.476 -54.536  1.00  0.00     0.256 C 
HETATM   13  N   UNL     1     -42.232  57.771 -55.268  1.00  0.00    -0.323 N 
HETATM   14  H   UNL     1     -41.358  57.371 -54.952  1.00  0.00     0.169 HD
HETATM   15  O   UNL     1     -44.516  57.811 -54.767  1.00  0.00    -0.267 OA
BRANCH  13  16
HETATM   16  C   UNL     1     -42.151  58.580 -56.420  1.00  0.00     0.035 A 
HETATM   17  C   UNL     1     -41.955  59.960 -56.393  1.00  0.00     0.032 A 
HETATM   18  C   UNL     1     -41.885  60.687 -57.587  1.00  0.00     0.039 A 
HETATM   19  C   UNL     1     -41.998  60.051 -58.823  1.00  0.00     0.068 A 
HETATM   20  C   UNL     1     -42.193  58.673 -58.857  1.00  0.00     0.039 A 
HETATM   21  C   UNL     1     -42.274  57.944 -57.662  1.00  0.00     0.032 A 
BRANCH  19  22
HETATM   22  O   UNL     1     -41.904  60.880 -59.905  1.00  0.00    -0.356 OA
HETATM   23  C   UNL     1     -41.921  60.271 -61.189  1.00  0.00     0.210 C 
ENDBRANCH  19  22
ENDBRANCH  13  16
ENDBRANCH  10  12
BRANCH   9  24
HETATM   24  C   UNL     1     -43.351  58.351 -51.591  1.00  0.00    -0.026 A 
HETATM   25  C   UNL     1     -42.907  59.668 -51.376  1.00  0.00     0.035 A 
HETATM   26  C   UNL     1     -43.754  60.624 -50.803  1.00  0.00     0.056 A 
HETATM   27 CL   UNL     1     -43.123  62.218 -50.576  1.00  0.00    -0.083 Cl
HETATM   28  C   UNL     1     -45.055  60.273 -50.430  1.00  0.00     0.055 A 
HETATM   29 CL   UNL     1     -46.153  61.400 -49.716  1.00  0.00    -0.083 Cl
HETATM   30  C   UNL     1     -45.501  58.965 -50.628  1.00  0.00     0.026 A 
HETATM   31  C   UNL     1     -44.656  58.010 -51.201  1.00  0.00     0.011 A 
ENDBRANCH   9  24
TORSDOF 4
ENDMDL
MODEL 10
REMARK VINA RESULT:      -6.7      3.678      7.445
REMARK  4 active torsions:
REMARK  status: ('A' for Active; 'I' for Inactive)
REMARK    1  A    between atoms: C_9  and  C_10 
REMARK    2  A    between atoms: C_18  and  C_19 
REMARK       I    between atoms: C_19  and  N_20 
REMARK    3  A    between atoms: N_20  and  C_21 
REMARK    4  A    between atoms: C_24  and  O_25 
ROOT
HETATM    1  C   UNL     1     -41.305  56.186 -49.651  1.00  0.00     0.070 C 
HETATM    2  C   UNL     1     -41.706  55.758 -51.041  1.00  0.00     0.037 C 
HETATM    3  N   UNL     1     -40.876  54.816 -51.641  1.00  0.00    -0.192 N 
HETATM    4  C   UNL     1     -41.198  54.167 -52.776  1.00  0.00     0.725 A 
HETATM    5  N   UNL     1     -42.332  54.521 -53.454  1.00  0.00    -0.084 N 
HETATM    6  N   UNL     1     -42.533  53.725 -54.525  1.00  0.00    -0.149 NA
HETATM    7  C   UNL     1     -41.457  52.933 -54.449  1.00  0.00     0.275 A 
HETATM    8  N   UNL     1     -40.614  53.173 -53.393  1.00  0.00    -0.054 NA
HETATM    9  C   UNL     1     -43.232  55.604 -53.042  1.00  0.00     0.202 C 
HETATM   10  C   UNL     1     -42.823  56.174 -51.687  1.00  0.00     0.062 C 
HETATM   11  H   UNL     1     -40.088  54.468 -51.100  1.00  0.00     0.184 HD
ENDROOT
BRANCH  10  12
HETATM   12  C   UNL     1     -43.815  57.132 -51.128  1.00  0.00     0.256 C 
HETATM   13  N   UNL     1     -43.480  58.453 -51.336  1.00  0.00    -0.323 N 
HETATM   14  H   UNL     1     -42.611  58.639 -51.820  1.00  0.00     0.169 HD
HETATM   15  O   UNL     1     -44.832  56.688 -50.612  1.00  0.00    -0.267 OA
BRANCH  13  16
HETATM   16  C   UNL     1     -44.215  59.590 -50.942  1.00  0.00     0.035 A 
HETATM   17  C   UNL     1     -43.749  60.548 -50.042  1.00  0.00     0.032 A 
HETATM   18  C   UNL     1     -44.544  61.650 -49.708  1.00  0.00     0.039 A 
HETATM   19  C   UNL     1     -45.809  61.819 -50.272  1.00  0.00     0.068 A 
HETATM   20  C   UNL     1     -46.280  60.867 -51.171  1.00  0.00     0.039 A 
HETATM   21  C   UNL     1     -45.488  59.757 -51.500  1.00  0.00     0.032 A 
BRANCH  19  22
HETATM   22  O   UNL     1     -46.473  62.942 -49.862  1.00  0.00    -0.356 OA
HETATM   23  C   UNL     1     -47.096  62.893 -48.585  1.00  0.00     0.210 C 
ENDBRANCH  19  22
ENDBRANCH  13  16
ENDBRANCH  10  12
BRANCH   9  24
HETATM   24  C   UNL     1     -43.298  56.684 -54.123  1.00  0.00    -0.026 A 
HETATM   25  C   UNL     1     -44.496  56.993 -54.791  1.00  0.00     0.035 A 
HETATM   26  C   UNL     1     -44.527  57.976 -55.788  1.00  0.00     0.056 A 
HETATM   27 CL   UNL     1     -46.044  58.288 -56.556  1.00  0.00    -0.083 Cl
HETATM   28  C   UNL     1     -43.357  58.658 -56.134  1.00  0.00     0.055 A 
HETATM   29 CL   UNL     1     -43.321  59.880 -57.355  1.00  0.00    -0.083 Cl
HETATM   30  C   UNL     1     -42.160  58.350 -55.485  1.00  0.00     0.026 A 
HETATM   31  C   UNL     1     -42.129  57.370 -54.490  1.00  0.00     0.011 A 
ENDBRANCH   9  24
TORSDOF 4
ENDMDL
