MODEL 1
REMARK VINA RESULT:      -7.5      0.000      0.000
REMARK  1 active torsions:
REMARK  status: ('A' for Active; 'I' for Inactive)
REMARK    1  A    between atoms: C_8  and  C_9 
ROOT
HETATM    1  C   UNL     1     -42.115  58.135 -56.865  1.00  0.00     0.073 C 
HETATM    2  C   UNL     1     -43.121  57.648 -55.886  1.00  0.00     0.062 C 
HETATM    3  N   UNL     1     -44.388  57.471 -56.278  1.00  0.00    -0.178 NA
HETATM    4  N   UNL     1     -45.001  57.005 -55.184  1.00  0.00    -0.262 N 
HETATM    5  H   UNL     1     -45.989  56.785 -55.248  1.00  0.00     0.191 HD
HETATM    6  C   UNL     1     -44.206  57.008 -54.073  1.00  0.00     0.134 C 
HETATM    7  C   UNL     1     -42.930  57.301 -54.509  1.00  0.00     0.032 C 
HETATM    8  C   UNL     1     -41.627  57.204 -53.789  1.00  0.00     0.119 C 
HETATM    9  S   UNL     1     -41.470  57.921 -52.133  1.00  0.00    -0.141 SA
HETATM   10  C   UNL     1     -43.169  58.309 -51.623  1.00  0.00     0.136 C 
HETATM   11  C   UNL     1     -43.712  59.599 -52.230  1.00  0.00     0.031 C 
HETATM   12  C   UNL     1     -44.143  57.133 -51.655  1.00  0.00     0.236 C 
HETATM   13  O   UNL     1     -44.530  56.597 -50.611  1.00  0.00    -0.272 OA
HETATM   14  N   UNL     1     -44.702  56.716 -52.831  1.00  0.00    -0.311 N 
HETATM   15  H   UNL     1     -45.530  56.140 -52.728  1.00  0.00     0.170 HD
ENDROOT
BRANCH   8  16
HETATM   16  C   UNL     1     -41.241  55.723 -53.847  1.00  0.00    -0.040 A 
HETATM   17  C   UNL     1     -41.455  54.905 -52.721  1.00  0.00     0.010 A 
HETATM   18  C   UNL     1     -41.081  53.558 -52.721  1.00  0.00     0.024 A 
HETATM   19  C   UNL     1     -40.495  53.002 -53.855  1.00  0.00     0.034 A 
HETATM   20 CL   UNL     1     -40.032  51.346 -53.855  1.00  0.00    -0.084 Cl
HETATM   21  C   UNL     1     -40.282  53.783 -54.986  1.00  0.00     0.024 A 
HETATM   22  C   UNL     1     -40.649  55.132 -54.980  1.00  0.00     0.010 A 
ENDBRANCH   8  16
TORSDOF 1
ENDMDL
MODEL 2
REMARK VINA RESULT:      -7.2      2.455      3.172
REMARK  1 active torsions:
REMARK  status: ('A' for Active; 'I' for Inactive)
REMARK    1  A    between atoms: C_8  and  C_9 
ROOT
HETATM    1  C   UNL     1     -40.875  54.181 -55.414  1.00  0.00     0.073 C 
HETATM    2  C   UNL     1     -42.142  54.652 -54.796  1.00  0.00     0.062 C 
HETATM    3  N   UNL     1     -43.298  54.081 -55.152  1.00  0.00    -0.178 NA
HETATM    4  N   UNL     1     -44.211  54.706 -54.398  1.00  0.00    -0.262 N 
HETATM    5  H   UNL     1     -45.181  54.426 -54.493  1.00  0.00     0.191 HD
HETATM    6  C   UNL     1     -43.698  55.747 -53.676  1.00  0.00     0.134 C 
HETATM    7  C   UNL     1     -42.327  55.671 -53.806  1.00  0.00     0.032 C 
HETATM    8  C   UNL     1     -41.254  56.387 -53.056  1.00  0.00     0.119 C 
HETATM    9  S   UNL     1     -41.362  58.182 -52.843  1.00  0.00    -0.141 SA
HETATM   10  C   UNL     1     -43.046  58.619 -53.361  1.00  0.00     0.136 C 
HETATM   11  C   UNL     1     -43.222  58.696 -54.875  1.00  0.00     0.031 C 
HETATM   12  C   UNL     1     -44.165  57.880 -52.628  1.00  0.00     0.236 C 
HETATM   13  O   UNL     1     -44.860  58.453 -51.783  1.00  0.00    -0.272 OA
HETATM   14  N   UNL     1     -44.503  56.601 -52.971  1.00  0.00    -0.311 N 
HETATM   15  H   UNL     1     -45.414  56.300 -52.646  1.00  0.00     0.170 HD
ENDROOT
BRANCH   8  16
HETATM   16  C   UNL     1     -41.109  55.627 -51.734  1.00  0.00    -0.040 A 
HETATM   17  C   UNL     1     -41.452  56.266 -50.526  1.00  0.00     0.010 A 
HETATM   18  C   UNL     1     -41.299  55.619 -49.295  1.00  0.00     0.024 A 
HETATM   19  C   UNL     1     -40.807  54.318 -49.253  1.00  0.00     0.034 A 
HETATM   20 CL   UNL     1     -40.615  53.523 -47.740  1.00  0.00    -0.084 Cl
HETATM   21  C   UNL     1     -40.471  53.659 -50.430  1.00  0.00     0.024 A 
HETATM   22  C   UNL     1     -40.618  54.309 -51.659  1.00  0.00     0.010 A 
ENDBRANCH   8  16
TORSDOF 1
ENDMDL
MODEL 3
REMARK VINA RESULT:      -7.1      1.905      2.384
REMARK  1 active torsions:
REMARK  status: ('A' for Active; 'I' for Inactive)
REMARK    1  A    between atoms: C_8  and  C_9 
ROOT
HETATM    1  C   UNL     1     -41.470  56.299 -55.795  1.00  0.00     0.073 C 
HETATM    2  C   UNL     1     -42.488  55.709 -54.888  1.00  0.00     0.062 C 
HETATM    3  N   UNL     1     -43.738  55.531 -55.329  1.00  0.00    -0.178 NA
HETATM    4  N   UNL     1     -44.368  54.963 -54.294  1.00  0.00    -0.262 N 
HETATM    5  H   UNL     1     -45.347  54.724 -54.404  1.00  0.00     0.191 HD
HETATM    6  C   UNL     1     -43.603  54.897 -53.163  1.00  0.00     0.134 C 
HETATM    7  C   UNL     1     -42.325  55.256 -53.538  1.00  0.00     0.032 C 
HETATM    8  C   UNL     1     -41.039  55.136 -52.791  1.00  0.00     0.119 C 
HETATM    9  S   UNL     1     -40.946  55.721 -51.079  1.00  0.00    -0.141 SA
HETATM   10  C   UNL     1     -42.668  56.023 -50.588  1.00  0.00     0.136 C 
HETATM   11  C   UNL     1     -43.231  57.343 -51.106  1.00  0.00     0.031 C 
HETATM   12  C   UNL     1     -43.608  54.828 -50.743  1.00  0.00     0.236 C 
HETATM   13  O   UNL     1     -44.008  54.200 -49.756  1.00  0.00    -0.272 OA
HETATM   14  N   UNL     1     -44.124  54.493 -51.963  1.00  0.00    -0.311 N 
HETATM   15  H   UNL     1     -44.937  53.890 -51.931  1.00  0.00     0.170 HD
ENDROOT
BRANCH   8  16
HETATM   16  C   UNL     1     -40.610  53.675 -52.956  1.00  0.00    -0.040 A 
HETATM   17  C   UNL     1     -40.125  52.964 -51.841  1.00  0.00     0.010 A 
HETATM   18  C   UNL     1     -39.688  51.641 -51.959  1.00  0.00     0.024 A 
HETATM   19  C   UNL     1     -39.739  51.001 -53.194  1.00  0.00     0.034 A 
HETATM   20 CL   UNL     1     -39.199  49.375 -53.341  1.00  0.00    -0.084 Cl
HETATM   21  C   UNL     1     -40.224  51.675 -54.310  1.00  0.00     0.024 A 
HETATM   22  C   UNL     1     -40.653  53.000 -54.192  1.00  0.00     0.010 A 
ENDBRANCH   8  16
TORSDOF 1
ENDMDL
MODEL 4
REMARK VINA RESULT:      -7.0      2.540      3.404
REMARK  1 active torsions:
REMARK  status: ('A' for Active; 'I' for Inactive)
REMARK    1  A    between atoms: C_8  and  C_9 
ROOT
HETATM    1  C   UNL     1     -39.889  59.073 -50.570  1.00  0.00     0.073 C 
HETATM    2  C   UNL     1     -40.549  58.719 -51.853  1.00  0.00     0.062 C 
HETATM    3  N   UNL     1     -40.093  59.247 -52.995  1.00  0.00    -0.178 NA
HETATM    4  N   UNL     1     -40.874  58.704 -53.936  1.00  0.00    -0.262 N 
HETATM    5  H   UNL     1     -40.703  58.957 -54.903  1.00  0.00     0.191 HD
HETATM    6  C   UNL     1     -41.899  57.958 -53.426  1.00  0.00     0.134 C 
HETATM    7  C   UNL     1     -41.654  57.834 -52.074  1.00  0.00     0.032 C 
HETATM    8  C   UNL     1     -42.293  56.941 -51.064  1.00  0.00     0.119 C 
HETATM    9  S   UNL     1     -44.099  56.846 -50.976  1.00  0.00    -0.141 SA
HETATM   10  C   UNL     1     -44.691  57.681 -52.476  1.00  0.00     0.136 C 
HETATM   11  C   UNL     1     -44.674  59.204 -52.377  1.00  0.00     0.031 C 
HETATM   12  C   UNL     1     -44.144  57.125 -53.789  1.00  0.00     0.236 C 
HETATM   13  O   UNL     1     -44.855  56.449 -54.540  1.00  0.00    -0.272 OA
HETATM   14  N   UNL     1     -42.891  57.455 -54.225  1.00  0.00    -0.311 N 
HETATM   15  H   UNL     1     -42.723  57.284 -55.209  1.00  0.00     0.170 HD
ENDROOT
BRANCH   8  16
HETATM   16  C   UNL     1     -41.623  55.577 -51.247  1.00  0.00    -0.040 A 
HETATM   17  C   UNL     1     -40.647  55.153 -50.324  1.00  0.00     0.010 A 
HETATM   18  C   UNL     1     -39.985  53.931 -50.478  1.00  0.00     0.024 A 
HETATM   19  C   UNL     1     -40.296  53.105 -51.554  1.00  0.00     0.034 A 
HETATM   20 CL   UNL     1     -39.480  51.604 -51.746  1.00  0.00    -0.084 Cl
HETATM   21  C   UNL     1     -41.263  53.493 -52.476  1.00  0.00     0.024 A 
HETATM   22  C   UNL     1     -41.918  54.718 -52.325  1.00  0.00     0.010 A 
ENDBRANCH   8  16
TORSDOF 1
ENDMDL
MODEL 5
REMARK VINA RESULT:      -6.9      2.911      3.975
REMARK  1 active torsions:
REMARK  status: ('A' for Active; 'I' for Inactive)
REMARK    1  A    between atoms: C_8  and  C_9 
ROOT
HETATM    1  C   UNL     1     -40.289  58.896 -52.207  1.00  0.00     0.073 C 
HETATM    2  C   UNL     1     -41.556  58.223 -51.820  1.00  0.00     0.062 C 
HETATM    3  N   UNL     1     -42.536  58.940 -51.256  1.00  0.00    -0.178 NA
HETATM    4  N   UNL     1     -43.519  58.051 -51.072  1.00  0.00    -0.262 N 
HETATM    5  H   UNL     1     -44.385  58.377 -50.656  1.00  0.00     0.191 HD
HETATM    6  C   UNL     1     -43.155  56.768 -51.369  1.00  0.00     0.134 C 
HETATM    7  C   UNL     1     -41.921  56.848 -51.983  1.00  0.00     0.032 C 
HETATM    8  C   UNL     1     -41.155  55.807 -52.728  1.00  0.00     0.119 C 
HETATM    9  S   UNL     1     -40.938  54.165 -51.995  1.00  0.00    -0.141 SA
HETATM   10  C   UNL     1     -42.078  54.123 -50.583  1.00  0.00     0.136 C 
HETATM   11  C   UNL     1     -41.551  54.846 -49.347  1.00  0.00     0.031 C 
HETATM   12  C   UNL     1     -43.539  54.420 -50.917  1.00  0.00     0.236 C 
HETATM   13  O   UNL     1     -44.385  53.520 -50.931  1.00  0.00    -0.272 OA
HETATM   14  N   UNL     1     -43.972  55.705 -51.095  1.00  0.00    -0.311 N 
HETATM   15  H   UNL     1     -44.975  55.829 -51.028  1.00  0.00     0.170 HD
ENDROOT
BRANCH   8  16
HETATM   16  C   UNL     1     -41.779  55.769 -54.126  1.00  0.00    -0.040 A 
HETATM   17  C   UNL     1     -42.332  54.565 -54.607  1.00  0.00     0.010 A 
HETATM   18  C   UNL     1     -42.877  54.480 -55.892  1.00  0.00     0.024 A 
HETATM   19  C   UNL     1     -42.887  55.602 -56.716  1.00  0.00     0.034 A 
HETATM   20 CL   UNL     1     -43.554  55.496 -58.297  1.00  0.00    -0.084 Cl
HETATM   21  C   UNL     1     -42.359  56.806 -56.264  1.00  0.00     0.024 A 
HETATM   22  C   UNL     1     -41.807  56.887 -54.982  1.00  0.00     0.010 A 
ENDBRANCH   8  16
TORSDOF 1
ENDMDL
MODEL 6
REMARK VINA RESULT:      -6.6      2.639      3.873
REMARK  1 active torsions:
REMARK  status: ('A' for Active; 'I' for Inactive)
REMARK    1  A    between atoms: C_8  and  C_9 
ROOT
HETATM    1  C   UNL     1     -41.559  56.837 -50.193  1.00  0.00     0.073 C 
HETATM    2  C   UNL     1     -41.300  57.126 -51.627  1.00  0.00     0.062 C 
HETATM    3  N   UNL     1     -40.424  58.081 -51.958  1.00  0.00    -0.178 NA
HETATM    4  N   UNL     1     -40.409  58.055 -53.296  1.00  0.00    -0.262 N 
HETATM    5  H   UNL     1     -39.795  58.702 -53.779  1.00  0.00     0.191 HD
HETATM    6  C   UNL     1     -41.343  57.215 -53.833  1.00  0.00     0.134 C 
HETATM    7  C   UNL     1     -41.864  56.490 -52.781  1.00  0.00     0.032 C 
HETATM    8  C   UNL     1     -42.732  55.277 -52.792  1.00  0.00     0.119 C 
HETATM    9  S   UNL     1     -44.209  55.248 -53.840  1.00  0.00    -0.141 SA
HETATM   10  C   UNL     1     -44.045  56.692 -54.927  1.00  0.00     0.136 C 
HETATM   11  C   UNL     1     -44.432  58.010 -54.261  1.00  0.00     0.031 C 
HETATM   12  C   UNL     1     -42.756  56.750 -55.745  1.00  0.00     0.236 C 
HETATM   13  O   UNL     1     -42.759  56.517 -56.958  1.00  0.00    -0.272 OA
HETATM   14  N   UNL     1     -41.585  57.172 -55.180  1.00  0.00    -0.311 N 
HETATM   15  H   UNL     1     -40.868  57.448 -55.841  1.00  0.00     0.170 HD
ENDROOT
BRANCH   8  16
HETATM   16  C   UNL     1     -41.783  54.103 -53.050  1.00  0.00    -0.040 A 
HETATM   17  C   UNL     1     -41.803  53.456 -54.301  1.00  0.00     0.010 A 
HETATM   18  C   UNL     1     -40.979  52.357 -54.562  1.00  0.00     0.024 A 
HETATM   19  C   UNL     1     -40.112  51.891 -53.578  1.00  0.00     0.034 A 
HETATM   20 CL   UNL     1     -39.101  50.537 -53.897  1.00  0.00    -0.084 Cl
HETATM   21  C   UNL     1     -40.063  52.517 -52.337  1.00  0.00     0.024 A 
HETATM   22  C   UNL     1     -40.893  53.611 -52.075  1.00  0.00     0.010 A 
ENDBRANCH   8  16
TORSDOF 1
ENDMDL
MODEL 7
REMARK VINA RESULT:      -6.5     17.153     18.794
REMARK  1 active torsions:
REMARK  status: ('A' for Active; 'I' for Inactive)
REMARK    1  A    between atoms: C_8  and  C_9 
ROOT
HETATM    1  C   UNL     1     -37.654  40.364 -52.356  1.00  0.00     0.073 C 
HETATM    2  C   UNL     1     -36.498  40.971 -53.066  1.00  0.00     0.062 C 
HETATM    3  N   UNL     1     -36.544  42.262 -53.412  1.00  0.00    -0.178 NA
HETATM    4  N   UNL     1     -35.357  42.483 -53.989  1.00  0.00    -0.262 N 
HETATM    5  H   UNL     1     -35.159  43.418 -54.330  1.00  0.00     0.191 HD
HETATM    6  C   UNL     1     -34.610  41.350 -54.146  1.00  0.00     0.134 C 
HETATM    7  C   UNL     1     -35.261  40.356 -53.444  1.00  0.00     0.032 C 
HETATM    8  C   UNL     1     -34.793  38.991 -53.063  1.00  0.00     0.119 C 
HETATM    9  S   UNL     1     -34.042  37.925 -54.320  1.00  0.00    -0.141 SA
HETATM   10  C   UNL     1     -33.739  39.012 -55.742  1.00  0.00     0.136 C 
HETATM   11  C   UNL     1     -34.983  39.282 -56.584  1.00  0.00     0.031 C 
HETATM   12  C   UNL     1     -32.891  40.248 -55.448  1.00  0.00     0.236 C 
HETATM   13  O   UNL     1     -31.719  40.323 -55.833  1.00  0.00    -0.272 OA
HETATM   14  N   UNL     1     -33.439  41.351 -54.855  1.00  0.00    -0.311 N 
HETATM   15  H   UNL     1     -32.899  42.202 -54.957  1.00  0.00     0.170 HD
ENDROOT
BRANCH   8  16
HETATM   16  C   UNL     1     -33.906  39.195 -51.832  1.00  0.00    -0.040 A 
HETATM   17  C   UNL     1     -34.474  39.115 -50.546  1.00  0.00     0.010 A 
HETATM   18  C   UNL     1     -33.705  39.333 -49.398  1.00  0.00     0.024 A 
HETATM   19  C   UNL     1     -32.350  39.624 -49.518  1.00  0.00     0.034 A 
HETATM   20 CL   UNL     1     -31.404  39.895 -48.107  1.00  0.00    -0.084 Cl
HETATM   21  C   UNL     1     -31.759  39.699 -50.774  1.00  0.00     0.024 A 
HETATM   22  C   UNL     1     -32.531  39.489 -51.921  1.00  0.00     0.010 A 
ENDBRANCH   8  16
TORSDOF 1
ENDMDL
MODEL 8
REMARK VINA RESULT:      -6.4      3.443      5.615
REMARK  1 active torsions:
REMARK  status: ('A' for Active; 'I' for Inactive)
REMARK    1  A    between atoms: C_8  and  C_9 
ROOT
HETATM    1  C   UNL     1     -41.119  55.240 -49.756  1.00  0.00     0.073 C 
HETATM    2  C   UNL     1     -42.151  54.987 -50.794  1.00  0.00     0.062 C 
HETATM    3  N   UNL     1     -43.341  54.493 -50.432  1.00  0.00    -0.178 NA
HETATM    4  N   UNL     1     -44.023  54.422 -51.581  1.00  0.00    -0.262 N 
HETATM    5  H   UNL     1     -44.976  54.076 -51.550  1.00  0.00     0.191 HD
HETATM    6  C   UNL     1     -43.269  54.722 -52.680  1.00  0.00     0.134 C 
HETATM    7  C   UNL     1     -42.073  55.221 -52.206  1.00  0.00     0.032 C 
HETATM    8  C   UNL     1     -40.975  55.925 -52.930  1.00  0.00     0.119 C 
HETATM    9  S   UNL     1     -40.332  55.222 -54.471  1.00  0.00    -0.141 SA
HETATM   10  C   UNL     1     -41.511  53.919 -54.925  1.00  0.00     0.136 C 
HETATM   11  C   UNL     1     -41.322  52.621 -54.147  1.00  0.00     0.031 C 
HETATM   12  C   UNL     1     -42.964  54.374 -55.058  1.00  0.00     0.236 C 
HETATM   13  O   UNL     1     -43.497  54.489 -56.166  1.00  0.00    -0.272 OA
HETATM   14  N   UNL     1     -43.747  54.553 -53.952  1.00  0.00    -0.311 N 
HETATM   15  H   UNL     1     -44.744  54.572 -54.134  1.00  0.00     0.170 HD
ENDROOT
BRANCH   8  16
HETATM   16  C   UNL     1     -41.449  57.373 -53.077  1.00  0.00    -0.040 A 
HETATM   17  C   UNL     1     -41.888  57.836 -54.333  1.00  0.00     0.010 A 
HETATM   18  C   UNL     1     -42.293  59.162 -54.516  1.00  0.00     0.024 A 
HETATM   19  C   UNL     1     -42.277  60.046 -53.441  1.00  0.00     0.034 A 
HETATM   20 CL   UNL     1     -42.772  61.678 -53.665  1.00  0.00    -0.084 Cl
HETATM   21  C   UNL     1     -41.859  59.614 -52.187  1.00  0.00     0.024 A 
HETATM   22  C   UNL     1     -41.447  58.290 -52.007  1.00  0.00     0.010 A 
ENDBRANCH   8  16
TORSDOF 1
ENDMDL
MODEL 9
REMARK VINA RESULT:      -6.4      1.872      2.446
REMARK  1 active torsions:
REMARK  status: ('A' for Active; 'I' for Inactive)
REMARK    1  A    between atoms: C_8  and  C_9 
ROOT
HETATM    1  C   UNL     1     -43.015  55.861 -56.169  1.00  0.00     0.073 C 
HETATM    2  C   UNL     1     -43.531  56.526 -54.944  1.00  0.00     0.062 C 
HETATM    3  N   UNL     1     -44.852  56.598 -54.742  1.00  0.00    -0.178 NA
HETATM    4  N   UNL     1     -44.964  57.213 -53.559  1.00  0.00    -0.262 N 
HETATM    5  H   UNL     1     -45.895  57.372 -53.190  1.00  0.00     0.191 HD
HETATM    6  C   UNL     1     -43.771  57.659 -53.064  1.00  0.00     0.134 C 
HETATM    7  C   UNL     1     -42.790  57.121 -53.872  1.00  0.00     0.032 C 
HETATM    8  C   UNL     1     -41.313  57.066 -53.675  1.00  0.00     0.119 C 
HETATM    9  S   UNL     1     -40.420  58.571 -53.207  1.00  0.00    -0.141 SA
HETATM   10  C   UNL     1     -41.711  59.763 -52.749  1.00  0.00     0.136 C 
HETATM   11  C   UNL     1     -42.386  60.426 -53.945  1.00  0.00     0.031 C 
HETATM   12  C   UNL     1     -42.671  59.295 -51.657  1.00  0.00     0.236 C 
HETATM   13  O   UNL     1     -42.605  59.751 -50.511  1.00  0.00    -0.272 OA
HETATM   14  N   UNL     1     -43.704  58.446 -51.946  1.00  0.00    -0.311 N 
HETATM   15  H   UNL     1     -44.439  58.418 -51.250  1.00  0.00     0.170 HD
ENDROOT
BRANCH   8  16
HETATM   16  C   UNL     1     -41.075  55.897 -52.716  1.00  0.00    -0.040 A 
HETATM   17  C   UNL     1     -40.824  54.612 -53.236  1.00  0.00     0.010 A 
HETATM   18  C   UNL     1     -40.640  53.512 -52.393  1.00  0.00     0.024 A 
HETATM   19  C   UNL     1     -40.693  53.680 -51.012  1.00  0.00     0.034 A 
HETATM   20 CL   UNL     1     -40.470  52.327 -49.975  1.00  0.00    -0.084 Cl
HETATM   21  C   UNL     1     -40.929  54.939 -50.470  1.00  0.00     0.024 A 
HETATM   22  C   UNL     1     -41.121  56.036 -51.315  1.00  0.00     0.010 A 
ENDBRANCH   8  16
TORSDOF 1
ENDMDL
MODEL 10
REMARK VINA RESULT:      -6.3     16.849     17.993
REMARK  1 active torsions:
REMARK  status: ('A' for Active; 'I' for Inactive)
REMARK    1  A    between atoms: C_8  and  C_9 
ROOT
HETATM    1  C   UNL     1     -38.303  39.252 -51.343  1.00  0.00     0.073 C 
HETATM    2  C   UNL     1     -36.964  38.896 -51.879  1.00  0.00     0.062 C 
HETATM    3  N   UNL     1     -36.625  37.607 -52.002  1.00  0.00    -0.178 NA
HETATM    4  N   UNL     1     -35.398  37.646 -52.534  1.00  0.00    -0.262 N 
HETATM    5  H   UNL     1     -34.934  36.765 -52.728  1.00  0.00     0.191 HD
HETATM    6  C   UNL     1     -34.886  38.909 -52.628  1.00  0.00     0.134 C 
HETATM    7  C   UNL     1     -35.922  39.771 -52.330  1.00  0.00     0.032 C 
HETATM    8  C   UNL     1     -36.017  41.249 -52.506  1.00  0.00     0.119 C 
HETATM    9  S   UNL     1     -34.669  42.304 -51.915  1.00  0.00    -0.141 SA
HETATM   10  C   UNL     1     -33.310  41.164 -51.530  1.00  0.00     0.136 C 
HETATM   11  C   UNL     1     -33.465  40.454 -50.189  1.00  0.00     0.031 C 
HETATM   12  C   UNL     1     -32.875  40.257 -52.681  1.00  0.00     0.236 C 
HETATM   13  O   UNL     1     -31.815  40.456 -53.283  1.00  0.00    -0.272 OA
HETATM   14  N   UNL     1     -33.588  39.135 -52.999  1.00  0.00    -0.311 N 
HETATM   15  H   UNL     1     -33.088  38.459 -53.564  1.00  0.00     0.170 HD
ENDROOT
BRANCH   8  16
HETATM   16  C   UNL     1     -36.348  41.461 -53.986  1.00  0.00    -0.040 A 
HETATM   17  C   UNL     1     -35.379  42.022 -54.840  1.00  0.00     0.010 A 
HETATM   18  C   UNL     1     -35.656  42.266 -56.189  1.00  0.00     0.024 A 
HETATM   19  C   UNL     1     -36.906  41.943 -56.710  1.00  0.00     0.034 A 
HETATM   20 CL   UNL     1     -37.248  42.246 -58.368  1.00  0.00    -0.084 Cl
HETATM   21  C   UNL     1     -37.878  41.378 -55.892  1.00  0.00     0.024 A 
HETATM   22  C   UNL     1     -37.603  41.142 -54.542  1.00  0.00     0.010 A 
ENDBRANCH   8  16
TORSDOF 1
ENDMDL
