MODEL 1
REMARK VINA RESULT:      -9.5      0.000      0.000
REMARK  6 active torsions:
REMARK  status: ('A' for Active; 'I' for Inactive)
REMARK    1  A    between atoms: C_6  and  O_7 
REMARK    2  A    between atoms: C_6  and  C_8 
REMARK    3  A    between atoms: C_8  and  N_9 
REMARK       I    between atoms: N_9  and  C_10 
REMARK    4  A    between atoms: C_10  and  C_11 
REMARK       I    between atoms: C_11  and  N_12 
REMARK    5  A    between atoms: N_12  and  C_13 
REMARK       I    between atoms: N_17  and  C_18 
REMARK    6  A    between atoms: C_18  and  C_19 
ROOT
HETATM    1  C   UNL     1     -41.672  58.274 -53.882  1.00  0.00     0.313 C 
HETATM    2  N   UNL     1     -42.610  57.383 -54.359  1.00  0.00    -0.319 N 
HETATM    3  O   UNL     1     -41.317  59.346 -54.353  1.00  0.00    -0.262 OA
HETATM    4  H   UNL     1     -42.787  56.584 -53.756  1.00  0.00     0.169 HD
ENDROOT
BRANCH   1   5
HETATM    5  C   UNL     1     -41.007  57.792 -52.574  1.00  0.00     0.309 C 
HETATM    6  N   UNL     1     -41.431  56.547 -52.185  1.00  0.00    -0.350 N 
HETATM    7  H   UNL     1     -42.029  56.039 -52.837  1.00  0.00     0.163 HD
HETATM    8  O   UNL     1     -40.209  58.505 -51.983  1.00  0.00    -0.262 OA
BRANCH   6   9
HETATM    9  C   UNL     1     -41.006  55.875 -50.975  1.00  0.00     0.161 C 
BRANCH   9  10
HETATM   10  C   UNL     1     -41.023  54.339 -51.160  1.00  0.00     0.078 C 
HETATM   11  C   UNL     1     -40.609  53.976 -52.601  1.00  0.00     0.078 C 
HETATM   12  C   UNL     1     -40.283  52.512 -52.804  1.00  0.00    -0.049 A 
HETATM   13  C   UNL     1     -40.033  51.655 -51.719  1.00  0.00    -0.052 A 
HETATM   14  C   UNL     1     -40.180  52.011 -54.111  1.00  0.00     0.007 A 
HETATM   15  C   UNL     1     -39.726  50.307 -51.959  1.00  0.00     0.007 A 
HETATM   16  C   UNL     1     -40.152  52.130 -50.293  1.00  0.00     0.042 C 
HETATM   17  C   UNL     1     -39.638  49.819 -53.262  1.00  0.00     0.001 A 
HETATM   18  C   UNL     1     -39.861  50.673 -54.337  1.00  0.00     0.001 A 
HETATM   19  C   UNL     1     -40.083  53.649 -50.160  1.00  0.00     0.044 C 
BRANCH  10  20
HETATM   20  O   UNL     1     -42.366  53.889 -50.893  1.00  0.00    -0.388 OA
HETATM   21  H   UNL     1     -42.689  53.408 -51.674  1.00  0.00     0.210 HD
ENDBRANCH  10  20
ENDBRANCH   9  10
ENDBRANCH   6   9
ENDBRANCH   1   5
BRANCH   2  22
HETATM   22  C   UNL     1     -43.309  57.461 -55.576  1.00  0.00     0.035 A 
HETATM   23  C   UNL     1     -42.948  56.748 -56.717  1.00  0.00     0.039 A 
HETATM   24  C   UNL     1     -43.708  56.828 -57.901  1.00  0.00    -0.029 A 
HETATM   25  C   UNL     1     -44.842  57.664 -57.974  1.00  0.00     0.043 A 
HETATM   26  C   UNL     1     -43.241  56.007 -59.075  1.00  0.00     0.042 C 
HETATM   27  N   UNL     1     -45.578  57.781 -59.211  1.00  0.00    -0.313 N 
HETATM   28  C   UNL     1     -45.177  58.389 -56.822  1.00  0.00     0.032 A 
HETATM   29  C   UNL     1     -46.810  58.475 -59.313  1.00  0.00     0.265 C 
HETATM   30  C   UNL     1     -45.023  57.095 -60.386  1.00  0.00     0.133 C 
HETATM   31  O   UNL     1     -47.546  58.680 -58.348  1.00  0.00    -0.267 OA
HETATM   32  C   UNL     1     -44.379  55.764 -60.043  1.00  0.00     0.025 C 
HETATM   33  C   UNL     1     -44.434  58.278 -55.637  1.00  0.00     0.032 A 
BRANCH  29  34
HETATM   34  C   UNL     1     -47.186  58.949 -60.644  1.00  0.00     0.073 A 
HETATM   35  S   UNL     1     -46.475  60.385 -61.254  1.00  0.00    -0.097 SA
HETATM   36  C   UNL     1     -47.358  60.281 -62.714  1.00  0.00     0.050 A 
HETATM   37  C   UNL     1     -48.156  59.160 -62.758  1.00  0.00     0.009 A 
HETATM   38  C   UNL     1     -48.046  58.382 -61.568  1.00  0.00     0.025 A 
ENDBRANCH  29  34
ENDBRANCH   2  22
TORSDOF 6
ENDMDL
MODEL 2
REMARK VINA RESULT:      -9.4      3.282      3.633
REMARK  6 active torsions:
REMARK  status: ('A' for Active; 'I' for Inactive)
REMARK    1  A    between atoms: C_6  and  O_7 
REMARK    2  A    between atoms: C_6  and  C_8 
REMARK    3  A    between atoms: C_8  and  N_9 
REMARK       I    between atoms: N_9  and  C_10 
REMARK    4  A    between atoms: C_10  and  C_11 
REMARK       I    between atoms: C_11  and  N_12 
REMARK    5  A    between atoms: N_12  and  C_13 
REMARK       I    between atoms: N_17  and  C_18 
REMARK    6  A    between atoms: C_18  and  C_19 
ROOT
HETATM    1  C   UNL     1     -43.374  57.435 -53.449  1.00  0.00     0.313 C 
HETATM    2  N   UNL     1     -42.313  57.451 -54.329  1.00  0.00    -0.319 N 
HETATM    3  O   UNL     1     -44.501  57.891 -53.593  1.00  0.00    -0.262 OA
HETATM    4  H   UNL     1     -41.489  56.945 -54.013  1.00  0.00     0.169 HD
ENDROOT
BRANCH   1   5
HETATM    5  C   UNL     1     -43.030  56.739 -52.114  1.00  0.00     0.309 C 
HETATM    6  N   UNL     1     -41.694  56.460 -51.985  1.00  0.00    -0.350 N 
HETATM    7  H   UNL     1     -41.073  56.832 -52.705  1.00  0.00     0.163 HD
HETATM    8  O   UNL     1     -43.910  56.473 -51.308  1.00  0.00    -0.262 OA
BRANCH   6   9
HETATM    9  C   UNL     1     -41.103  55.771 -50.857  1.00  0.00     0.161 C 
BRANCH   9  10
HETATM   10  C   UNL     1     -41.072  54.243 -51.096  1.00  0.00     0.078 C 
HETATM   11  C   UNL     1     -40.703  53.945 -52.564  1.00  0.00     0.078 C 
HETATM   12  C   UNL     1     -40.332  52.503 -52.831  1.00  0.00    -0.049 A 
HETATM   13  C   UNL     1     -40.007  51.619 -51.788  1.00  0.00    -0.052 A 
HETATM   14  C   UNL     1     -40.264  52.052 -54.158  1.00  0.00     0.007 A 
HETATM   15  C   UNL     1     -39.661  50.293 -52.088  1.00  0.00     0.007 A 
HETATM   16  C   UNL     1     -40.086  52.041 -50.342  1.00  0.00     0.042 C 
HETATM   17  C   UNL     1     -39.608  49.854 -53.410  1.00  0.00     0.001 A 
HETATM   18  C   UNL     1     -39.906  50.735 -54.445  1.00  0.00     0.001 A 
HETATM   19  C   UNL     1     -40.067  53.556 -50.158  1.00  0.00     0.044 C 
BRANCH  10  20
HETATM   20  O   UNL     1     -42.385  53.734 -50.792  1.00  0.00    -0.388 OA
HETATM   21  H   UNL     1     -42.344  52.762 -50.786  1.00  0.00     0.210 HD
ENDBRANCH  10  20
ENDBRANCH   9  10
ENDBRANCH   6   9
ENDBRANCH   1   5
BRANCH   2  22
HETATM   22  C   UNL     1     -42.253  58.100 -55.573  1.00  0.00     0.035 A 
HETATM   23  C   UNL     1     -42.347  57.436 -56.794  1.00  0.00     0.039 A 
HETATM   24  C   UNL     1     -42.325  58.140 -58.015  1.00  0.00    -0.029 A 
HETATM   25  C   UNL     1     -42.172  59.542 -58.035  1.00  0.00     0.043 A 
HETATM   26  C   UNL     1     -42.447  57.329 -59.278  1.00  0.00     0.042 C 
HETATM   27  N   UNL     1     -42.092  60.244 -59.294  1.00  0.00    -0.313 N 
HETATM   28  C   UNL     1     -42.059  60.191 -56.797  1.00  0.00     0.032 A 
HETATM   29  C   UNL     1     -42.097  61.659 -59.389  1.00  0.00     0.265 C 
HETATM   30  C   UNL     1     -42.060  59.426 -60.514  1.00  0.00     0.133 C 
HETATM   31  O   UNL     1     -42.559  62.389 -58.513  1.00  0.00    -0.267 OA
HETATM   32  C   UNL     1     -42.937  58.191 -60.421  1.00  0.00     0.025 C 
HETATM   33  C   UNL     1     -42.115  59.485 -55.585  1.00  0.00     0.032 A 
BRANCH  29  34
HETATM   34  C   UNL     1     -41.520  62.234 -60.603  1.00  0.00     0.073 A 
HETATM   35  S   UNL     1     -42.553  62.644 -61.909  1.00  0.00    -0.097 SA
HETATM   36  C   UNL     1     -41.242  63.190 -62.861  1.00  0.00     0.050 A 
HETATM   37  C   UNL     1     -40.042  63.096 -62.193  1.00  0.00     0.009 A 
HETATM   38  C   UNL     1     -40.204  62.558 -60.882  1.00  0.00     0.025 A 
ENDBRANCH  29  34
ENDBRANCH   2  22
TORSDOF 6
ENDMDL
MODEL 3
REMARK VINA RESULT:      -9.2      6.278      9.325
REMARK  6 active torsions:
REMARK  status: ('A' for Active; 'I' for Inactive)
REMARK    1  A    between atoms: C_6  and  O_7 
REMARK    2  A    between atoms: C_6  and  C_8 
REMARK    3  A    between atoms: C_8  and  N_9 
REMARK       I    between atoms: N_9  and  C_10 
REMARK    4  A    between atoms: C_10  and  C_11 
REMARK       I    between atoms: C_11  and  N_12 
REMARK    5  A    between atoms: N_12  and  C_13 
REMARK       I    between atoms: N_17  and  C_18 
REMARK    6  A    between atoms: C_18  and  C_19 
ROOT
HETATM    1  C   UNL     1     -44.920  59.306 -53.938  1.00  0.00     0.313 C 
HETATM    2  N   UNL     1     -44.424  59.159 -52.660  1.00  0.00    -0.319 N 
HETATM    3  O   UNL     1     -45.487  60.268 -54.440  1.00  0.00    -0.262 OA
HETATM    4  H   UNL     1     -43.929  58.288 -52.492  1.00  0.00     0.169 HD
ENDROOT
BRANCH   1   5
HETATM    5  C   UNL     1     -44.707  58.047 -54.807  1.00  0.00     0.309 C 
HETATM    6  N   UNL     1     -43.761  57.197 -54.295  1.00  0.00    -0.350 N 
HETATM    7  H   UNL     1     -43.395  57.419 -53.368  1.00  0.00     0.163 HD
HETATM    8  O   UNL     1     -45.335  57.895 -55.845  1.00  0.00    -0.262 OA
BRANCH   6   9
HETATM    9  C   UNL     1     -43.331  55.968 -54.928  1.00  0.00     0.161 C 
BRANCH   9  10
HETATM   10  C   UNL     1     -42.715  54.998 -53.892  1.00  0.00     0.078 C 
HETATM   11  C   UNL     1     -41.952  53.868 -54.615  1.00  0.00     0.078 C 
HETATM   12  C   UNL     1     -41.051  53.053 -53.714  1.00  0.00    -0.049 A 
HETATM   13  C   UNL     1     -40.674  53.508 -52.439  1.00  0.00    -0.052 A 
HETATM   14  C   UNL     1     -40.539  51.834 -54.186  1.00  0.00     0.007 A 
HETATM   15  C   UNL     1     -39.829  52.719 -51.645  1.00  0.00     0.007 A 
HETATM   16  C   UNL     1     -41.211  54.797 -51.870  1.00  0.00     0.042 C 
HETATM   17  C   UNL     1     -39.336  51.504 -52.120  1.00  0.00     0.001 A 
HETATM   18  C   UNL     1     -39.689  51.064 -53.392  1.00  0.00     0.001 A 
HETATM   19  C   UNL     1     -41.765  55.738 -52.937  1.00  0.00     0.044 C 
BRANCH  10  20
HETATM   20  O   UNL     1     -43.799  54.457 -53.112  1.00  0.00    -0.388 OA
HETATM   21  H   UNL     1     -44.408  53.994 -53.713  1.00  0.00     0.210 HD
ENDBRANCH  10  20
ENDBRANCH   9  10
ENDBRANCH   6   9
ENDBRANCH   1   5
BRANCH   2  22
HETATM   22  C   UNL     1     -44.556  60.063 -51.592  1.00  0.00     0.035 A 
HETATM   23  C   UNL     1     -43.868  61.272 -51.518  1.00  0.00     0.039 A 
HETATM   24  C   UNL     1     -44.069  62.163 -50.444  1.00  0.00    -0.029 A 
HETATM   25  C   UNL     1     -44.949  61.837 -49.392  1.00  0.00     0.043 A 
HETATM   26  C   UNL     1     -43.287  63.450 -50.465  1.00  0.00     0.042 C 
HETATM   27  N   UNL     1     -45.101  62.732 -48.270  1.00  0.00    -0.313 N 
HETATM   28  C   UNL     1     -45.617  60.606 -49.475  1.00  0.00     0.032 A 
HETATM   29  C   UNL     1     -46.079  62.546 -47.261  1.00  0.00     0.265 C 
HETATM   30  C   UNL     1     -44.221  63.908 -48.230  1.00  0.00     0.133 C 
HETATM   31  O   UNL     1     -47.105  61.889 -47.434  1.00  0.00    -0.267 OA
HETATM   32  C   UNL     1     -43.960  64.497 -49.604  1.00  0.00     0.025 C 
HETATM   33  C   UNL     1     -45.436  59.740 -50.564  1.00  0.00     0.032 A 
BRANCH  29  34
HETATM   34  C   UNL     1     -45.818  63.182 -45.970  1.00  0.00     0.073 A 
HETATM   35  S   UNL     1     -46.712  64.576 -45.527  1.00  0.00    -0.097 SA
HETATM   36  C   UNL     1     -45.888  64.712 -44.035  1.00  0.00     0.050 A 
HETATM   37  C   UNL     1     -44.972  63.700 -43.856  1.00  0.00     0.009 A 
HETATM   38  C   UNL     1     -44.942  62.806 -44.967  1.00  0.00     0.025 A 
ENDBRANCH  29  34
ENDBRANCH   2  22
TORSDOF 6
ENDMDL
MODEL 4
REMARK VINA RESULT:      -8.9      6.458     10.875
REMARK  6 active torsions:
REMARK  status: ('A' for Active; 'I' for Inactive)
REMARK    1  A    between atoms: C_6  and  O_7 
REMARK    2  A    between atoms: C_6  and  C_8 
REMARK    3  A    between atoms: C_8  and  N_9 
REMARK       I    between atoms: N_9  and  C_10 
REMARK    4  A    between atoms: C_10  and  C_11 
REMARK       I    between atoms: C_11  and  N_12 
REMARK    5  A    between atoms: N_12  and  C_13 
REMARK       I    between atoms: N_17  and  C_18 
REMARK    6  A    between atoms: C_18  and  C_19 
ROOT
HETATM    1  C   UNL     1     -44.983  58.954 -51.077  1.00  0.00     0.313 C 
HETATM    2  N   UNL     1     -43.741  58.742 -51.637  1.00  0.00    -0.319 N 
HETATM    3  O   UNL     1     -45.761  58.140 -50.596  1.00  0.00    -0.262 OA
HETATM    4  H   UNL     1     -43.245  59.587 -51.910  1.00  0.00     0.169 HD
ENDROOT
BRANCH   1   5
HETATM    5  C   UNL     1     -45.398  60.441 -51.096  1.00  0.00     0.309 C 
HETATM    6  N   UNL     1     -45.940  60.860 -49.908  1.00  0.00    -0.350 N 
HETATM    7  H   UNL     1     -45.906  60.204 -49.128  1.00  0.00     0.163 HD
HETATM    8  O   UNL     1     -45.251  61.114 -52.106  1.00  0.00    -0.262 OA
BRANCH   6   9
HETATM    9  C   UNL     1     -46.455  62.191 -49.664  1.00  0.00     0.161 C 
BRANCH   9  10
HETATM   10  C   UNL     1     -46.400  62.539 -48.158  1.00  0.00     0.078 C 
HETATM   11  C   UNL     1     -45.393  61.617 -47.440  1.00  0.00     0.078 C 
HETATM   12  C   UNL     1     -45.021  62.070 -46.045  1.00  0.00    -0.049 A 
HETATM   13  C   UNL     1     -45.284  63.376 -45.599  1.00  0.00    -0.052 A 
HETATM   14  C   UNL     1     -44.354  61.175 -45.193  1.00  0.00     0.007 A 
HETATM   15  C   UNL     1     -44.912  63.750 -44.299  1.00  0.00     0.007 A 
HETATM   16  C   UNL     1     -46.019  64.372 -46.459  1.00  0.00     0.042 C 
HETATM   17  C   UNL     1     -44.259  62.849 -43.459  1.00  0.00     0.001 A 
HETATM   18  C   UNL     1     -43.977  61.563 -43.908  1.00  0.00     0.001 A 
HETATM   19  C   UNL     1     -46.005  64.008 -47.942  1.00  0.00     0.044 C 
BRANCH  10  20
HETATM   20  O   UNL     1     -47.725  62.351 -47.625  1.00  0.00    -0.388 OA
HETATM   21  H   UNL     1     -48.268  63.119 -47.873  1.00  0.00     0.210 HD
ENDBRANCH  10  20
ENDBRANCH   9  10
ENDBRANCH   6   9
ENDBRANCH   1   5
BRANCH   2  22
HETATM   22  C   UNL     1     -43.121  57.504 -51.880  1.00  0.00     0.035 A 
HETATM   23  C   UNL     1     -43.271  56.788 -53.065  1.00  0.00     0.039 A 
HETATM   24  C   UNL     1     -42.593  55.571 -53.276  1.00  0.00    -0.029 A 
HETATM   25  C   UNL     1     -41.766  55.024 -52.273  1.00  0.00     0.043 A 
HETATM   26  C   UNL     1     -42.813  54.881 -54.597  1.00  0.00     0.042 C 
HETATM   27  N   UNL     1     -41.123  53.747 -52.479  1.00  0.00    -0.313 N 
HETATM   28  C   UNL     1     -41.643  55.750 -51.079  1.00  0.00     0.032 A 
HETATM   29  C   UNL     1     -40.160  53.216 -51.585  1.00  0.00     0.265 C 
HETATM   30  C   UNL     1     -41.467  53.018 -53.707  1.00  0.00     0.133 C 
HETATM   31  O   UNL     1     -39.501  53.914 -50.815  1.00  0.00    -0.267 OA
HETATM   32  C   UNL     1     -41.674  53.932 -54.900  1.00  0.00     0.025 C 
HETATM   33  C   UNL     1     -42.297  56.977 -50.890  1.00  0.00     0.032 A 
BRANCH  29  34
HETATM   34  C   UNL     1     -39.969  51.766 -51.615  1.00  0.00     0.073 A 
HETATM   35  S   UNL     1     -39.452  51.019 -53.068  1.00  0.00    -0.097 SA
HETATM   36  C   UNL     1     -39.478  49.465 -52.356  1.00  0.00     0.050 A 
HETATM   37  C   UNL     1     -39.841  49.509 -51.029  1.00  0.00     0.009 A 
HETATM   38  C   UNL     1     -40.110  50.841 -50.596  1.00  0.00     0.025 A 
ENDBRANCH  29  34
ENDBRANCH   2  22
TORSDOF 6
ENDMDL
MODEL 5
REMARK VINA RESULT:      -8.7      2.862      3.423
REMARK  6 active torsions:
REMARK  status: ('A' for Active; 'I' for Inactive)
REMARK    1  A    between atoms: C_6  and  O_7 
REMARK    2  A    between atoms: C_6  and  C_8 
REMARK    3  A    between atoms: C_8  and  N_9 
REMARK       I    between atoms: N_9  and  C_10 
REMARK    4  A    between atoms: C_10  and  C_11 
REMARK       I    between atoms: C_11  and  N_12 
REMARK    5  A    between atoms: N_12  and  C_13 
REMARK       I    between atoms: N_17  and  C_18 
REMARK    6  A    between atoms: C_18  and  C_19 
ROOT
HETATM    1  C   UNL     1     -43.482  57.361 -53.463  1.00  0.00     0.313 C 
HETATM    2  N   UNL     1     -42.417  57.561 -54.315  1.00  0.00    -0.319 N 
HETATM    3  O   UNL     1     -44.656  57.675 -53.610  1.00  0.00    -0.262 OA
HETATM    4  H   UNL     1     -41.539  57.150 -54.006  1.00  0.00     0.169 HD
ENDROOT
BRANCH   1   5
HETATM    5  C   UNL     1     -43.073  56.646 -52.157  1.00  0.00     0.309 C 
HETATM    6  N   UNL     1     -41.722  56.432 -52.065  1.00  0.00    -0.350 N 
HETATM    7  H   UNL     1     -41.137  56.855 -52.786  1.00  0.00     0.163 HD
HETATM    8  O   UNL     1     -43.919  56.313 -51.340  1.00  0.00    -0.262 OA
BRANCH   6   9
HETATM    9  C   UNL     1     -41.072  55.742 -50.970  1.00  0.00     0.161 C 
BRANCH   9  10
HETATM   10  C   UNL     1     -41.054  54.214 -51.211  1.00  0.00     0.078 C 
HETATM   11  C   UNL     1     -40.661  53.915 -52.673  1.00  0.00     0.078 C 
HETATM   12  C   UNL     1     -40.302  52.469 -52.936  1.00  0.00    -0.049 A 
HETATM   13  C   UNL     1     -40.007  51.579 -51.889  1.00  0.00    -0.052 A 
HETATM   14  C   UNL     1     -40.215  52.019 -54.263  1.00  0.00     0.007 A 
HETATM   15  C   UNL     1     -39.671  50.250 -52.185  1.00  0.00     0.007 A 
HETATM   16  C   UNL     1     -40.107  51.999 -50.445  1.00  0.00     0.042 C 
HETATM   17  C   UNL     1     -39.599  49.812 -53.507  1.00  0.00     0.001 A 
HETATM   18  C   UNL     1     -39.867  50.699 -54.545  1.00  0.00     0.001 A 
HETATM   19  C   UNL     1     -40.074  53.514 -50.257  1.00  0.00     0.044 C 
BRANCH  10  20
HETATM   20  O   UNL     1     -42.378  53.720 -50.933  1.00  0.00    -0.388 OA
HETATM   21  H   UNL     1     -43.022  54.397 -51.204  1.00  0.00     0.210 HD
ENDBRANCH  10  20
ENDBRANCH   9  10
ENDBRANCH   6   9
ENDBRANCH   1   5
BRANCH   2  22
HETATM   22  C   UNL     1     -42.422  58.278 -55.524  1.00  0.00     0.035 A 
HETATM   23  C   UNL     1     -42.349  59.667 -55.594  1.00  0.00     0.039 A 
HETATM   24  C   UNL     1     -42.313  60.336 -56.835  1.00  0.00    -0.029 A 
HETATM   25  C   UNL     1     -42.387  59.615 -58.044  1.00  0.00     0.043 A 
HETATM   26  C   UNL     1     -42.221  61.839 -56.803  1.00  0.00     0.042 C 
HETATM   27  N   UNL     1     -42.409  60.316 -59.306  1.00  0.00    -0.313 N 
HETATM   28  C   UNL     1     -42.480  58.218 -57.952  1.00  0.00     0.032 A 
HETATM   29  C   UNL     1     -42.322  59.655 -60.558  1.00  0.00     0.265 C 
HETATM   30  C   UNL     1     -42.471  61.783 -59.254  1.00  0.00     0.133 C 
HETATM   31  O   UNL     1     -41.833  58.534 -60.692  1.00  0.00    -0.267 OA
HETATM   32  C   UNL     1     -41.667  62.368 -58.108  1.00  0.00     0.025 C 
HETATM   33  C   UNL     1     -42.481  57.559 -56.713  1.00  0.00     0.032 A 
BRANCH  29  34
HETATM   34  C   UNL     1     -42.849  60.375 -61.716  1.00  0.00     0.073 A 
HETATM   35  S   UNL     1     -44.546  60.517 -61.915  1.00  0.00    -0.097 SA
HETATM   36  C   UNL     1     -44.368  61.397 -63.370  1.00  0.00     0.050 A 
HETATM   37  C   UNL     1     -43.046  61.612 -63.687  1.00  0.00     0.009 A 
HETATM   38  C   UNL     1     -42.167  61.035 -62.724  1.00  0.00     0.025 A 
ENDBRANCH  29  34
ENDBRANCH   2  22
TORSDOF 6
ENDMDL
MODEL 6
REMARK VINA RESULT:      -8.5      7.038     10.614
REMARK  6 active torsions:
REMARK  status: ('A' for Active; 'I' for Inactive)
REMARK    1  A    between atoms: C_6  and  O_7 
REMARK    2  A    between atoms: C_6  and  C_8 
REMARK    3  A    between atoms: C_8  and  N_9 
REMARK       I    between atoms: N_9  and  C_10 
REMARK    4  A    between atoms: C_10  and  C_11 
REMARK       I    between atoms: C_11  and  N_12 
REMARK    5  A    between atoms: N_12  and  C_13 
REMARK       I    between atoms: N_17  and  C_18 
REMARK    6  A    between atoms: C_18  and  C_19 
ROOT
HETATM    1  C   UNL     1     -46.698  61.756 -51.824  1.00  0.00     0.313 C 
HETATM    2  N   UNL     1     -45.954  60.982 -50.958  1.00  0.00    -0.319 N 
HETATM    3  O   UNL     1     -46.793  61.677 -53.041  1.00  0.00    -0.262 OA
HETATM    4  H   UNL     1     -46.087  61.194 -49.973  1.00  0.00     0.169 HD
ENDROOT
BRANCH   1   5
HETATM    5  C   UNL     1     -47.490  62.865 -51.098  1.00  0.00     0.309 C 
HETATM    6  N   UNL     1     -47.360  62.811 -49.734  1.00  0.00    -0.350 N 
HETATM    7  H   UNL     1     -46.685  62.142 -49.361  1.00  0.00     0.163 HD
HETATM    8  O   UNL     1     -48.163  63.665 -51.732  1.00  0.00    -0.262 OA
BRANCH   6   9
HETATM    9  C   UNL     1     -48.030  63.699 -48.808  1.00  0.00     0.161 C 
BRANCH   9  10
HETATM   10  C   UNL     1     -47.398  63.610 -47.399  1.00  0.00     0.078 C 
HETATM   11  C   UNL     1     -46.644  62.273 -47.242  1.00  0.00     0.078 C 
HETATM   12  C   UNL     1     -45.728  62.214 -46.039  1.00  0.00    -0.049 A 
HETATM   13  C   UNL     1     -45.334  63.376 -45.354  1.00  0.00    -0.052 A 
HETATM   14  C   UNL     1     -45.222  60.971 -45.628  1.00  0.00     0.007 A 
HETATM   15  C   UNL     1     -44.475  63.269 -44.250  1.00  0.00     0.007 A 
HETATM   16  C   UNL     1     -45.863  64.735 -45.734  1.00  0.00     0.042 C 
HETATM   17  C   UNL     1     -43.988  62.027 -43.845  1.00  0.00     0.001 A 
HETATM   18  C   UNL     1     -44.359  60.879 -44.537  1.00  0.00     0.001 A 
HETATM   19  C   UNL     1     -46.434  64.781 -47.149  1.00  0.00     0.044 C 
BRANCH  10  20
HETATM   20  O   UNL     1     -48.469  63.702 -46.440  1.00  0.00    -0.388 OA
HETATM   21  H   UNL     1     -48.080  63.758 -45.550  1.00  0.00     0.210 HD
ENDBRANCH  10  20
ENDBRANCH   9  10
ENDBRANCH   6   9
ENDBRANCH   1   5
BRANCH   2  22
HETATM   22  C   UNL     1     -45.039  59.971 -51.299  1.00  0.00     0.035 A 
HETATM   23  C   UNL     1     -43.829  60.215 -51.944  1.00  0.00     0.039 A 
HETATM   24  C   UNL     1     -42.925  59.170 -52.225  1.00  0.00    -0.029 A 
HETATM   25  C   UNL     1     -43.240  57.837 -51.891  1.00  0.00     0.043 A 
HETATM   26  C   UNL     1     -41.638  59.541 -52.913  1.00  0.00     0.042 C 
HETATM   27  N   UNL     1     -42.332  56.769 -52.237  1.00  0.00    -0.313 N 
HETATM   28  C   UNL     1     -44.472  57.609 -51.260  1.00  0.00     0.032 A 
HETATM   29  C   UNL     1     -42.508  55.433 -51.795  1.00  0.00     0.265 C 
HETATM   30  C   UNL     1     -41.156  57.127 -53.040  1.00  0.00     0.133 C 
HETATM   31  O   UNL     1     -43.167  55.137 -50.799  1.00  0.00    -0.267 OA
HETATM   32  C   UNL     1     -40.582  58.484 -52.675  1.00  0.00     0.025 C 
HETATM   33  C   UNL     1     -45.351  58.660 -50.955  1.00  0.00     0.032 A 
BRANCH  29  34
HETATM   34  C   UNL     1     -41.857  54.391 -52.588  1.00  0.00     0.073 A 
HETATM   35  S   UNL     1     -40.526  53.540 -51.922  1.00  0.00    -0.097 SA
HETATM   36  C   UNL     1     -40.338  52.596 -53.334  1.00  0.00     0.050 A 
HETATM   37  C   UNL     1     -41.287  52.893 -54.286  1.00  0.00     0.009 A 
HETATM   38  C   UNL     1     -42.175  53.920 -53.850  1.00  0.00     0.025 A 
ENDBRANCH  29  34
ENDBRANCH   2  22
TORSDOF 6
ENDMDL
MODEL 7
REMARK VINA RESULT:      -8.3      2.042      2.259
REMARK  6 active torsions:
REMARK  status: ('A' for Active; 'I' for Inactive)
REMARK    1  A    between atoms: C_6  and  O_7 
REMARK    2  A    between atoms: C_6  and  C_8 
REMARK    3  A    between atoms: C_8  and  N_9 
REMARK       I    between atoms: N_9  and  C_10 
REMARK    4  A    between atoms: C_10  and  C_11 
REMARK       I    between atoms: C_11  and  N_12 
REMARK    5  A    between atoms: N_12  and  C_13 
REMARK       I    between atoms: N_17  and  C_18 
REMARK    6  A    between atoms: C_18  and  C_19 
ROOT
HETATM    1  C   UNL     1     -44.299  57.957 -52.499  1.00  0.00     0.313 C 
HETATM    2  N   UNL     1     -43.991  57.381 -53.713  1.00  0.00    -0.319 N 
HETATM    3  O   UNL     1     -44.873  59.014 -52.270  1.00  0.00    -0.262 OA
HETATM    4  H   UNL     1     -43.568  56.458 -53.653  1.00  0.00     0.169 HD
ENDROOT
BRANCH   1   5
HETATM    5  C   UNL     1     -43.820  57.109 -51.300  1.00  0.00     0.309 C 
HETATM    6  N   UNL     1     -42.455  57.081 -51.176  1.00  0.00    -0.350 N 
HETATM    7  H   UNL     1     -41.922  57.694 -51.794  1.00  0.00     0.163 HD
HETATM    8  O   UNL     1     -44.627  56.530 -50.587  1.00  0.00    -0.262 OA
BRANCH   6   9
HETATM    9  C   UNL     1     -41.736  56.326 -50.170  1.00  0.00     0.161 C 
BRANCH   9  10
HETATM   10  C   UNL     1     -41.526  54.862 -50.622  1.00  0.00     0.078 C 
HETATM   11  C   UNL     1     -41.197  54.816 -52.129  1.00  0.00     0.078 C 
HETATM   12  C   UNL     1     -40.662  53.485 -52.608  1.00  0.00    -0.049 A 
HETATM   13  C   UNL     1     -40.177  52.518 -51.711  1.00  0.00    -0.052 A 
HETATM   14  C   UNL     1     -40.605  53.230 -53.988  1.00  0.00     0.007 A 
HETATM   15  C   UNL     1     -39.682  51.302 -52.206  1.00  0.00     0.007 A 
HETATM   16  C   UNL     1     -40.234  52.726 -50.219  1.00  0.00     0.042 C 
HETATM   17  C   UNL     1     -39.642  51.056 -53.577  1.00  0.00     0.001 A 
HETATM   18  C   UNL     1     -40.100  52.022 -54.468  1.00  0.00     0.001 A 
HETATM   19  C   UNL     1     -40.396  54.192 -49.824  1.00  0.00     0.044 C 
BRANCH  10  20
HETATM   20  O   UNL     1     -42.747  54.148 -50.351  1.00  0.00    -0.388 OA
HETATM   21  H   UNL     1     -42.618  53.215 -50.593  1.00  0.00     0.210 HD
ENDBRANCH  10  20
ENDBRANCH   9  10
ENDBRANCH   6   9
ENDBRANCH   1   5
BRANCH   2  22
HETATM   22  C   UNL     1     -44.180  57.941 -54.988  1.00  0.00     0.035 A 
HETATM   23  C   UNL     1     -43.134  58.264 -55.849  1.00  0.00     0.039 A 
HETATM   24  C   UNL     1     -43.379  58.784 -57.136  1.00  0.00    -0.029 A 
HETATM   25  C   UNL     1     -44.697  59.025 -57.576  1.00  0.00     0.043 A 
HETATM   26  C   UNL     1     -42.179  59.088 -57.995  1.00  0.00     0.042 C 
HETATM   27  N   UNL     1     -44.932  59.613 -58.874  1.00  0.00    -0.313 N 
HETATM   28  C   UNL     1     -45.736  58.712 -56.687  1.00  0.00     0.032 A 
HETATM   29  C   UNL     1     -46.225  59.737 -59.442  1.00  0.00     0.265 C 
HETATM   30  C   UNL     1     -43.751  60.043 -59.635  1.00  0.00     0.133 C 
HETATM   31  O   UNL     1     -47.176  59.032 -59.106  1.00  0.00    -0.267 OA
HETATM   32  C   UNL     1     -42.563  59.115 -59.458  1.00  0.00     0.025 C 
HETATM   33  C   UNL     1     -45.484  58.164 -55.420  1.00  0.00     0.032 A 
BRANCH  29  34
HETATM   34  C   UNL     1     -46.391  60.760 -60.473  1.00  0.00     0.073 A 
HETATM   35  S   UNL     1     -46.565  60.280 -62.110  1.00  0.00    -0.097 SA
HETATM   36  C   UNL     1     -46.684  61.901 -62.642  1.00  0.00     0.050 A 
HETATM   37  C   UNL     1     -46.626  62.794 -61.596  1.00  0.00     0.009 A 
HETATM   38  C   UNL     1     -46.472  62.136 -60.341  1.00  0.00     0.025 A 
ENDBRANCH  29  34
ENDBRANCH   2  22
TORSDOF 6
ENDMDL
MODEL 8
REMARK VINA RESULT:      -8.2     16.844     21.936
REMARK  6 active torsions:
REMARK  status: ('A' for Active; 'I' for Inactive)
REMARK    1  A    between atoms: C_6  and  O_7 
REMARK    2  A    between atoms: C_6  and  C_8 
REMARK    3  A    between atoms: C_8  and  N_9 
REMARK       I    between atoms: N_9  and  C_10 
REMARK    4  A    between atoms: C_10  and  C_11 
REMARK       I    between atoms: C_11  and  N_12 
REMARK    5  A    between atoms: N_12  and  C_13 
REMARK       I    between atoms: N_17  and  C_18 
REMARK    6  A    between atoms: C_18  and  C_19 
ROOT
HETATM    1  C   UNL     1     -35.066  40.783 -53.127  1.00  0.00     0.313 C 
HETATM    2  N   UNL     1     -35.361  40.824 -51.781  1.00  0.00    -0.319 N 
HETATM    3  O   UNL     1     -34.160  40.193 -53.700  1.00  0.00    -0.262 OA
HETATM    4  H   UNL     1     -36.211  41.330 -51.544  1.00  0.00     0.169 HD
ENDROOT
BRANCH   1   5
HETATM    5  C   UNL     1     -36.045  41.625 -53.976  1.00  0.00     0.309 C 
HETATM    6  N   UNL     1     -36.258  41.099 -55.224  1.00  0.00    -0.350 N 
HETATM    7  H   UNL     1     -35.855  40.181 -55.413  1.00  0.00     0.163 HD
HETATM    8  O   UNL     1     -36.528  42.655 -53.528  1.00  0.00    -0.262 OA
BRANCH   6   9
HETATM    9  C   UNL     1     -37.091  41.707 -56.240  1.00  0.00     0.161 C 
BRANCH   9  10
HETATM   10  C   UNL     1     -36.995  40.928 -57.573  1.00  0.00     0.078 C 
HETATM   11  C   UNL     1     -37.981  39.741 -57.564  1.00  0.00     0.078 C 
HETATM   12  C   UNL     1     -38.204  39.108 -58.920  1.00  0.00    -0.049 A 
HETATM   13  C   UNL     1     -37.836  39.761 -60.108  1.00  0.00    -0.052 A 
HETATM   14  C   UNL     1     -38.839  37.858 -58.992  1.00  0.00     0.007 A 
HETATM   15  C   UNL     1     -38.072  39.135 -61.342  1.00  0.00     0.007 A 
HETATM   16  C   UNL     1     -37.130  41.092 -60.092  1.00  0.00     0.042 C 
HETATM   17  C   UNL     1     -38.694  37.889 -61.400  1.00  0.00     0.001 A 
HETATM   18  C   UNL     1     -39.080  37.253 -60.224  1.00  0.00     0.001 A 
HETATM   19  C   UNL     1     -37.293  41.842 -58.772  1.00  0.00     0.044 C 
BRANCH  10  20
HETATM   20  O   UNL     1     -35.640  40.456 -57.699  1.00  0.00    -0.388 OA
HETATM   21  H   UNL     1     -35.109  41.154 -58.121  1.00  0.00     0.210 HD
ENDBRANCH  10  20
ENDBRANCH   9  10
ENDBRANCH   6   9
ENDBRANCH   1   5
BRANCH   2  22
HETATM   22  C   UNL     1     -34.608  40.269 -50.732  1.00  0.00     0.035 A 
HETATM   23  C   UNL     1     -35.029  39.177 -49.977  1.00  0.00     0.039 A 
HETATM   24  C   UNL     1     -34.217  38.631 -48.963  1.00  0.00    -0.029 A 
HETATM   25  C   UNL     1     -32.963  39.201 -48.660  1.00  0.00     0.043 A 
HETATM   26  C   UNL     1     -34.758  37.442 -48.213  1.00  0.00     0.042 C 
HETATM   27  N   UNL     1     -32.166  38.668 -47.580  1.00  0.00    -0.313 N 
HETATM   28  C   UNL     1     -32.565  40.312 -49.418  1.00  0.00     0.032 A 
HETATM   29  C   UNL     1     -30.836  39.086 -47.323  1.00  0.00     0.265 C 
HETATM   30  C   UNL     1     -32.773  37.609 -46.763  1.00  0.00     0.133 C 
HETATM   31  O   UNL     1     -30.118  39.602 -48.179  1.00  0.00    -0.267 OA
HETATM   32  C   UNL     1     -33.634  36.658 -47.572  1.00  0.00     0.025 C 
HETATM   33  C   UNL     1     -33.366  40.829 -50.447  1.00  0.00     0.032 A 
BRANCH  29  34
HETATM   34  C   UNL     1     -30.334  38.874 -45.967  1.00  0.00     0.073 A 
HETATM   35  S   UNL     1     -29.266  37.567 -45.663  1.00  0.00    -0.097 SA
HETATM   36  C   UNL     1     -29.158  37.954 -44.002  1.00  0.00     0.050 A 
HETATM   37  C   UNL     1     -29.891  39.075 -43.683  1.00  0.00     0.009 A 
HETATM   38  C   UNL     1     -30.558  39.616 -44.820  1.00  0.00     0.025 A 
ENDBRANCH  29  34
ENDBRANCH   2  22
TORSDOF 6
ENDMDL
MODEL 9
REMARK VINA RESULT:      -8.2      1.596      2.469
REMARK  6 active torsions:
REMARK  status: ('A' for Active; 'I' for Inactive)
REMARK    1  A    between atoms: C_6  and  O_7 
REMARK    2  A    between atoms: C_6  and  C_8 
REMARK    3  A    between atoms: C_8  and  N_9 
REMARK       I    between atoms: N_9  and  C_10 
REMARK    4  A    between atoms: C_10  and  C_11 
REMARK       I    between atoms: C_11  and  N_12 
REMARK    5  A    between atoms: N_12  and  C_13 
REMARK       I    between atoms: N_17  and  C_18 
REMARK    6  A    between atoms: C_18  and  C_19 
ROOT
HETATM    1  C   UNL     1     -41.846  59.091 -52.623  1.00  0.00     0.313 C 
HETATM    2  N   UNL     1     -42.769  58.288 -53.259  1.00  0.00    -0.319 N 
HETATM    3  O   UNL     1     -41.520  60.243 -52.878  1.00  0.00    -0.262 OA
HETATM    4  H   UNL     1     -42.921  57.382 -52.823  1.00  0.00     0.169 HD
ENDROOT
BRANCH   1   5
HETATM    5  C   UNL     1     -41.156  58.379 -51.438  1.00  0.00     0.309 C 
HETATM    6  N   UNL     1     -41.698  57.150 -51.164  1.00  0.00    -0.350 N 
HETATM    7  H   UNL     1     -42.395  56.795 -51.819  1.00  0.00     0.163 HD
HETATM    8  O   UNL     1     -40.241  58.921 -50.836  1.00  0.00    -0.262 OA
BRANCH   6   9
HETATM    9  C   UNL     1     -41.275  56.289 -50.079  1.00  0.00     0.161 C 
BRANCH   9  10
HETATM   10  C   UNL     1     -41.214  54.812 -50.535  1.00  0.00     0.078 C 
HETATM   11  C   UNL     1     -40.896  54.738 -52.044  1.00  0.00     0.078 C 
HETATM   12  C   UNL     1     -40.499  53.361 -52.528  1.00  0.00    -0.049 A 
HETATM   13  C   UNL     1     -40.110  52.349 -51.635  1.00  0.00    -0.052 A 
HETATM   14  C   UNL     1     -40.473  53.106 -53.908  1.00  0.00     0.007 A 
HETATM   15  C   UNL     1     -39.742  51.091 -52.135  1.00  0.00     0.007 A 
HETATM   16  C   UNL     1     -40.141  52.557 -50.143  1.00  0.00     0.042 C 
HETATM   17  C   UNL     1     -39.731  50.846 -53.507  1.00  0.00     0.001 A 
HETATM   18  C   UNL     1     -40.093  51.856 -54.394  1.00  0.00     0.001 A 
HETATM   19  C   UNL     1     -40.154  54.031 -49.743  1.00  0.00     0.044 C 
BRANCH  10  20
HETATM   20  O   UNL     1     -42.500  54.224 -50.261  1.00  0.00    -0.388 OA
HETATM   21  H   UNL     1     -43.184  54.899 -50.409  1.00  0.00     0.210 HD
ENDBRANCH  10  20
ENDBRANCH   9  10
ENDBRANCH   6   9
ENDBRANCH   1   5
BRANCH   2  22
HETATM   22  C   UNL     1     -43.482  58.584 -54.433  1.00  0.00     0.035 A 
HETATM   23  C   UNL     1     -44.422  59.608 -54.525  1.00  0.00     0.039 A 
HETATM   24  C   UNL     1     -45.079  59.892 -55.740  1.00  0.00    -0.029 A 
HETATM   25  C   UNL     1     -44.827  59.120 -56.893  1.00  0.00     0.043 A 
HETATM   26  C   UNL     1     -46.067  61.028 -55.737  1.00  0.00     0.042 C 
HETATM   27  N   UNL     1     -45.550  59.384 -58.114  1.00  0.00    -0.313 N 
HETATM   28  C   UNL     1     -43.892  58.081 -56.775  1.00  0.00     0.032 A 
HETATM   29  C   UNL     1     -45.237  58.756 -59.346  1.00  0.00     0.265 C 
HETATM   30  C   UNL     1     -46.616  60.392 -58.054  1.00  0.00     0.133 C 
HETATM   31  O   UNL     1     -44.133  58.271 -59.591  1.00  0.00    -0.267 OA
HETATM   32  C   UNL     1     -46.279  61.555 -57.140  1.00  0.00     0.025 C 
HETATM   33  C   UNL     1     -43.219  57.826 -55.570  1.00  0.00     0.032 A 
BRANCH  29  34
HETATM   34  C   UNL     1     -46.304  58.708 -60.345  1.00  0.00     0.073 A 
HETATM   35  S   UNL     1     -47.150  57.238 -60.598  1.00  0.00    -0.097 SA
HETATM   36  C   UNL     1     -48.130  57.934 -61.814  1.00  0.00     0.050 A 
HETATM   37  C   UNL     1     -47.847  59.268 -62.006  1.00  0.00     0.009 A 
HETATM   38  C   UNL     1     -46.802  59.720 -61.147  1.00  0.00     0.025 A 
ENDBRANCH  29  34
ENDBRANCH   2  22
TORSDOF 6
ENDMDL
MODEL 10
REMARK VINA RESULT:      -8.1      6.232     11.882
REMARK  6 active torsions:
REMARK  status: ('A' for Active; 'I' for Inactive)
REMARK    1  A    between atoms: C_6  and  O_7 
REMARK    2  A    between atoms: C_6  and  C_8 
REMARK    3  A    between atoms: C_8  and  N_9 
REMARK       I    between atoms: N_9  and  C_10 
REMARK    4  A    between atoms: C_10  and  C_11 
REMARK       I    between atoms: C_11  and  N_12 
REMARK    5  A    between atoms: N_12  and  C_13 
REMARK       I    between atoms: N_17  and  C_18 
REMARK    6  A    between atoms: C_18  and  C_19 
ROOT
HETATM    1  C   UNL     1     -46.766  61.560 -52.482  1.00  0.00     0.313 C 
HETATM    2  N   UNL     1     -46.326  60.863 -51.377  1.00  0.00    -0.319 N 
HETATM    3  O   UNL     1     -46.463  61.412 -53.658  1.00  0.00    -0.262 OA
HETATM    4  H   UNL     1     -46.773  61.123 -50.501  1.00  0.00     0.169 HD
ENDROOT
BRANCH   1   5
HETATM    5  C   UNL     1     -47.771  62.675 -52.120  1.00  0.00     0.309 C 
HETATM    6  N   UNL     1     -49.058  62.375 -52.486  1.00  0.00    -0.350 N 
HETATM    7  H   UNL     1     -49.230  61.433 -52.840  1.00  0.00     0.163 HD
HETATM    8  O   UNL     1     -47.390  63.705 -51.582  1.00  0.00    -0.262 OA
BRANCH   6   9
HETATM    9  C   UNL     1     -50.191  63.259 -52.309  1.00  0.00     0.161 C 
BRANCH   9  10
HETATM   10  C   UNL     1     -51.212  63.088 -53.458  1.00  0.00     0.078 C 
HETATM   11  C   UNL     1     -50.917  61.789 -54.237  1.00  0.00     0.078 C 
HETATM   12  C   UNL     1     -52.029  61.357 -55.168  1.00  0.00    -0.049 A 
HETATM   13  C   UNL     1     -53.328  61.881 -55.059  1.00  0.00    -0.052 A 
HETATM   14  C   UNL     1     -51.766  60.372 -56.133  1.00  0.00     0.007 A 
HETATM   15  C   UNL     1     -54.327  61.441 -55.940  1.00  0.00     0.007 A 
HETATM   16  C   UNL     1     -53.664  62.957 -54.059  1.00  0.00     0.042 C 
HETATM   17  C   UNL     1     -54.050  60.471 -56.902  1.00  0.00     0.001 A 
HETATM   18  C   UNL     1     -52.770  59.934 -56.995  1.00  0.00     0.001 A 
HETATM   19  C   UNL     1     -52.651  63.055 -52.920  1.00  0.00     0.044 C 
BRANCH  10  20
HETATM   20  O   UNL     1     -51.084  64.234 -54.321  1.00  0.00    -0.388 OA
HETATM   21  H   UNL     1     -51.894  64.308 -54.856  1.00  0.00     0.210 HD
ENDBRANCH  10  20
ENDBRANCH   9  10
ENDBRANCH   6   9
ENDBRANCH   1   5
BRANCH   2  22
HETATM   22  C   UNL     1     -45.331  59.871 -51.342  1.00  0.00     0.035 A 
HETATM   23  C   UNL     1     -43.966  60.151 -51.338  1.00  0.00     0.039 A 
HETATM   24  C   UNL     1     -43.008  59.120 -51.258  1.00  0.00    -0.029 A 
HETATM   25  C   UNL     1     -43.407  57.768 -51.216  1.00  0.00     0.043 A 
HETATM   26  C   UNL     1     -41.558  59.529 -51.247  1.00  0.00     0.042 C 
HETATM   27  N   UNL     1     -42.414  56.720 -51.194  1.00  0.00    -0.313 N 
HETATM   28  C   UNL     1     -44.784  57.506 -51.241  1.00  0.00     0.032 A 
HETATM   29  C   UNL     1     -42.738  55.355 -50.993  1.00  0.00     0.265 C 
HETATM   30  C   UNL     1     -41.010  57.128 -51.336  1.00  0.00     0.133 C 
HETATM   31  O   UNL     1     -43.772  54.985 -50.437  1.00  0.00    -0.267 OA
HETATM   32  C   UNL     1     -40.701  58.440 -50.639  1.00  0.00     0.025 C 
HETATM   33  C   UNL     1     -45.732  58.540 -51.287  1.00  0.00     0.032 A 
BRANCH  29  34
HETATM   34  C   UNL     1     -41.770  54.374 -51.481  1.00  0.00     0.073 A 
HETATM   35  S   UNL     1     -40.723  53.602 -50.365  1.00  0.00    -0.097 SA
HETATM   36  C   UNL     1     -39.962  52.699 -51.601  1.00  0.00     0.050 A 
HETATM   37  C   UNL     1     -40.511  52.949 -52.838  1.00  0.00     0.009 A 
HETATM   38  C   UNL     1     -41.566  53.906 -52.768  1.00  0.00     0.025 A 
ENDBRANCH  29  34
ENDBRANCH   2  22
TORSDOF 6
ENDMDL
