MODEL 1
REMARK VINA RESULT:      -9.0      0.000      0.000
REMARK  8 active torsions:
REMARK  status: ('A' for Active; 'I' for Inactive)
REMARK    1  A    between atoms: C_2  and  C_3 
REMARK    2  A    between atoms: C_3  and  C_4 
REMARK       I    between atoms: C_4  and  N_5 
REMARK    3  A    between atoms: N_8  and  C_9 
REMARK    4  A    between atoms: C_12  and  N_13 
REMARK    5  A    between atoms: N_13  and  C_14 
REMARK    6  A    between atoms: C_14  and  N_15 
REMARK       I    between atoms: N_15  and  C_16 
REMARK    7  A    between atoms: C_16  and  C_17 
REMARK    8  A    between atoms: C_18  and  O_19 
ROOT
HETATM    1  N   UNL     1     -43.426  58.012 -54.229  1.00  0.00    -0.333 N 
HETATM    2  H   UNL     1     -43.156  58.944 -53.932  1.00  0.00     0.168 HD
ENDROOT
BRANCH   1   3
HETATM    3  C   UNL     1     -43.983  57.970 -55.522  1.00  0.00     0.034 A 
HETATM    4  C   UNL     1     -43.409  57.342 -56.620  1.00  0.00     0.032 A 
HETATM    5  C   UNL     1     -44.080  57.309 -57.858  1.00  0.00     0.031 A 
HETATM    6  C   UNL     1     -45.350  57.878 -58.039  1.00  0.00     0.030 A 
HETATM    7  C   UNL     1     -45.927  58.462 -56.901  1.00  0.00     0.031 A 
HETATM    8  C   UNL     1     -45.258  58.518 -55.672  1.00  0.00     0.032 A 
BRANCH   6   9
HETATM    9  N   UNL     1     -46.065  57.822 -59.246  1.00  0.00    -0.378 N 
HETATM   10  C   UNL     1     -46.997  58.922 -59.567  1.00  0.00     0.143 C 
HETATM   11  C   UNL     1     -47.435  58.873 -61.045  1.00  0.00     0.145 C 
HETATM   12  N   UNL     1     -47.894  57.549 -61.483  1.00  0.00    -0.349 N 
HETATM   13  C   UNL     1     -48.694  57.347 -62.606  1.00  0.00     0.219 C 
HETATM   14  C   UNL     1     -47.034  56.437 -61.070  1.00  0.00     0.145 C 
HETATM   15  O   UNL     1     -48.800  56.244 -63.142  1.00  0.00    -0.273 OA
HETATM   16  C   UNL     1     -46.639  56.493 -59.584  1.00  0.00     0.143 C 
BRANCH  13  17
HETATM   17  C   UNL     1     -49.461  58.556 -63.124  1.00  0.00     0.103 C 
BRANCH  17  18
HETATM   18  C   UNL     1     -50.877  58.634 -62.553  1.00  0.00     0.005 C 
HETATM   19  C   UNL     1     -51.108  59.941 -61.811  1.00  0.00     0.005 C 
ENDBRANCH  17  18
ENDBRANCH  13  17
ENDBRANCH   6   9
ENDBRANCH   1   3
BRANCH   1  20
HETATM   20  C   UNL     1     -43.428  57.134 -53.210  1.00  0.00     0.179 C 
HETATM   21  S   UNL     1     -44.218  57.571 -51.796  1.00  0.00    -0.040 SA
BRANCH  20  22
HETATM   22  N   UNL     1     -42.795  55.934 -53.211  1.00  0.00    -0.299 N 
HETATM   23  C   UNL     1     -41.531  55.597 -53.699  1.00  0.00     0.260 C 
HETATM   24  O   UNL     1     -40.857  56.256 -54.476  1.00  0.00    -0.267 OA
HETATM   25  H   UNL     1     -43.087  55.391 -52.409  1.00  0.00     0.171 HD
BRANCH  23  26
HETATM   26  C   UNL     1     -41.000  54.311 -53.152  1.00  0.00     0.066 A 
HETATM   27  C   UNL     1     -40.747  54.144 -51.786  1.00  0.00     0.084 A 
HETATM   28  C   UNL     1     -40.242  52.929 -51.309  1.00  0.00     0.050 A 
HETATM   29  C   UNL     1     -40.027  51.846 -52.174  1.00  0.00    -0.023 A 
HETATM   30  C   UNL     1     -40.288  52.002 -53.553  1.00  0.00    -0.025 A 
HETATM   31  C   UNL     1     -39.558  50.612 -51.696  1.00  0.00     0.012 A 
HETATM   32  C   UNL     1     -40.756  53.240 -54.030  1.00  0.00     0.032 A 
HETATM   33  C   UNL     1     -40.075  50.915 -54.418  1.00  0.00     0.012 A 
HETATM   34  C   UNL     1     -39.617  49.692 -53.926  1.00  0.00     0.001 A 
HETATM   35  C   UNL     1     -39.358  49.540 -52.566  1.00  0.00     0.001 A 
BRANCH  27  36
HETATM   36  O   UNL     1     -40.917  55.122 -50.843  1.00  0.00    -0.355 OA
HETATM   37  C   UNL     1     -41.875  54.753 -49.853  1.00  0.00     0.210 C 
ENDBRANCH  27  36
ENDBRANCH  23  26
ENDBRANCH  20  22
ENDBRANCH   1  20
TORSDOF 8
ENDMDL
MODEL 2
REMARK VINA RESULT:      -8.7      1.758      2.923
REMARK  8 active torsions:
REMARK  status: ('A' for Active; 'I' for Inactive)
REMARK    1  A    between atoms: C_2  and  C_3 
REMARK    2  A    between atoms: C_3  and  C_4 
REMARK       I    between atoms: C_4  and  N_5 
REMARK    3  A    between atoms: N_8  and  C_9 
REMARK    4  A    between atoms: C_12  and  N_13 
REMARK    5  A    between atoms: N_13  and  C_14 
REMARK    6  A    between atoms: C_14  and  N_15 
REMARK       I    between atoms: N_15  and  C_16 
REMARK    7  A    between atoms: C_16  and  C_17 
REMARK    8  A    between atoms: C_18  and  O_19 
ROOT
HETATM    1  N   UNL     1     -42.020  59.456 -52.571  1.00  0.00    -0.333 N 
HETATM    2  H   UNL     1     -42.481  60.206 -52.067  1.00  0.00     0.168 HD
ENDROOT
BRANCH   1   3
HETATM    3  C   UNL     1     -42.586  59.193 -53.833  1.00  0.00     0.034 A 
HETATM    4  C   UNL     1     -41.949  59.389 -55.052  1.00  0.00     0.032 A 
HETATM    5  C   UNL     1     -42.586  59.038 -56.258  1.00  0.00     0.031 A 
HETATM    6  C   UNL     1     -43.865  58.460 -56.291  1.00  0.00     0.030 A 
HETATM    7  C   UNL     1     -44.464  58.227 -55.044  1.00  0.00     0.031 A 
HETATM    8  C   UNL     1     -43.847  58.594 -53.841  1.00  0.00     0.032 A 
BRANCH   6   9
HETATM    9  N   UNL     1     -44.507  58.056 -57.473  1.00  0.00    -0.378 N 
HETATM   10  C   UNL     1     -45.981  58.127 -57.535  1.00  0.00     0.143 C 
HETATM   11  C   UNL     1     -46.490  57.970 -58.983  1.00  0.00     0.145 C 
HETATM   12  N   UNL     1     -45.913  56.821 -59.691  1.00  0.00    -0.349 N 
HETATM   13  C   UNL     1     -46.493  56.247 -60.821  1.00  0.00     0.219 C 
HETATM   14  C   UNL     1     -44.462  56.676 -59.541  1.00  0.00     0.145 C 
HETATM   15  O   UNL     1     -45.857  55.518 -61.582  1.00  0.00    -0.273 OA
HETATM   16  C   UNL     1     -43.987  56.804 -58.083  1.00  0.00     0.143 C 
BRANCH  13  17
HETATM   17  C   UNL     1     -47.968  56.539 -61.054  1.00  0.00     0.103 C 
BRANCH  17  18
HETATM   18  C   UNL     1     -48.283  56.804 -62.526  1.00  0.00     0.005 C 
HETATM   19  C   UNL     1     -49.300  57.922 -62.687  1.00  0.00     0.005 C 
ENDBRANCH  17  18
ENDBRANCH  13  17
ENDBRANCH   6   9
ENDBRANCH   1   3
BRANCH   1  20
HETATM   20  C   UNL     1     -41.186  58.752 -51.784  1.00  0.00     0.179 C 
HETATM   21  S   UNL     1     -40.424  59.557 -50.526  1.00  0.00    -0.040 SA
BRANCH  20  22
HETATM   22  N   UNL     1     -40.868  57.444 -51.956  1.00  0.00    -0.299 N 
HETATM   23  C   UNL     1     -41.442  56.308 -51.382  1.00  0.00     0.260 C 
HETATM   24  O   UNL     1     -42.159  56.282 -50.393  1.00  0.00    -0.267 OA
HETATM   25  H   UNL     1     -40.507  57.298 -52.890  1.00  0.00     0.171 HD
BRANCH  23  26
HETATM   26  C   UNL     1     -41.131  55.044 -52.115  1.00  0.00     0.066 A 
HETATM   27  C   UNL     1     -41.287  54.942 -53.502  1.00  0.00     0.084 A 
HETATM   28  C   UNL     1     -40.995  53.741 -54.156  1.00  0.00     0.050 A 
HETATM   29  C   UNL     1     -40.497  52.636 -53.450  1.00  0.00    -0.023 A 
HETATM   30  C   UNL     1     -40.327  52.731 -52.051  1.00  0.00    -0.025 A 
HETATM   31  C   UNL     1     -40.164  51.440 -54.106  1.00  0.00     0.012 A 
HETATM   32  C   UNL     1     -40.662  53.929 -51.396  1.00  0.00     0.032 A 
HETATM   33  C   UNL     1     -39.825  51.624 -51.345  1.00  0.00     0.012 A 
HETATM   34  C   UNL     1     -39.490  50.444 -52.013  1.00  0.00     0.001 A 
HETATM   35  C   UNL     1     -39.660  50.352 -53.392  1.00  0.00     0.001 A 
BRANCH  27  36
HETATM   36  O   UNL     1     -41.762  55.948 -54.301  1.00  0.00    -0.355 OA
HETATM   37  C   UNL     1     -41.678  55.617 -55.687  1.00  0.00     0.210 C 
ENDBRANCH  27  36
ENDBRANCH  23  26
ENDBRANCH  20  22
ENDBRANCH   1  20
TORSDOF 8
ENDMDL
MODEL 3
REMARK VINA RESULT:      -8.2      6.987     11.921
REMARK  8 active torsions:
REMARK  status: ('A' for Active; 'I' for Inactive)
REMARK    1  A    between atoms: C_2  and  C_3 
REMARK    2  A    between atoms: C_3  and  C_4 
REMARK       I    between atoms: C_4  and  N_5 
REMARK    3  A    between atoms: N_8  and  C_9 
REMARK    4  A    between atoms: C_12  and  N_13 
REMARK    5  A    between atoms: N_13  and  C_14 
REMARK    6  A    between atoms: C_14  and  N_15 
REMARK       I    between atoms: N_15  and  C_16 
REMARK    7  A    between atoms: C_16  and  C_17 
REMARK    8  A    between atoms: C_18  and  O_19 
ROOT
HETATM    1  N   UNL     1     -45.673  60.786 -50.874  1.00  0.00    -0.333 N 
HETATM    2  H   UNL     1     -46.677  60.633 -50.883  1.00  0.00     0.168 HD
ENDROOT
BRANCH   1   3
HETATM    3  C   UNL     1     -44.921  59.609 -51.049  1.00  0.00     0.034 A 
HETATM    4  C   UNL     1     -45.453  58.344 -51.267  1.00  0.00     0.032 A 
HETATM    5  C   UNL     1     -44.609  57.240 -51.489  1.00  0.00     0.031 A 
HETATM    6  C   UNL     1     -43.211  57.359 -51.524  1.00  0.00     0.030 A 
HETATM    7  C   UNL     1     -42.702  58.655 -51.351  1.00  0.00     0.031 A 
HETATM    8  C   UNL     1     -43.534  59.755 -51.107  1.00  0.00     0.032 A 
BRANCH   6   9
HETATM    9  N   UNL     1     -42.343  56.286 -51.789  1.00  0.00    -0.378 N 
HETATM   10  C   UNL     1     -42.267  55.764 -53.168  1.00  0.00     0.143 C 
HETATM   11  C   UNL     1     -41.050  54.835 -53.350  1.00  0.00     0.145 C 
HETATM   12  N   UNL     1     -40.931  53.806 -52.310  1.00  0.00    -0.349 N 
HETATM   13  C   UNL     1     -40.186  52.638 -52.468  1.00  0.00     0.219 C 
HETATM   14  C   UNL     1     -41.119  54.295 -50.942  1.00  0.00     0.145 C 
HETATM   15  O   UNL     1     -39.830  51.956 -51.507  1.00  0.00    -0.273 OA
HETATM   16  C   UNL     1     -42.358  55.192 -50.783  1.00  0.00     0.143 C 
BRANCH  13  17
HETATM   17  C   UNL     1     -39.858  52.226 -53.896  1.00  0.00     0.103 C 
BRANCH  17  18
HETATM   18  C   UNL     1     -40.530  50.911 -54.291  1.00  0.00     0.005 C 
HETATM   19  C   UNL     1     -39.523  49.777 -54.388  1.00  0.00     0.005 C 
ENDBRANCH  17  18
ENDBRANCH  13  17
ENDBRANCH   6   9
ENDBRANCH   1   3
BRANCH   1  20
HETATM   20  C   UNL     1     -45.350  62.013 -50.427  1.00  0.00     0.179 C 
HETATM   21  S   UNL     1     -44.554  63.049 -51.479  1.00  0.00    -0.040 SA
BRANCH  20  22
HETATM   22  N   UNL     1     -45.571  62.469 -49.169  1.00  0.00    -0.299 N 
HETATM   23  C   UNL     1     -45.764  61.753 -47.986  1.00  0.00     0.260 C 
HETATM   24  O   UNL     1     -46.053  60.570 -47.896  1.00  0.00    -0.267 OA
HETATM   25  H   UNL     1     -45.112  63.362 -49.042  1.00  0.00     0.171 HD
BRANCH  23  26
HETATM   26  C   UNL     1     -45.549  62.568 -46.751  1.00  0.00     0.066 A 
HETATM   27  C   UNL     1     -46.109  63.842 -46.606  1.00  0.00     0.084 A 
HETATM   28  C   UNL     1     -45.881  64.581 -45.440  1.00  0.00     0.050 A 
HETATM   29  C   UNL     1     -45.134  64.047 -44.380  1.00  0.00    -0.023 A 
HETATM   30  C   UNL     1     -44.572  62.758 -44.513  1.00  0.00    -0.025 A 
HETATM   31  C   UNL     1     -44.935  64.767 -43.191  1.00  0.00     0.012 A 
HETATM   32  C   UNL     1     -44.771  62.039 -45.705  1.00  0.00     0.032 A 
HETATM   33  C   UNL     1     -43.826  62.223 -43.448  1.00  0.00     0.012 A 
HETATM   34  C   UNL     1     -43.645  62.948 -42.269  1.00  0.00     0.001 A 
HETATM   35  C   UNL     1     -44.198  64.219 -42.141  1.00  0.00     0.001 A 
BRANCH  27  36
HETATM   36  O   UNL     1     -46.857  64.471 -47.565  1.00  0.00    -0.355 OA
HETATM   37  C   UNL     1     -48.246  64.171 -47.446  1.00  0.00     0.210 C 
ENDBRANCH  27  36
ENDBRANCH  23  26
ENDBRANCH  20  22
ENDBRANCH   1  20
TORSDOF 8
ENDMDL
MODEL 4
REMARK VINA RESULT:      -8.1      2.386      3.438
REMARK  8 active torsions:
REMARK  status: ('A' for Active; 'I' for Inactive)
REMARK    1  A    between atoms: C_2  and  C_3 
REMARK    2  A    between atoms: C_3  and  C_4 
REMARK       I    between atoms: C_4  and  N_5 
REMARK    3  A    between atoms: N_8  and  C_9 
REMARK    4  A    between atoms: C_12  and  N_13 
REMARK    5  A    between atoms: N_13  and  C_14 
REMARK    6  A    between atoms: C_14  and  N_15 
REMARK       I    between atoms: N_15  and  C_16 
REMARK    7  A    between atoms: C_16  and  C_17 
REMARK    8  A    between atoms: C_18  and  O_19 
ROOT
HETATM    1  N   UNL     1     -42.089  59.216 -51.294  1.00  0.00    -0.333 N 
HETATM    2  H   UNL     1     -42.741  59.398 -50.537  1.00  0.00     0.168 HD
ENDROOT
BRANCH   1   3
HETATM    3  C   UNL     1     -42.647  59.396 -52.575  1.00  0.00     0.034 A 
HETATM    4  C   UNL     1     -41.938  59.767 -53.711  1.00  0.00     0.032 A 
HETATM    5  C   UNL     1     -42.583  59.862 -54.958  1.00  0.00     0.031 A 
HETATM    6  C   UNL     1     -43.947  59.572 -55.123  1.00  0.00     0.030 A 
HETATM    7  C   UNL     1     -44.627  59.153 -53.969  1.00  0.00     0.031 A 
HETATM    8  C   UNL     1     -43.998  59.076 -52.720  1.00  0.00     0.032 A 
BRANCH   6   9
HETATM    9  N   UNL     1     -44.609  59.613 -56.360  1.00  0.00    -0.378 N 
HETATM   10  C   UNL     1     -45.724  58.673 -56.596  1.00  0.00     0.143 C 
HETATM   11  C   UNL     1     -46.538  59.070 -57.844  1.00  0.00     0.145 C 
HETATM   12  N   UNL     1     -45.713  59.332 -59.029  1.00  0.00    -0.349 N 
HETATM   13  C   UNL     1     -46.210  59.307 -60.331  1.00  0.00     0.219 C 
HETATM   14  C   UNL     1     -44.537  60.172 -58.782  1.00  0.00     0.145 C 
HETATM   15  O   UNL     1     -45.612  59.834 -61.269  1.00  0.00    -0.273 OA
HETATM   16  C   UNL     1     -43.727  59.734 -57.550  1.00  0.00     0.143 C 
BRANCH  13  17
HETATM   17  C   UNL     1     -47.522  58.565 -60.547  1.00  0.00     0.103 C 
BRANCH  17  18
HETATM   18  C   UNL     1     -47.308  57.154 -61.095  1.00  0.00     0.005 C 
HETATM   19  C   UNL     1     -46.985  56.168 -59.985  1.00  0.00     0.005 C 
ENDBRANCH  17  18
ENDBRANCH  13  17
ENDBRANCH   6   9
ENDBRANCH   1   3
BRANCH   1  20
HETATM   20  C   UNL     1     -40.974  58.597 -50.868  1.00  0.00     0.179 C 
HETATM   21  S   UNL     1     -39.614  59.535 -50.579  1.00  0.00    -0.040 SA
BRANCH  20  22
HETATM   22  N   UNL     1     -40.841  57.258 -50.697  1.00  0.00    -0.299 N 
HETATM   23  C   UNL     1     -41.806  56.252 -50.782  1.00  0.00     0.260 C 
HETATM   24  O   UNL     1     -43.017  56.407 -50.748  1.00  0.00    -0.267 OA
HETATM   25  H   UNL     1     -39.914  56.966 -50.978  1.00  0.00     0.171 HD
BRANCH  23  26
HETATM   26  C   UNL     1     -41.231  54.884 -50.961  1.00  0.00     0.066 A 
HETATM   27  C   UNL     1     -40.916  54.071 -49.866  1.00  0.00     0.084 A 
HETATM   28  C   UNL     1     -40.371  52.799 -50.069  1.00  0.00     0.050 A 
HETATM   29  C   UNL     1     -40.175  52.294 -51.362  1.00  0.00    -0.023 A 
HETATM   30  C   UNL     1     -40.499  53.102 -52.475  1.00  0.00    -0.025 A 
HETATM   31  C   UNL     1     -39.666  51.002 -51.573  1.00  0.00     0.012 A 
HETATM   32  C   UNL     1     -41.007  54.396 -52.261  1.00  0.00     0.032 A 
HETATM   33  C   UNL     1     -40.305  52.594 -53.771  1.00  0.00     0.012 A 
HETATM   34  C   UNL     1     -39.805  51.304 -53.963  1.00  0.00     0.001 A 
HETATM   35  C   UNL     1     -39.486  50.510 -52.866  1.00  0.00     0.001 A 
BRANCH  27  36
HETATM   36  O   UNL     1     -41.061  54.448 -48.557  1.00  0.00    -0.355 OA
HETATM   37  C   UNL     1     -40.234  53.683 -47.683  1.00  0.00     0.210 C 
ENDBRANCH  27  36
ENDBRANCH  23  26
ENDBRANCH  20  22
ENDBRANCH   1  20
TORSDOF 8
ENDMDL
MODEL 5
REMARK VINA RESULT:      -8.0      5.193      8.608
REMARK  8 active torsions:
REMARK  status: ('A' for Active; 'I' for Inactive)
REMARK    1  A    between atoms: C_2  and  C_3 
REMARK    2  A    between atoms: C_3  and  C_4 
REMARK       I    between atoms: C_4  and  N_5 
REMARK    3  A    between atoms: N_8  and  C_9 
REMARK    4  A    between atoms: C_12  and  N_13 
REMARK    5  A    between atoms: N_13  and  C_14 
REMARK    6  A    between atoms: C_14  and  N_15 
REMARK       I    between atoms: N_15  and  C_16 
REMARK    7  A    between atoms: C_16  and  C_17 
REMARK    8  A    between atoms: C_18  and  O_19 
ROOT
HETATM    1  N   UNL     1     -42.757  59.042 -55.339  1.00  0.00    -0.333 N 
HETATM    2  H   UNL     1     -42.209  59.706 -55.877  1.00  0.00     0.168 HD
ENDROOT
BRANCH   1   3
HETATM    3  C   UNL     1     -43.460  59.627 -54.268  1.00  0.00     0.034 A 
HETATM    4  C   UNL     1     -44.604  59.101 -53.681  1.00  0.00     0.032 A 
HETATM    5  C   UNL     1     -45.197  59.736 -52.574  1.00  0.00     0.031 A 
HETATM    6  C   UNL     1     -44.662  60.901 -52.000  1.00  0.00     0.030 A 
HETATM    7  C   UNL     1     -43.479  61.381 -52.581  1.00  0.00     0.031 A 
HETATM    8  C   UNL     1     -42.895  60.768 -53.697  1.00  0.00     0.032 A 
BRANCH   6   9
HETATM    9  N   UNL     1     -45.203  61.532 -50.868  1.00  0.00    -0.378 N 
HETATM   10  C   UNL     1     -45.108  60.845 -49.564  1.00  0.00     0.143 C 
HETATM   11  C   UNL     1     -45.440  61.801 -48.400  1.00  0.00     0.145 C 
HETATM   12  N   UNL     1     -46.684  62.556 -48.593  1.00  0.00    -0.349 N 
HETATM   13  C   UNL     1     -47.388  63.153 -47.549  1.00  0.00     0.219 C 
HETATM   14  C   UNL     1     -46.841  63.147 -49.925  1.00  0.00     0.145 C 
HETATM   15  O   UNL     1     -48.224  64.035 -47.746  1.00  0.00    -0.273 OA
HETATM   16  C   UNL     1     -46.534  62.162 -51.066  1.00  0.00     0.143 C 
BRANCH  13  17
HETATM   17  C   UNL     1     -47.096  62.639 -46.146  1.00  0.00     0.103 C 
BRANCH  17  18
HETATM   18  C   UNL     1     -46.649  63.753 -45.200  1.00  0.00     0.005 C 
HETATM   19  C   UNL     1     -45.135  63.853 -45.132  1.00  0.00     0.005 C 
ENDBRANCH  17  18
ENDBRANCH  13  17
ENDBRANCH   6   9
ENDBRANCH   1   3
BRANCH   1  20
HETATM   20  C   UNL     1     -42.441  57.768 -55.631  1.00  0.00     0.179 C 
HETATM   21  S   UNL     1     -42.562  57.273 -57.230  1.00  0.00    -0.040 SA
BRANCH  20  22
HETATM   22  N   UNL     1     -42.077  56.826 -54.725  1.00  0.00    -0.299 N 
HETATM   23  C   UNL     1     -42.782  55.707 -54.276  1.00  0.00     0.260 C 
HETATM   24  O   UNL     1     -43.982  55.512 -54.399  1.00  0.00    -0.267 OA
HETATM   25  H   UNL     1     -41.073  56.702 -54.742  1.00  0.00     0.171 HD
BRANCH  23  26
HETATM   26  C   UNL     1     -41.919  54.680 -53.618  1.00  0.00     0.066 A 
HETATM   27  C   UNL     1     -41.422  54.860 -52.322  1.00  0.00     0.084 A 
HETATM   28  C   UNL     1     -40.609  53.881 -51.739  1.00  0.00     0.050 A 
HETATM   29  C   UNL     1     -40.318  52.687 -52.414  1.00  0.00    -0.023 A 
HETATM   30  C   UNL     1     -40.824  52.491 -53.719  1.00  0.00    -0.025 A 
HETATM   31  C   UNL     1     -39.537  51.683 -51.820  1.00  0.00     0.012 A 
HETATM   32  C   UNL     1     -41.605  53.498 -54.313  1.00  0.00     0.032 A 
HETATM   33  C   UNL     1     -40.534  51.292 -54.393  1.00  0.00     0.012 A 
HETATM   34  C   UNL     1     -39.763  50.301 -53.784  1.00  0.00     0.001 A 
HETATM   35  C   UNL     1     -39.264  50.496 -52.499  1.00  0.00     0.001 A 
BRANCH  27  36
HETATM   36  O   UNL     1     -41.635  55.979 -51.562  1.00  0.00    -0.355 OA
HETATM   37  C   UNL     1     -41.207  55.800 -50.213  1.00  0.00     0.210 C 
ENDBRANCH  27  36
ENDBRANCH  23  26
ENDBRANCH  20  22
ENDBRANCH   1  20
TORSDOF 8
ENDMDL
MODEL 6
REMARK VINA RESULT:      -8.0      1.666      2.150
REMARK  8 active torsions:
REMARK  status: ('A' for Active; 'I' for Inactive)
REMARK    1  A    between atoms: C_2  and  C_3 
REMARK    2  A    between atoms: C_3  and  C_4 
REMARK       I    between atoms: C_4  and  N_5 
REMARK    3  A    between atoms: N_8  and  C_9 
REMARK    4  A    between atoms: C_12  and  N_13 
REMARK    5  A    between atoms: N_13  and  C_14 
REMARK    6  A    between atoms: C_14  and  N_15 
REMARK       I    between atoms: N_15  and  C_16 
REMARK    7  A    between atoms: C_16  and  C_17 
REMARK    8  A    between atoms: C_18  and  O_19 
ROOT
HETATM    1  N   UNL     1     -41.100  59.065 -53.450  1.00  0.00    -0.333 N 
HETATM    2  H   UNL     1     -40.414  59.807 -53.543  1.00  0.00     0.168 HD
ENDROOT
BRANCH   1   3
HETATM    3  C   UNL     1     -42.015  59.005 -54.519  1.00  0.00     0.034 A 
HETATM    4  C   UNL     1     -42.846  60.044 -54.920  1.00  0.00     0.032 A 
HETATM    5  C   UNL     1     -43.684  59.899 -56.041  1.00  0.00     0.031 A 
HETATM    6  C   UNL     1     -43.709  58.727 -56.813  1.00  0.00     0.030 A 
HETATM    7  C   UNL     1     -42.824  57.713 -56.416  1.00  0.00     0.031 A 
HETATM    8  C   UNL     1     -42.003  57.841 -55.289  1.00  0.00     0.032 A 
BRANCH   6   9
HETATM    9  N   UNL     1     -44.499  58.568 -57.964  1.00  0.00    -0.378 N 
HETATM   10  C   UNL     1     -45.334  59.702 -58.410  1.00  0.00     0.143 C 
HETATM   11  C   UNL     1     -45.864  59.480 -59.841  1.00  0.00     0.145 C 
HETATM   12  N   UNL     1     -46.480  58.163 -60.045  1.00  0.00    -0.349 N 
HETATM   13  C   UNL     1     -47.364  57.883 -61.086  1.00  0.00     0.219 C 
HETATM   14  C   UNL     1     -45.712  57.038 -59.503  1.00  0.00     0.145 C 
HETATM   15  O   UNL     1     -47.613  56.730 -61.438  1.00  0.00    -0.273 OA
HETATM   16  C   UNL     1     -45.224  57.274 -58.064  1.00  0.00     0.143 C 
BRANCH  13  17
HETATM   17  C   UNL     1     -48.035  59.077 -61.751  1.00  0.00     0.103 C 
BRANCH  17  18
HETATM   18  C   UNL     1     -48.791  58.685 -63.020  1.00  0.00     0.005 C 
HETATM   19  C   UNL     1     -50.286  58.577 -62.769  1.00  0.00     0.005 C 
ENDBRANCH  17  18
ENDBRANCH  13  17
ENDBRANCH   6   9
ENDBRANCH   1   3
BRANCH   1  20
HETATM   20  C   UNL     1     -41.110  58.533 -52.215  1.00  0.00     0.179 C 
HETATM   21  S   UNL     1     -41.268  59.575 -50.910  1.00  0.00    -0.040 SA
BRANCH  20  22
HETATM   22  N   UNL     1     -40.950  57.216 -51.930  1.00  0.00    -0.299 N 
HETATM   23  C   UNL     1     -41.832  56.152 -52.128  1.00  0.00     0.260 C 
HETATM   24  O   UNL     1     -43.032  56.237 -52.336  1.00  0.00    -0.267 OA
HETATM   25  H   UNL     1     -39.973  56.964 -52.008  1.00  0.00     0.171 HD
BRANCH  23  26
HETATM   26  C   UNL     1     -41.170  54.812 -52.098  1.00  0.00     0.066 A 
HETATM   27  C   UNL     1     -40.481  54.358 -50.968  1.00  0.00     0.084 A 
HETATM   28  C   UNL     1     -39.866  53.102 -50.977  1.00  0.00     0.050 A 
HETATM   29  C   UNL     1     -39.965  52.256 -52.092  1.00  0.00    -0.023 A 
HETATM   30  C   UNL     1     -40.666  52.701 -53.235  1.00  0.00    -0.025 A 
HETATM   31  C   UNL     1     -39.384  50.978 -52.094  1.00  0.00     0.012 A 
HETATM   32  C   UNL     1     -41.246  53.982 -53.232  1.00  0.00     0.032 A 
HETATM   33  C   UNL     1     -40.768  51.851 -54.350  1.00  0.00     0.012 A 
HETATM   34  C   UNL     1     -40.192  50.580 -54.332  1.00  0.00     0.001 A 
HETATM   35  C   UNL     1     -39.500  50.144 -53.206  1.00  0.00     0.001 A 
BRANCH  27  36
HETATM   36  O   UNL     1     -40.315  55.087 -49.821  1.00  0.00    -0.355 OA
HETATM   37  C   UNL     1     -40.987  54.499 -48.708  1.00  0.00     0.210 C 
ENDBRANCH  27  36
ENDBRANCH  23  26
ENDBRANCH  20  22
ENDBRANCH   1  20
TORSDOF 8
ENDMDL
MODEL 7
REMARK VINA RESULT:      -7.9      1.966      3.261
REMARK  8 active torsions:
REMARK  status: ('A' for Active; 'I' for Inactive)
REMARK    1  A    between atoms: C_2  and  C_3 
REMARK    2  A    between atoms: C_3  and  C_4 
REMARK       I    between atoms: C_4  and  N_5 
REMARK    3  A    between atoms: N_8  and  C_9 
REMARK    4  A    between atoms: C_12  and  N_13 
REMARK    5  A    between atoms: N_13  and  C_14 
REMARK    6  A    between atoms: C_14  and  N_15 
REMARK       I    between atoms: N_15  and  C_16 
REMARK    7  A    between atoms: C_16  and  C_17 
REMARK    8  A    between atoms: C_18  and  O_19 
ROOT
HETATM    1  N   UNL     1     -42.459  58.965 -51.731  1.00  0.00    -0.333 N 
HETATM    2  H   UNL     1     -43.002  59.293 -50.939  1.00  0.00     0.168 HD
ENDROOT
BRANCH   1   3
HETATM    3  C   UNL     1     -43.176  58.955 -52.943  1.00  0.00     0.034 A 
HETATM    4  C   UNL     1     -44.470  58.473 -53.103  1.00  0.00     0.032 A 
HETATM    5  C   UNL     1     -45.119  58.563 -54.349  1.00  0.00     0.031 A 
HETATM    6  C   UNL     1     -44.514  59.154 -55.469  1.00  0.00     0.030 A 
HETATM    7  C   UNL     1     -43.228  59.677 -55.267  1.00  0.00     0.031 A 
HETATM    8  C   UNL     1     -42.567  59.571 -54.036  1.00  0.00     0.032 A 
BRANCH   6   9
HETATM    9  N   UNL     1     -45.152  59.301 -56.712  1.00  0.00    -0.378 N 
HETATM   10  C   UNL     1     -46.254  58.379 -57.054  1.00  0.00     0.143 C 
HETATM   11  C   UNL     1     -47.046  58.881 -58.279  1.00  0.00     0.145 C 
HETATM   12  N   UNL     1     -46.199  59.255 -59.418  1.00  0.00    -0.349 N 
HETATM   13  C   UNL     1     -46.670  59.344 -60.727  1.00  0.00     0.219 C 
HETATM   14  C   UNL     1     -45.036  60.077 -59.071  1.00  0.00     0.145 C 
HETATM   15  O   UNL     1     -46.057  59.958 -61.600  1.00  0.00    -0.273 OA
HETATM   16  C   UNL     1     -44.246  59.535 -57.868  1.00  0.00     0.143 C 
BRANCH  13  17
HETATM   17  C   UNL     1     -47.970  58.616 -61.035  1.00  0.00     0.103 C 
BRANCH  17  18
HETATM   18  C   UNL     1     -47.739  57.162 -61.445  1.00  0.00     0.005 C 
HETATM   19  C   UNL     1     -48.512  56.807 -62.704  1.00  0.00     0.005 C 
ENDBRANCH  17  18
ENDBRANCH  13  17
ENDBRANCH   6   9
ENDBRANCH   1   3
BRANCH   1  20
HETATM   20  C   UNL     1     -41.309  58.380 -51.351  1.00  0.00     0.179 C 
HETATM   21  S   UNL     1     -40.211  59.299 -50.475  1.00  0.00    -0.040 SA
BRANCH  20  22
HETATM   22  N   UNL     1     -40.936  57.114 -51.663  1.00  0.00    -0.299 N 
HETATM   23  C   UNL     1     -41.330  55.905 -51.087  1.00  0.00     0.260 C 
HETATM   24  O   UNL     1     -41.873  55.765 -50.001  1.00  0.00    -0.267 OA
HETATM   25  H   UNL     1     -40.723  57.051 -52.650  1.00  0.00     0.171 HD
BRANCH  23  26
HETATM   26  C   UNL     1     -41.059  54.714 -51.947  1.00  0.00     0.066 A 
HETATM   27  C   UNL     1     -41.297  54.736 -53.326  1.00  0.00     0.084 A 
HETATM   28  C   UNL     1     -41.040  53.599 -54.102  1.00  0.00     0.050 A 
HETATM   29  C   UNL     1     -40.498  52.440 -53.528  1.00  0.00    -0.023 A 
HETATM   30  C   UNL     1     -40.246  52.411 -52.138  1.00  0.00    -0.025 A 
HETATM   31  C   UNL     1     -40.200  51.310 -54.307  1.00  0.00     0.012 A 
HETATM   32  C   UNL     1     -40.546  53.543 -51.360  1.00  0.00     0.032 A 
HETATM   33  C   UNL     1     -39.699  51.250 -51.566  1.00  0.00     0.012 A 
HETATM   34  C   UNL     1     -39.401  50.138 -52.355  1.00  0.00     0.001 A 
HETATM   35  C   UNL     1     -39.652  50.167 -53.724  1.00  0.00     0.001 A 
BRANCH  27  36
HETATM   36  O   UNL     1     -41.822  55.804 -54.003  1.00  0.00    -0.355 OA
HETATM   37  C   UNL     1     -43.002  55.455 -54.724  1.00  0.00     0.210 C 
ENDBRANCH  27  36
ENDBRANCH  23  26
ENDBRANCH  20  22
ENDBRANCH   1  20
TORSDOF 8
ENDMDL
MODEL 8
REMARK VINA RESULT:      -7.9      3.320      4.194
REMARK  8 active torsions:
REMARK  status: ('A' for Active; 'I' for Inactive)
REMARK    1  A    between atoms: C_2  and  C_3 
REMARK    2  A    between atoms: C_3  and  C_4 
REMARK       I    between atoms: C_4  and  N_5 
REMARK    3  A    between atoms: N_8  and  C_9 
REMARK    4  A    between atoms: C_12  and  N_13 
REMARK    5  A    between atoms: N_13  and  C_14 
REMARK    6  A    between atoms: C_14  and  N_15 
REMARK       I    between atoms: N_15  and  C_16 
REMARK    7  A    between atoms: C_16  and  C_17 
REMARK    8  A    between atoms: C_18  and  O_19 
ROOT
HETATM    1  N   UNL     1     -41.959  59.082 -51.644  1.00  0.00    -0.333 N 
HETATM    2  H   UNL     1     -42.785  59.032 -51.056  1.00  0.00     0.168 HD
ENDROOT
BRANCH   1   3
HETATM    3  C   UNL     1     -42.220  59.546 -52.947  1.00  0.00     0.034 A 
HETATM    4  C   UNL     1     -42.713  60.806 -53.263  1.00  0.00     0.032 A 
HETATM    5  C   UNL     1     -42.884  61.192 -54.606  1.00  0.00     0.031 A 
HETATM    6  C   UNL     1     -42.550  60.349 -55.678  1.00  0.00     0.030 A 
HETATM    7  C   UNL     1     -42.008  59.103 -55.331  1.00  0.00     0.031 A 
HETATM    8  C   UNL     1     -41.855  58.703 -53.997  1.00  0.00     0.032 A 
BRANCH   6   9
HETATM    9  N   UNL     1     -42.664  60.721 -57.027  1.00  0.00    -0.378 N 
HETATM   10  C   UNL     1     -43.971  61.204 -57.519  1.00  0.00     0.143 C 
HETATM   11  C   UNL     1     -43.839  61.872 -58.902  1.00  0.00     0.145 C 
HETATM   12  N   UNL     1     -43.089  61.070 -59.877  1.00  0.00    -0.349 N 
HETATM   13  C   UNL     1     -43.178  61.258 -61.255  1.00  0.00     0.219 C 
HETATM   14  C   UNL     1     -41.844  60.491 -59.363  1.00  0.00     0.145 C 
HETATM   15  O   UNL     1     -42.328  60.821 -62.030  1.00  0.00    -0.273 OA
HETATM   16  C   UNL     1     -42.013  59.803 -57.998  1.00  0.00     0.143 C 
BRANCH  13  17
HETATM   17  C   UNL     1     -44.402  62.006 -61.764  1.00  0.00     0.103 C 
BRANCH  17  18
HETATM   18  C   UNL     1     -45.397  61.084 -62.467  1.00  0.00     0.005 C 
HETATM   19  C   UNL     1     -46.252  60.321 -61.470  1.00  0.00     0.005 C 
ENDBRANCH  17  18
ENDBRANCH  13  17
ENDBRANCH   6   9
ENDBRANCH   1   3
BRANCH   1  20
HETATM   20  C   UNL     1     -40.910  58.437 -51.102  1.00  0.00     0.179 C 
HETATM   21  S   UNL     1     -39.633  59.359 -50.524  1.00  0.00    -0.040 SA
BRANCH  20  22
HETATM   22  N   UNL     1     -40.774  57.090 -51.028  1.00  0.00    -0.299 N 
HETATM   23  C   UNL     1     -41.689  56.086 -51.351  1.00  0.00     0.260 C 
HETATM   24  O   UNL     1     -42.894  56.226 -51.495  1.00  0.00    -0.267 OA
HETATM   25  H   UNL     1     -39.807  56.833 -51.183  1.00  0.00     0.171 HD
BRANCH  23  26
HETATM   26  C   UNL     1     -41.062  54.745 -51.554  1.00  0.00     0.066 A 
HETATM   27  C   UNL     1     -40.310  54.127 -50.548  1.00  0.00     0.084 A 
HETATM   28  C   UNL     1     -39.729  52.875 -50.774  1.00  0.00     0.050 A 
HETATM   29  C   UNL     1     -39.925  52.195 -51.985  1.00  0.00    -0.023 A 
HETATM   30  C   UNL     1     -40.690  52.806 -53.003  1.00  0.00    -0.025 A 
HETATM   31  C   UNL     1     -39.379  50.920 -52.204  1.00  0.00     0.012 A 
HETATM   32  C   UNL     1     -41.236  54.083 -52.783  1.00  0.00     0.032 A 
HETATM   33  C   UNL     1     -40.889  52.121 -54.215  1.00  0.00     0.012 A 
HETATM   34  C   UNL     1     -40.345  50.851 -54.413  1.00  0.00     0.001 A 
HETATM   35  C   UNL     1     -39.590  50.251 -53.410  1.00  0.00     0.001 A 
BRANCH  27  36
HETATM   36  O   UNL     1     -40.048  54.686 -49.326  1.00  0.00    -0.355 OA
HETATM   37  C   UNL     1     -40.563  53.899 -48.253  1.00  0.00     0.210 C 
ENDBRANCH  27  36
ENDBRANCH  23  26
ENDBRANCH  20  22
ENDBRANCH   1  20
TORSDOF 8
ENDMDL
MODEL 9
REMARK VINA RESULT:      -7.7      3.999      4.735
REMARK  8 active torsions:
REMARK  status: ('A' for Active; 'I' for Inactive)
REMARK    1  A    between atoms: C_2  and  C_3 
REMARK    2  A    between atoms: C_3  and  C_4 
REMARK       I    between atoms: C_4  and  N_5 
REMARK    3  A    between atoms: N_8  and  C_9 
REMARK    4  A    between atoms: C_12  and  N_13 
REMARK    5  A    between atoms: N_13  and  C_14 
REMARK    6  A    between atoms: C_14  and  N_15 
REMARK       I    between atoms: N_15  and  C_16 
REMARK    7  A    between atoms: C_16  and  C_17 
REMARK    8  A    between atoms: C_18  and  O_19 
ROOT
HETATM    1  N   UNL     1     -43.059  58.360 -52.653  1.00  0.00    -0.333 N 
HETATM    2  H   UNL     1     -44.026  58.251 -52.366  1.00  0.00     0.168 HD
ENDROOT
BRANCH   1   3
HETATM    3  C   UNL     1     -42.908  58.975 -53.911  1.00  0.00     0.034 A 
HETATM    4  C   UNL     1     -42.618  60.318 -54.115  1.00  0.00     0.032 A 
HETATM    5  C   UNL     1     -42.429  60.820 -55.416  1.00  0.00     0.031 A 
HETATM    6  C   UNL     1     -42.500  60.002 -56.555  1.00  0.00     0.030 A 
HETATM    7  C   UNL     1     -42.744  58.641 -56.316  1.00  0.00     0.031 A 
HETATM    8  C   UNL     1     -42.955  58.137 -55.026  1.00  0.00     0.032 A 
BRANCH   6   9
HETATM    9  N   UNL     1     -42.270  60.463 -57.861  1.00  0.00    -0.378 N 
HETATM   10  C   UNL     1     -42.342  61.915 -58.121  1.00  0.00     0.143 C 
HETATM   11  C   UNL     1     -41.747  62.269 -59.499  1.00  0.00     0.145 C 
HETATM   12  N   UNL     1     -42.258  61.436 -60.595  1.00  0.00    -0.349 N 
HETATM   13  C   UNL     1     -42.192  61.809 -61.936  1.00  0.00     0.219 C 
HETATM   14  C   UNL     1     -42.299  60.000 -60.304  1.00  0.00     0.145 C 
HETATM   15  O   UNL     1     -42.318  60.991 -62.848  1.00  0.00    -0.273 OA
HETATM   16  C   UNL     1     -42.926  59.675 -58.938  1.00  0.00     0.143 C 
BRANCH  13  17
HETATM   17  C   UNL     1     -41.987  63.290 -62.224  1.00  0.00     0.103 C 
BRANCH  17  18
HETATM   18  C   UNL     1     -40.680  63.561 -62.969  1.00  0.00     0.005 C 
HETATM   19  C   UNL     1     -39.488  62.963 -62.241  1.00  0.00     0.005 C 
ENDBRANCH  17  18
ENDBRANCH  13  17
ENDBRANCH   6   9
ENDBRANCH   1   3
BRANCH   1  20
HETATM   20  C   UNL     1     -42.218  57.646 -51.884  1.00  0.00     0.179 C 
HETATM   21  S   UNL     1     -41.424  58.440 -50.637  1.00  0.00    -0.040 SA
BRANCH  20  22
HETATM   22  N   UNL     1     -41.916  56.336 -52.064  1.00  0.00    -0.299 N 
HETATM   23  C   UNL     1     -41.037  55.744 -52.974  1.00  0.00     0.260 C 
HETATM   24  O   UNL     1     -40.578  56.266 -53.979  1.00  0.00    -0.267 OA
HETATM   25  H   UNL     1     -41.996  55.840 -51.185  1.00  0.00     0.171 HD
BRANCH  23  26
HETATM   26  C   UNL     1     -40.639  54.352 -52.605  1.00  0.00     0.066 A 
HETATM   27  C   UNL     1     -40.389  53.987 -51.277  1.00  0.00     0.084 A 
HETATM   28  C   UNL     1     -40.010  52.677 -50.968  1.00  0.00     0.050 A 
HETATM   29  C   UNL     1     -39.921  51.695 -51.965  1.00  0.00    -0.023 A 
HETATM   30  C   UNL     1     -40.181  52.050 -53.308  1.00  0.00    -0.025 A 
HETATM   31  C   UNL     1     -39.580  50.368 -51.657  1.00  0.00     0.012 A 
HETATM   32  C   UNL     1     -40.520  53.380 -53.615  1.00  0.00     0.032 A 
HETATM   33  C   UNL     1     -40.094  51.065 -54.306  1.00  0.00     0.012 A 
HETATM   34  C   UNL     1     -39.762  49.748 -53.981  1.00  0.00     0.001 A 
HETATM   35  C   UNL     1     -39.505  49.400 -52.659  1.00  0.00     0.001 A 
BRANCH  27  36
HETATM   36  O   UNL     1     -40.443  54.851 -50.216  1.00  0.00    -0.355 OA
HETATM   37  C   UNL     1     -41.201  54.321 -49.130  1.00  0.00     0.210 C 
ENDBRANCH  27  36
ENDBRANCH  23  26
ENDBRANCH  20  22
ENDBRANCH   1  20
TORSDOF 8
ENDMDL
MODEL 10
REMARK VINA RESULT:      -7.7      4.828     11.170
REMARK  8 active torsions:
REMARK  status: ('A' for Active; 'I' for Inactive)
REMARK    1  A    between atoms: C_2  and  C_3 
REMARK    2  A    between atoms: C_3  and  C_4 
REMARK       I    between atoms: C_4  and  N_5 
REMARK    3  A    between atoms: N_8  and  C_9 
REMARK    4  A    between atoms: C_12  and  N_13 
REMARK    5  A    between atoms: N_13  and  C_14 
REMARK    6  A    between atoms: C_14  and  N_15 
REMARK       I    between atoms: N_15  and  C_16 
REMARK    7  A    between atoms: C_16  and  C_17 
REMARK    8  A    between atoms: C_18  and  O_19 
ROOT
HETATM    1  N   UNL     1     -44.891  58.942 -57.555  1.00  0.00    -0.333 N 
HETATM    2  H   UNL     1     -45.739  58.660 -58.037  1.00  0.00     0.168 HD
ENDROOT
BRANCH   1   3
HETATM    3  C   UNL     1     -44.287  57.905 -56.819  1.00  0.00     0.034 A 
HETATM    4  C   UNL     1     -43.331  57.025 -57.312  1.00  0.00     0.032 A 
HETATM    5  C   UNL     1     -42.747  56.058 -56.472  1.00  0.00     0.031 A 
HETATM    6  C   UNL     1     -43.076  55.948 -55.111  1.00  0.00     0.030 A 
HETATM    7  C   UNL     1     -44.006  56.880 -54.629  1.00  0.00     0.031 A 
HETATM    8  C   UNL     1     -44.609  57.831 -55.463  1.00  0.00     0.032 A 
BRANCH   6   9
HETATM    9  N   UNL     1     -42.478  55.026 -54.237  1.00  0.00    -0.378 N 
HETATM   10  C   UNL     1     -42.566  55.271 -52.783  1.00  0.00     0.143 C 
HETATM   11  C   UNL     1     -42.161  54.021 -51.977  1.00  0.00     0.145 C 
HETATM   12  N   UNL     1     -40.891  53.425 -52.410  1.00  0.00    -0.349 N 
HETATM   13  C   UNL     1     -40.134  52.570 -51.610  1.00  0.00     0.219 C 
HETATM   14  C   UNL     1     -40.746  53.282 -53.861  1.00  0.00     0.145 C 
HETATM   15  O   UNL     1     -39.267  51.834 -52.081  1.00  0.00    -0.273 OA
HETATM   16  C   UNL     1     -41.126  54.554 -54.637  1.00  0.00     0.143 C 
BRANCH  13  17
HETATM   17  C   UNL     1     -40.409  52.612 -50.114  1.00  0.00     0.103 C 
BRANCH  17  18
HETATM   18  C   UNL     1     -39.837  53.865 -49.453  1.00  0.00     0.005 C 
HETATM   19  C   UNL     1     -40.907  54.639 -48.701  1.00  0.00     0.005 C 
ENDBRANCH  17  18
ENDBRANCH  13  17
ENDBRANCH   6   9
ENDBRANCH   1   3
BRANCH   1  20
HETATM   20  C   UNL     1     -44.739  60.278 -57.535  1.00  0.00     0.179 C 
HETATM   21  S   UNL     1     -45.921  61.193 -56.772  1.00  0.00    -0.040 SA
BRANCH  20  22
HETATM   22  N   UNL     1     -43.728  60.959 -58.130  1.00  0.00    -0.299 N 
HETATM   23  C   UNL     1     -42.348  60.787 -58.004  1.00  0.00     0.260 C 
HETATM   24  O   UNL     1     -41.774  60.176 -57.115  1.00  0.00    -0.267 OA
HETATM   25  H   UNL     1     -44.022  61.285 -59.041  1.00  0.00     0.171 HD
BRANCH  23  26
HETATM   26  C   UNL     1     -41.562  61.412 -59.112  1.00  0.00     0.066 A 
HETATM   27  C   UNL     1     -41.831  61.123 -60.455  1.00  0.00     0.084 A 
HETATM   28  C   UNL     1     -41.070  61.719 -61.467  1.00  0.00     0.050 A 
HETATM   29  C   UNL     1     -40.064  62.646 -61.164  1.00  0.00    -0.023 A 
HETATM   30  C   UNL     1     -39.791  62.952 -59.812  1.00  0.00    -0.025 A 
HETATM   31  C   UNL     1     -39.323  63.278 -62.176  1.00  0.00     0.012 A 
HETATM   32  C   UNL     1     -40.532  62.317 -58.799  1.00  0.00     0.032 A 
HETATM   33  C   UNL     1     -38.784  63.885 -59.510  1.00  0.00     0.012 A 
HETATM   34  C   UNL     1     -38.062  64.510 -60.528  1.00  0.00     0.001 A 
HETATM   35  C   UNL     1     -38.331  64.207 -61.860  1.00  0.00     0.001 A 
BRANCH  27  36
HETATM   36  O   UNL     1     -42.785  60.238 -60.878  1.00  0.00    -0.355 OA
HETATM   37  C   UNL     1     -43.709  60.838 -61.785  1.00  0.00     0.210 C 
ENDBRANCH  27  36
ENDBRANCH  23  26
ENDBRANCH  20  22
ENDBRANCH   1  20
TORSDOF 8
ENDMDL
