MODEL 1
REMARK VINA RESULT:      -9.2      0.000      0.000
REMARK  5 active torsions:
REMARK  status: ('A' for Active; 'I' for Inactive)
REMARK    1  A    between atoms: C_3  and  C_4 
REMARK    2  A    between atoms: C_15  and  C_16 
REMARK       I    between atoms: C_16  and  N_17 
REMARK    3  A    between atoms: N_17  and  C_18 
REMARK    4  A    between atoms: C_18  and  C_19 
REMARK    5  A    between atoms: C_22  and  O_23 
ROOT
HETATM    1  C   UNL     1     -43.190  54.333 -50.313  1.00  0.00     0.055 C 
HETATM    2  C   UNL     1     -43.236  55.205 -51.533  1.00  0.00     0.024 A 
HETATM    3  C   UNL     1     -42.586  55.012 -52.694  1.00  0.00     0.096 A 
HETATM    4  O   UNL     1     -42.701  55.811 -53.813  1.00  0.00    -0.307 OA
HETATM    5  C   UNL     1     -43.463  56.949 -53.761  1.00  0.00     0.106 A 
HETATM    6  C   UNL     1     -44.150  57.303 -52.598  1.00  0.00     0.050 A 
HETATM    7  C   UNL     1     -44.099  56.407 -51.431  1.00  0.00     0.193 A 
HETATM    8  O   UNL     1     -44.740  56.656 -50.415  1.00  0.00    -0.287 OA
HETATM    9  C   UNL     1     -43.547  57.774 -54.896  1.00  0.00     0.066 A 
HETATM   10  C   UNL     1     -44.287  58.969 -54.813  1.00  0.00     0.020 A 
HETATM   11  C   UNL     1     -44.952  59.326 -53.640  1.00  0.00     0.002 A 
HETATM   12  C   UNL     1     -44.894  58.486 -52.532  1.00  0.00     0.018 A 
ENDROOT
BRANCH   9  13
HETATM   13  C   UNL     1     -42.945  57.453 -56.234  1.00  0.00     0.254 C 
HETATM   14  N   UNL     1     -43.373  56.313 -56.873  1.00  0.00    -0.353 N 
HETATM   15  H   UNL     1     -43.962  55.653 -56.383  1.00  0.00     0.163 HD
HETATM   16  O   UNL     1     -42.137  58.227 -56.738  1.00  0.00    -0.268 OA
BRANCH  14  17
HETATM   17  C   UNL     1     -42.964  55.975 -58.213  1.00  0.00     0.161 C 
BRANCH  17  18
HETATM   18  C   UNL     1     -44.128  55.954 -59.167  1.00  0.00    -0.040 A 
HETATM   19  C   UNL     1     -45.150  56.907 -59.075  1.00  0.00     0.011 A 
HETATM   20  C   UNL     1     -46.201  56.902 -59.995  1.00  0.00     0.037 A 
HETATM   21  C   UNL     1     -46.251  55.953 -61.018  1.00  0.00     0.068 A 
HETATM   22  C   UNL     1     -45.255  54.978 -61.091  1.00  0.00     0.037 A 
HETATM   23  C   UNL     1     -44.204  54.976 -60.168  1.00  0.00     0.011 A 
BRANCH  21  24
HETATM   24  O   UNL     1     -47.315  56.077 -61.868  1.00  0.00    -0.356 OA
HETATM   25  C   UNL     1     -48.078  57.273 -61.762  1.00  0.00     0.210 C 
ENDBRANCH  21  24
ENDBRANCH  17  18
ENDBRANCH  14  17
ENDBRANCH   9  13
BRANCH   3  26
HETATM   26  C   UNL     1     -41.643  53.904 -52.906  1.00  0.00    -0.002 A 
HETATM   27  C   UNL     1     -41.641  53.194 -54.112  1.00  0.00     0.014 A 
HETATM   28  C   UNL     1     -40.727  52.158 -54.314  1.00  0.00     0.001 A 
HETATM   29  C   UNL     1     -39.809  51.830 -53.315  1.00  0.00     0.000 A 
HETATM   30  C   UNL     1     -39.802  52.537 -52.114  1.00  0.00     0.001 A 
HETATM   31  C   UNL     1     -40.713  53.573 -51.910  1.00  0.00     0.014 A 
ENDBRANCH   3  26
TORSDOF 5
ENDMDL
MODEL 2
REMARK VINA RESULT:      -9.2      2.871      7.251
REMARK  5 active torsions:
REMARK  status: ('A' for Active; 'I' for Inactive)
REMARK    1  A    between atoms: C_3  and  C_4 
REMARK    2  A    between atoms: C_15  and  C_16 
REMARK       I    between atoms: C_16  and  N_17 
REMARK    3  A    between atoms: N_17  and  C_18 
REMARK    4  A    between atoms: C_18  and  C_19 
REMARK    5  A    between atoms: C_22  and  O_23 
ROOT
HETATM    1  C   UNL     1     -43.239  55.618 -57.595  1.00  0.00     0.055 C 
HETATM    2  C   UNL     1     -43.261  56.423 -56.330  1.00  0.00     0.024 A 
HETATM    3  C   UNL     1     -42.610  56.154 -55.184  1.00  0.00     0.096 A 
HETATM    4  O   UNL     1     -42.614  56.954 -54.060  1.00  0.00    -0.307 OA
HETATM    5  C   UNL     1     -43.393  58.082 -54.030  1.00  0.00     0.106 A 
HETATM    6  C   UNL     1     -44.167  58.452 -55.131  1.00  0.00     0.050 A 
HETATM    7  C   UNL     1     -44.097  57.648 -56.363  1.00  0.00     0.193 A 
HETATM    8  O   UNL     1     -44.716  57.980 -57.369  1.00  0.00    -0.287 OA
HETATM    9  C   UNL     1     -43.415  58.871 -52.867  1.00  0.00     0.066 A 
HETATM   10  C   UNL     1     -44.263  59.995 -52.827  1.00  0.00     0.020 A 
HETATM   11  C   UNL     1     -45.049  60.345 -53.925  1.00  0.00     0.002 A 
HETATM   12  C   UNL     1     -44.994  59.579 -55.085  1.00  0.00     0.018 A 
ENDROOT
BRANCH   9  13
HETATM   13  C   UNL     1     -42.554  58.641 -51.659  1.00  0.00     0.254 C 
HETATM   14  N   UNL     1     -42.341  57.343 -51.261  1.00  0.00    -0.353 N 
HETATM   15  H   UNL     1     -42.868  56.593 -51.687  1.00  0.00     0.163 HD
HETATM   16  O   UNL     1     -42.029  59.598 -51.096  1.00  0.00    -0.268 OA
BRANCH  14  17
HETATM   17  C   UNL     1     -41.428  56.996 -50.200  1.00  0.00     0.161 C 
BRANCH  17  18
HETATM   18  C   UNL     1     -41.159  55.516 -50.151  1.00  0.00    -0.040 A 
HETATM   19  C   UNL     1     -41.200  54.740 -51.316  1.00  0.00     0.011 A 
HETATM   20  C   UNL     1     -40.904  53.375 -51.262  1.00  0.00     0.037 A 
HETATM   21  C   UNL     1     -40.564  52.765 -50.053  1.00  0.00     0.068 A 
HETATM   22  C   UNL     1     -40.559  53.526 -48.884  1.00  0.00     0.037 A 
HETATM   23  C   UNL     1     -40.860  54.892 -48.933  1.00  0.00     0.011 A 
BRANCH  21  24
HETATM   24  O   UNL     1     -40.269  51.432 -50.143  1.00  0.00    -0.356 OA
HETATM   25  C   UNL     1     -39.599  51.009 -51.323  1.00  0.00     0.210 C 
ENDBRANCH  21  24
ENDBRANCH  17  18
ENDBRANCH  14  17
ENDBRANCH   9  13
BRANCH   3  26
HETATM   26  C   UNL     1     -41.807  54.938 -54.990  1.00  0.00    -0.002 A 
HETATM   27  C   UNL     1     -40.410  54.995 -55.036  1.00  0.00     0.014 A 
HETATM   28  C   UNL     1     -39.654  53.839 -54.828  1.00  0.00     0.001 A 
HETATM   29  C   UNL     1     -40.290  52.624 -54.568  1.00  0.00     0.000 A 
HETATM   30  C   UNL     1     -41.681  52.562 -54.514  1.00  0.00     0.001 A 
HETATM   31  C   UNL     1     -42.439  53.715 -54.721  1.00  0.00     0.014 A 
ENDBRANCH   3  26
TORSDOF 5
ENDMDL
MODEL 3
REMARK VINA RESULT:      -9.1      3.328      5.988
REMARK  5 active torsions:
REMARK  status: ('A' for Active; 'I' for Inactive)
REMARK    1  A    between atoms: C_3  and  C_4 
REMARK    2  A    between atoms: C_15  and  C_16 
REMARK       I    between atoms: C_16  and  N_17 
REMARK    3  A    between atoms: N_17  and  C_18 
REMARK    4  A    between atoms: C_18  and  C_19 
REMARK    5  A    between atoms: C_22  and  O_23 
ROOT
HETATM    1  C   UNL     1     -41.271  55.354 -48.627  1.00  0.00     0.055 C 
HETATM    2  C   UNL     1     -41.155  54.803 -50.017  1.00  0.00     0.024 A 
HETATM    3  C   UNL     1     -41.623  55.353 -51.151  1.00  0.00     0.096 A 
HETATM    4  O   UNL     1     -41.444  54.838 -52.419  1.00  0.00    -0.307 OA
HETATM    5  C   UNL     1     -40.816  53.630 -52.580  1.00  0.00     0.106 A 
HETATM    6  C   UNL     1     -40.329  52.920 -51.481  1.00  0.00     0.050 A 
HETATM    7  C   UNL     1     -40.441  53.508 -50.136  1.00  0.00     0.193 A 
HETATM    8  O   UNL     1     -39.968  52.939 -49.158  1.00  0.00    -0.287 OA
HETATM    9  C   UNL     1     -40.668  53.099 -53.873  1.00  0.00     0.066 A 
HETATM   10  C   UNL     1     -40.073  51.832 -54.021  1.00  0.00     0.020 A 
HETATM   11  C   UNL     1     -39.608  51.119 -52.916  1.00  0.00     0.002 A 
HETATM   12  C   UNL     1     -39.726  51.668 -51.643  1.00  0.00     0.018 A 
ENDROOT
BRANCH   9  13
HETATM   13  C   UNL     1     -41.052  53.809 -55.139  1.00  0.00     0.254 C 
HETATM   14  N   UNL     1     -42.371  54.163 -55.301  1.00  0.00    -0.353 N 
HETATM   15  H   UNL     1     -43.067  53.823 -54.651  1.00  0.00     0.163 HD
HETATM   16  O   UNL     1     -40.188  54.095 -55.962  1.00  0.00    -0.268 OA
BRANCH  14  17
HETATM   17  C   UNL     1     -42.830  54.961 -56.411  1.00  0.00     0.161 C 
BRANCH  17  18
HETATM   18  C   UNL     1     -42.637  56.433 -56.162  1.00  0.00    -0.040 A 
HETATM   19  C   UNL     1     -42.616  56.945 -54.860  1.00  0.00     0.011 A 
HETATM   20  C   UNL     1     -42.392  58.306 -54.643  1.00  0.00     0.037 A 
HETATM   21  C   UNL     1     -42.187  59.177 -55.715  1.00  0.00     0.068 A 
HETATM   22  C   UNL     1     -42.245  58.678 -57.017  1.00  0.00     0.037 A 
HETATM   23  C   UNL     1     -42.475  57.316 -57.238  1.00  0.00     0.011 A 
BRANCH  21  24
HETATM   24  O   UNL     1     -41.949  60.478 -55.365  1.00  0.00    -0.356 OA
HETATM   25  C   UNL     1     -42.706  60.991 -54.276  1.00  0.00     0.210 C 
ENDBRANCH  21  24
ENDBRANCH  17  18
ENDBRANCH  14  17
ENDBRANCH   9  13
BRANCH   3  26
HETATM   26  C   UNL     1     -42.411  56.594 -51.169  1.00  0.00    -0.002 A 
HETATM   27  C   UNL     1     -43.809  56.547 -51.219  1.00  0.00     0.014 A 
HETATM   28  C   UNL     1     -44.551  57.730 -51.213  1.00  0.00     0.001 A 
HETATM   29  C   UNL     1     -43.900  58.963 -51.154  1.00  0.00     0.000 A 
HETATM   30  C   UNL     1     -42.509  59.017 -51.099  1.00  0.00     0.001 A 
HETATM   31  C   UNL     1     -41.765  57.837 -51.103  1.00  0.00     0.014 A 
ENDBRANCH   3  26
TORSDOF 5
ENDMDL
MODEL 4
REMARK VINA RESULT:      -9.1      2.754      7.573
REMARK  5 active torsions:
REMARK  status: ('A' for Active; 'I' for Inactive)
REMARK    1  A    between atoms: C_3  and  C_4 
REMARK    2  A    between atoms: C_15  and  C_16 
REMARK       I    between atoms: C_16  and  N_17 
REMARK    3  A    between atoms: N_17  and  C_18 
REMARK    4  A    between atoms: C_18  and  C_19 
REMARK    5  A    between atoms: C_22  and  O_23 
ROOT
HETATM    1  C   UNL     1     -42.866  61.324 -54.501  1.00  0.00     0.055 C 
HETATM    2  C   UNL     1     -42.779  59.915 -55.004  1.00  0.00     0.024 A 
HETATM    3  C   UNL     1     -42.247  58.856 -54.367  1.00  0.00     0.096 A 
HETATM    4  O   UNL     1     -42.239  57.561 -54.845  1.00  0.00    -0.307 OA
HETATM    5  C   UNL     1     -42.726  57.295 -56.098  1.00  0.00     0.106 A 
HETATM    6  C   UNL     1     -43.257  58.312 -56.895  1.00  0.00     0.050 A 
HETATM    7  C   UNL     1     -43.347  59.678 -56.354  1.00  0.00     0.193 A 
HETATM    8  O   UNL     1     -43.864  60.581 -57.002  1.00  0.00    -0.287 OA
HETATM    9  C   UNL     1     -42.682  55.979 -56.588  1.00  0.00     0.066 A 
HETATM   10  C   UNL     1     -43.132  55.728 -57.899  1.00  0.00     0.020 A 
HETATM   11  C   UNL     1     -43.641  56.753 -58.696  1.00  0.00     0.002 A 
HETATM   12  C   UNL     1     -43.715  58.047 -58.190  1.00  0.00     0.018 A 
ENDROOT
BRANCH   9  13
HETATM   13  C   UNL     1     -42.235  54.785 -55.796  1.00  0.00     0.254 C 
HETATM   14  N   UNL     1     -40.921  54.736 -55.395  1.00  0.00    -0.353 N 
HETATM   15  H   UNL     1     -40.261  55.414 -55.751  1.00  0.00     0.163 HD
HETATM   16  O   UNL     1     -43.050  53.920 -55.488  1.00  0.00    -0.268 OA
BRANCH  14  17
HETATM   17  C   UNL     1     -40.413  53.708 -54.521  1.00  0.00     0.161 C 
BRANCH  17  18
HETATM   18  C   UNL     1     -40.614  54.054 -53.070  1.00  0.00    -0.040 A 
HETATM   19  C   UNL     1     -40.240  53.160 -52.059  1.00  0.00     0.011 A 
HETATM   20  C   UNL     1     -40.391  53.513 -50.716  1.00  0.00     0.037 A 
HETATM   21  C   UNL     1     -40.914  54.758 -50.359  1.00  0.00     0.068 A 
HETATM   22  C   UNL     1     -41.323  55.637 -51.362  1.00  0.00     0.037 A 
HETATM   23  C   UNL     1     -41.179  55.284 -52.709  1.00  0.00     0.011 A 
BRANCH  21  24
HETATM   24  O   UNL     1     -40.981  54.990 -49.013  1.00  0.00    -0.356 OA
HETATM   25  C   UNL     1     -40.427  53.991 -48.167  1.00  0.00     0.210 C 
ENDBRANCH  21  24
ENDBRANCH  17  18
ENDBRANCH  14  17
ENDBRANCH   9  13
BRANCH   3  26
HETATM   26  C   UNL     1     -41.586  58.962 -53.058  1.00  0.00    -0.002 A 
HETATM   27  C   UNL     1     -40.193  58.874 -52.957  1.00  0.00     0.014 A 
HETATM   28  C   UNL     1     -39.571  58.998 -51.713  1.00  0.00     0.001 A 
HETATM   29  C   UNL     1     -40.337  59.214 -50.566  1.00  0.00     0.000 A 
HETATM   30  C   UNL     1     -41.724  59.308 -50.661  1.00  0.00     0.001 A 
HETATM   31  C   UNL     1     -42.348  59.186 -51.903  1.00  0.00     0.014 A 
ENDBRANCH   3  26
TORSDOF 5
ENDMDL
MODEL 5
REMARK VINA RESULT:      -9.1      3.172      6.535
REMARK  5 active torsions:
REMARK  status: ('A' for Active; 'I' for Inactive)
REMARK    1  A    between atoms: C_3  and  C_4 
REMARK    2  A    between atoms: C_15  and  C_16 
REMARK       I    between atoms: C_16  and  N_17 
REMARK    3  A    between atoms: N_17  and  C_18 
REMARK    4  A    between atoms: C_18  and  C_19 
REMARK    5  A    between atoms: C_22  and  O_23 
ROOT
HETATM    1  C   UNL     1     -42.418  59.925 -50.857  1.00  0.00     0.055 C 
HETATM    2  C   UNL     1     -42.387  59.256 -52.198  1.00  0.00     0.024 A 
HETATM    3  C   UNL     1     -42.286  57.938 -52.446  1.00  0.00     0.096 A 
HETATM    4  O   UNL     1     -42.317  57.358 -53.698  1.00  0.00    -0.307 OA
HETATM    5  C   UNL     1     -42.373  58.152 -54.814  1.00  0.00     0.106 A 
HETATM    6  C   UNL     1     -42.425  59.543 -54.706  1.00  0.00     0.050 A 
HETATM    7  C   UNL     1     -42.479  60.160 -53.371  1.00  0.00     0.193 A 
HETATM    8  O   UNL     1     -42.588  61.375 -53.240  1.00  0.00    -0.287 OA
HETATM    9  C   UNL     1     -42.371  57.553 -56.086  1.00  0.00     0.066 A 
HETATM   10  C   UNL     1     -42.372  58.380 -57.225  1.00  0.00     0.020 A 
HETATM   11  C   UNL     1     -42.401  59.770 -57.108  1.00  0.00     0.002 A 
HETATM   12  C   UNL     1     -42.439  60.354 -55.846  1.00  0.00     0.018 A 
ENDROOT
BRANCH   9  13
HETATM   13  C   UNL     1     -42.424  56.073 -56.335  1.00  0.00     0.254 C 
HETATM   14  N   UNL     1     -41.938  55.240 -55.355  1.00  0.00    -0.353 N 
HETATM   15  H   UNL     1     -41.435  55.629 -54.569  1.00  0.00     0.163 HD
HETATM   16  O   UNL     1     -42.937  55.648 -57.366  1.00  0.00    -0.268 OA
BRANCH  14  17
HETATM   17  C   UNL     1     -42.056  53.805 -55.427  1.00  0.00     0.161 C 
BRANCH  17  18
HETATM   18  C   UNL     1     -41.246  53.120 -54.360  1.00  0.00    -0.040 A 
HETATM   19  C   UNL     1     -41.118  53.680 -53.084  1.00  0.00     0.011 A 
HETATM   20  C   UNL     1     -40.399  53.011 -52.091  1.00  0.00     0.037 A 
HETATM   21  C   UNL     1     -39.799  51.777 -52.351  1.00  0.00     0.068 A 
HETATM   22  C   UNL     1     -39.892  51.232 -53.632  1.00  0.00     0.037 A 
HETATM   23  C   UNL     1     -40.606  51.903 -54.631  1.00  0.00     0.011 A 
BRANCH  21  24
HETATM   24  O   UNL     1     -39.151  51.214 -51.286  1.00  0.00    -0.356 OA
HETATM   25  C   UNL     1     -39.558  49.903 -50.917  1.00  0.00     0.210 C 
ENDBRANCH  21  24
ENDBRANCH  17  18
ENDBRANCH  14  17
ENDBRANCH   9  13
BRANCH   3  26
HETATM   26  C   UNL     1     -42.114  56.937 -51.383  1.00  0.00    -0.002 A 
HETATM   27  C   UNL     1     -43.146  56.043 -51.075  1.00  0.00     0.014 A 
HETATM   28  C   UNL     1     -42.966  55.081 -50.079  1.00  0.00     0.001 A 
HETATM   29  C   UNL     1     -41.754  55.005 -49.390  1.00  0.00     0.000 A 
HETATM   30  C   UNL     1     -40.721  55.888 -49.696  1.00  0.00     0.001 A 
HETATM   31  C   UNL     1     -40.897  56.850 -50.691  1.00  0.00     0.014 A 
ENDBRANCH   3  26
TORSDOF 5
ENDMDL
MODEL 6
REMARK VINA RESULT:      -8.4      2.961      5.877
REMARK  5 active torsions:
REMARK  status: ('A' for Active; 'I' for Inactive)
REMARK    1  A    between atoms: C_3  and  C_4 
REMARK    2  A    between atoms: C_15  and  C_16 
REMARK       I    between atoms: C_16  and  N_17 
REMARK    3  A    between atoms: N_17  and  C_18 
REMARK    4  A    between atoms: C_18  and  C_19 
REMARK    5  A    between atoms: C_22  and  O_23 
ROOT
HETATM    1  C   UNL     1     -45.402  59.157 -50.378  1.00  0.00     0.055 C 
HETATM    2  C   UNL     1     -44.970  59.025 -51.807  1.00  0.00     0.024 A 
HETATM    3  C   UNL     1     -44.076  58.154 -52.309  1.00  0.00     0.096 A 
HETATM    4  O   UNL     1     -43.749  58.030 -53.644  1.00  0.00    -0.307 OA
HETATM    5  C   UNL     1     -44.290  58.894 -54.561  1.00  0.00     0.106 A 
HETATM    6  C   UNL     1     -45.191  59.887 -54.170  1.00  0.00     0.050 A 
HETATM    7  C   UNL     1     -45.608  59.966 -52.760  1.00  0.00     0.193 A 
HETATM    8  O   UNL     1     -46.444  60.785 -52.395  1.00  0.00    -0.287 OA
HETATM    9  C   UNL     1     -43.924  58.780 -55.913  1.00  0.00     0.066 A 
HETATM   10  C   UNL     1     -44.442  59.709 -56.836  1.00  0.00     0.020 A 
HETATM   11  C   UNL     1     -45.324  60.711 -56.433  1.00  0.00     0.002 A 
HETATM   12  C   UNL     1     -45.710  60.795 -55.099  1.00  0.00     0.018 A 
ENDROOT
BRANCH   9  13
HETATM   13  C   UNL     1     -43.051  57.695 -56.475  1.00  0.00     0.254 C 
HETATM   14  N   UNL     1     -43.097  56.459 -55.875  1.00  0.00    -0.353 N 
HETATM   15  H   UNL     1     -43.594  56.342 -55.002  1.00  0.00     0.163 HD
HETATM   16  O   UNL     1     -42.367  57.920 -57.469  1.00  0.00    -0.268 OA
BRANCH  14  17
HETATM   17  C   UNL     1     -42.406  55.311 -56.407  1.00  0.00     0.161 C 
BRANCH  17  18
HETATM   18  C   UNL     1     -41.793  54.471 -55.319  1.00  0.00    -0.040 A 
HETATM   19  C   UNL     1     -40.524  53.901 -55.480  1.00  0.00     0.011 A 
HETATM   20  C   UNL     1     -39.949  53.160 -54.445  1.00  0.00     0.037 A 
HETATM   21  C   UNL     1     -40.625  52.976 -53.237  1.00  0.00     0.068 A 
HETATM   22  C   UNL     1     -41.906  53.510 -53.086  1.00  0.00     0.037 A 
HETATM   23  C   UNL     1     -42.487  54.248 -54.123  1.00  0.00     0.011 A 
BRANCH  21  24
HETATM   24  O   UNL     1     -39.940  52.257 -52.296  1.00  0.00    -0.356 OA
HETATM   25  C   UNL     1     -39.934  52.784 -50.976  1.00  0.00     0.210 C 
ENDBRANCH  21  24
ENDBRANCH  17  18
ENDBRANCH  14  17
ENDBRANCH   9  13
BRANCH   3  26
HETATM   26  C   UNL     1     -43.316  57.218 -51.469  1.00  0.00    -0.002 A 
HETATM   27  C   UNL     1     -42.004  57.514 -51.083  1.00  0.00     0.014 A 
HETATM   28  C   UNL     1     -41.297  56.629 -50.266  1.00  0.00     0.001 A 
HETATM   29  C   UNL     1     -41.898  55.449 -49.828  1.00  0.00     0.000 A 
HETATM   30  C   UNL     1     -43.207  55.151 -50.203  1.00  0.00     0.001 A 
HETATM   31  C   UNL     1     -43.916  56.033 -51.019  1.00  0.00     0.014 A 
ENDBRANCH   3  26
TORSDOF 5
ENDMDL
MODEL 7
REMARK VINA RESULT:      -8.4     15.974     19.249
REMARK  5 active torsions:
REMARK  status: ('A' for Active; 'I' for Inactive)
REMARK    1  A    between atoms: C_3  and  C_4 
REMARK    2  A    between atoms: C_15  and  C_16 
REMARK       I    between atoms: C_16  and  N_17 
REMARK    3  A    between atoms: N_17  and  C_18 
REMARK    4  A    between atoms: C_18  and  C_19 
REMARK    5  A    between atoms: C_22  and  O_23 
ROOT
HETATM    1  C   UNL     1     -38.805  41.343 -52.617  1.00  0.00     0.055 C 
HETATM    2  C   UNL     1     -37.932  41.042 -53.797  1.00  0.00     0.024 A 
HETATM    3  C   UNL     1     -36.620  40.745 -53.784  1.00  0.00     0.096 A 
HETATM    4  O   UNL     1     -35.866  40.419 -54.892  1.00  0.00    -0.307 OA
HETATM    5  C   UNL     1     -36.434  40.465 -56.139  1.00  0.00     0.106 A 
HETATM    6  C   UNL     1     -37.775  40.814 -56.307  1.00  0.00     0.050 A 
HETATM    7  C   UNL     1     -38.605  41.078 -55.119  1.00  0.00     0.193 A 
HETATM    8  O   UNL     1     -39.801  41.326 -55.228  1.00  0.00    -0.287 OA
HETATM    9  C   UNL     1     -35.647  40.162 -57.265  1.00  0.00     0.066 A 
HETATM   10  C   UNL     1     -36.226  40.269 -58.544  1.00  0.00     0.020 A 
HETATM   11  C   UNL     1     -37.562  40.639 -58.704  1.00  0.00     0.002 A 
HETATM   12  C   UNL     1     -38.343  40.902 -57.583  1.00  0.00     0.018 A 
ENDROOT
BRANCH   9  13
HETATM   13  C   UNL     1     -34.229  39.674 -57.211  1.00  0.00     0.254 C 
HETATM   14  N   UNL     1     -33.298  40.474 -56.593  1.00  0.00    -0.353 N 
HETATM   15  H   UNL     1     -33.546  41.415 -56.319  1.00  0.00     0.163 HD
HETATM   16  O   UNL     1     -33.949  38.570 -57.669  1.00  0.00    -0.268 OA
BRANCH  14  17
HETATM   17  C   UNL     1     -31.938  40.051 -56.367  1.00  0.00     0.161 C 
BRANCH  17  18
HETATM   18  C   UNL     1     -31.791  39.300 -55.070  1.00  0.00    -0.040 A 
HETATM   19  C   UNL     1     -32.168  39.885 -53.855  1.00  0.00     0.011 A 
HETATM   20  C   UNL     1     -32.067  39.160 -52.665  1.00  0.00     0.037 A 
HETATM   21  C   UNL     1     -31.593  37.847 -52.666  1.00  0.00     0.068 A 
HETATM   22  C   UNL     1     -31.182  37.273 -53.869  1.00  0.00     0.037 A 
HETATM   23  C   UNL     1     -31.275  37.998 -55.063  1.00  0.00     0.011 A 
BRANCH  21  24
HETATM   24  O   UNL     1     -31.573  37.240 -51.440  1.00  0.00    -0.356 OA
HETATM   25  C   UNL     1     -32.799  36.678 -50.990  1.00  0.00     0.210 C 
ENDBRANCH  21  24
ENDBRANCH  17  18
ENDBRANCH  14  17
ENDBRANCH   9  13
BRANCH   3  26
HETATM   26  C   UNL     1     -35.815  40.747 -52.554  1.00  0.00    -0.002 A 
HETATM   27  C   UNL     1     -35.775  39.616 -51.730  1.00  0.00     0.014 A 
HETATM   28  C   UNL     1     -34.990  39.618 -50.575  1.00  0.00     0.001 A 
HETATM   29  C   UNL     1     -34.239  40.746 -50.241  1.00  0.00     0.000 A 
HETATM   30  C   UNL     1     -34.270  41.873 -51.060  1.00  0.00     0.001 A 
HETATM   31  C   UNL     1     -35.053  41.874 -52.215  1.00  0.00     0.014 A 
ENDBRANCH   3  26
TORSDOF 5
ENDMDL
MODEL 8
REMARK VINA RESULT:      -8.4      2.653      7.002
REMARK  5 active torsions:
REMARK  status: ('A' for Active; 'I' for Inactive)
REMARK    1  A    between atoms: C_3  and  C_4 
REMARK    2  A    between atoms: C_15  and  C_16 
REMARK       I    between atoms: C_16  and  N_17 
REMARK    3  A    between atoms: N_17  and  C_18 
REMARK    4  A    between atoms: C_18  and  C_19 
REMARK    5  A    between atoms: C_22  and  O_23 
ROOT
HETATM    1  C   UNL     1     -42.343  56.189 -58.366  1.00  0.00     0.055 C 
HETATM    2  C   UNL     1     -42.992  56.915 -57.226  1.00  0.00     0.024 A 
HETATM    3  C   UNL     1     -42.953  56.582 -55.924  1.00  0.00     0.096 A 
HETATM    4  O   UNL     1     -43.520  57.311 -54.898  1.00  0.00    -0.307 OA
HETATM    5  C   UNL     1     -44.261  58.428 -55.186  1.00  0.00     0.106 A 
HETATM    6  C   UNL     1     -44.432  58.858 -56.504  1.00  0.00     0.050 A 
HETATM    7  C   UNL     1     -43.757  58.132 -57.592  1.00  0.00     0.193 A 
HETATM    8  O   UNL     1     -43.836  58.519 -58.753  1.00  0.00    -0.287 OA
HETATM    9  C   UNL     1     -44.861  59.145 -54.137  1.00  0.00     0.066 A 
HETATM   10  C   UNL     1     -45.666  60.257 -54.450  1.00  0.00     0.020 A 
HETATM   11  C   UNL     1     -45.850  60.667 -55.770  1.00  0.00     0.002 A 
HETATM   12  C   UNL     1     -45.223  59.974 -56.800  1.00  0.00     0.018 A 
ENDROOT
BRANCH   9  13
HETATM   13  C   UNL     1     -44.667  58.849 -52.678  1.00  0.00     0.254 C 
HETATM   14  N   UNL     1     -44.749  57.538 -52.273  1.00  0.00    -0.353 N 
HETATM   15  H   UNL     1     -45.071  56.831 -52.920  1.00  0.00     0.163 HD
HETATM   16  O   UNL     1     -44.397  59.762 -51.903  1.00  0.00    -0.268 OA
BRANCH  14  17
HETATM   17  C   UNL     1     -44.451  57.122 -50.925  1.00  0.00     0.161 C 
BRANCH  17  18
HETATM   18  C   UNL     1     -43.242  56.228 -50.867  1.00  0.00    -0.040 A 
HETATM   19  C   UNL     1     -43.359  54.847 -51.070  1.00  0.00     0.011 A 
HETATM   20  C   UNL     1     -42.222  54.036 -51.057  1.00  0.00     0.037 A 
HETATM   21  C   UNL     1     -40.956  54.583 -50.844  1.00  0.00     0.068 A 
HETATM   22  C   UNL     1     -40.838  55.953 -50.603  1.00  0.00     0.037 A 
HETATM   23  C   UNL     1     -41.976  56.768 -50.609  1.00  0.00     0.011 A 
BRANCH  21  24
HETATM   24  O   UNL     1     -39.924  53.686 -50.886  1.00  0.00    -0.356 OA
HETATM   25  C   UNL     1     -40.281  52.311 -50.954  1.00  0.00     0.210 C 
ENDBRANCH  21  24
ENDBRANCH  17  18
ENDBRANCH  14  17
ENDBRANCH   9  13
BRANCH   3  26
HETATM   26  C   UNL     1     -42.295  55.363 -55.431  1.00  0.00    -0.002 A 
HETATM   27  C   UNL     1     -40.932  55.371 -55.115  1.00  0.00     0.014 A 
HETATM   28  C   UNL     1     -40.319  54.215 -54.626  1.00  0.00     0.001 A 
HETATM   29  C   UNL     1     -41.065  53.050 -54.448  1.00  0.00     0.000 A 
HETATM   30  C   UNL     1     -42.424  53.037 -54.755  1.00  0.00     0.001 A 
HETATM   31  C   UNL     1     -43.039  54.190 -55.243  1.00  0.00     0.014 A 
ENDBRANCH   3  26
TORSDOF 5
ENDMDL
MODEL 9
REMARK VINA RESULT:      -8.3      3.763      7.527
REMARK  5 active torsions:
REMARK  status: ('A' for Active; 'I' for Inactive)
REMARK    1  A    between atoms: C_3  and  C_4 
REMARK    2  A    between atoms: C_15  and  C_16 
REMARK       I    between atoms: C_16  and  N_17 
REMARK    3  A    between atoms: N_17  and  C_18 
REMARK    4  A    between atoms: C_18  and  C_19 
REMARK    5  A    between atoms: C_22  and  O_23 
ROOT
HETATM    1  C   UNL     1     -43.176  54.180 -56.052  1.00  0.00     0.055 C 
HETATM    2  C   UNL     1     -42.537  54.470 -54.728  1.00  0.00     0.024 A 
HETATM    3  C   UNL     1     -42.575  55.628 -54.044  1.00  0.00     0.096 A 
HETATM    4  O   UNL     1     -42.018  55.835 -52.798  1.00  0.00    -0.307 OA
HETATM    5  C   UNL     1     -41.289  54.838 -52.204  1.00  0.00     0.106 A 
HETATM    6  C   UNL     1     -41.120  53.600 -52.828  1.00  0.00     0.050 A 
HETATM    7  C   UNL     1     -41.785  53.347 -54.117  1.00  0.00     0.193 A 
HETATM    8  O   UNL     1     -41.708  52.251 -54.662  1.00  0.00    -0.287 OA
HETATM    9  C   UNL     1     -40.699  55.071 -50.950  1.00  0.00     0.066 A 
HETATM   10  C   UNL     1     -39.905  54.059 -50.376  1.00  0.00     0.020 A 
HETATM   11  C   UNL     1     -39.723  52.834 -51.017  1.00  0.00     0.002 A 
HETATM   12  C   UNL     1     -40.340  52.598 -52.241  1.00  0.00     0.018 A 
ENDROOT
BRANCH   9  13
HETATM   13  C   UNL     1     -40.892  56.314 -50.130  1.00  0.00     0.254 C 
HETATM   14  N   UNL     1     -40.725  57.527 -50.756  1.00  0.00    -0.353 N 
HETATM   15  H   UNL     1     -40.346  57.562 -51.692  1.00  0.00     0.163 HD
HETATM   16  O   UNL     1     -41.236  56.220 -48.956  1.00  0.00    -0.268 OA
BRANCH  14  17
HETATM   17  C   UNL     1     -41.013  58.782 -50.106  1.00  0.00     0.161 C 
BRANCH  17  18
HETATM   18  C   UNL     1     -42.216  59.461 -50.702  1.00  0.00    -0.040 A 
HETATM   19  C   UNL     1     -42.328  60.856 -50.702  1.00  0.00     0.011 A 
HETATM   20  C   UNL     1     -43.429  61.474 -51.299  1.00  0.00     0.037 A 
HETATM   21  C   UNL     1     -44.433  60.715 -51.903  1.00  0.00     0.068 A 
HETATM   22  C   UNL     1     -44.346  59.323 -51.873  1.00  0.00     0.037 A 
HETATM   23  C   UNL     1     -43.247  58.700 -51.271  1.00  0.00     0.011 A 
BRANCH  21  24
HETATM   24  O   UNL     1     -45.440  61.442 -52.477  1.00  0.00    -0.356 OA
HETATM   25  C   UNL     1     -46.769  61.057 -52.146  1.00  0.00     0.210 C 
ENDBRANCH  21  24
ENDBRANCH  17  18
ENDBRANCH  14  17
ENDBRANCH   9  13
BRANCH   3  26
HETATM   26  C   UNL     1     -43.221  56.841 -54.565  1.00  0.00    -0.002 A 
HETATM   27  C   UNL     1     -44.616  56.934 -54.621  1.00  0.00     0.014 A 
HETATM   28  C   UNL     1     -45.222  58.100 -55.096  1.00  0.00     0.001 A 
HETATM   29  C   UNL     1     -44.438  59.176 -55.512  1.00  0.00     0.000 A 
HETATM   30  C   UNL     1     -43.048  59.093 -55.453  1.00  0.00     0.001 A 
HETATM   31  C   UNL     1     -42.440  57.930 -54.978  1.00  0.00     0.014 A 
ENDBRANCH   3  26
TORSDOF 5
ENDMDL
MODEL 10
REMARK VINA RESULT:      -8.3      2.068      7.826
REMARK  5 active torsions:
REMARK  status: ('A' for Active; 'I' for Inactive)
REMARK    1  A    between atoms: C_3  and  C_4 
REMARK    2  A    between atoms: C_15  and  C_16 
REMARK       I    between atoms: C_16  and  N_17 
REMARK    3  A    between atoms: N_17  and  C_18 
REMARK    4  A    between atoms: C_18  and  C_19 
REMARK    5  A    between atoms: C_22  and  O_23 
ROOT
HETATM    1  C   UNL     1     -42.972  59.449 -60.356  1.00  0.00     0.055 C 
HETATM    2  C   UNL     1     -43.107  59.117 -58.901  1.00  0.00     0.024 A 
HETATM    3  C   UNL     1     -43.662  58.014 -58.367  1.00  0.00     0.096 A 
HETATM    4  O   UNL     1     -43.715  57.723 -57.019  1.00  0.00    -0.307 OA
HETATM    5  C   UNL     1     -43.251  58.634 -56.106  1.00  0.00     0.106 A 
HETATM    6  C   UNL     1     -42.699  59.849 -56.519  1.00  0.00     0.050 A 
HETATM    7  C   UNL     1     -42.562  60.126 -57.959  1.00  0.00     0.193 A 
HETATM    8  O   UNL     1     -42.026  61.155 -58.355  1.00  0.00    -0.287 OA
HETATM    9  C   UNL     1     -43.339  58.341 -54.734  1.00  0.00     0.066 A 
HETATM   10  C   UNL     1     -42.912  59.309 -53.805  1.00  0.00     0.020 A 
HETATM   11  C   UNL     1     -42.383  60.529 -54.226  1.00  0.00     0.002 A 
HETATM   12  C   UNL     1     -42.265  60.797 -55.586  1.00  0.00     0.018 A 
ENDROOT
BRANCH   9  13
HETATM   13  C   UNL     1     -43.812  57.034 -54.167  1.00  0.00     0.254 C 
HETATM   14  N   UNL     1     -43.454  55.882 -54.827  1.00  0.00    -0.353 N 
HETATM   15  H   UNL     1     -43.014  55.938 -55.735  1.00  0.00     0.163 HD
HETATM   16  O   UNL     1     -44.453  57.022 -53.121  1.00  0.00    -0.268 OA
BRANCH  14  17
HETATM   17  C   UNL     1     -43.738  54.568 -54.305  1.00  0.00     0.161 C 
BRANCH  17  18
HETATM   18  C   UNL     1     -42.529  53.947 -53.658  1.00  0.00    -0.040 A 
HETATM   19  C   UNL     1     -42.282  54.111 -52.290  1.00  0.00     0.011 A 
HETATM   20  C   UNL     1     -41.180  53.492 -51.695  1.00  0.00     0.037 A 
HETATM   21  C   UNL     1     -40.310  52.703 -52.450  1.00  0.00     0.068 A 
HETATM   22  C   UNL     1     -40.530  52.567 -53.821  1.00  0.00     0.037 A 
HETATM   23  C   UNL     1     -41.630  53.190 -54.422  1.00  0.00     0.011 A 
BRANCH  21  24
HETATM   24  O   UNL     1     -39.289  52.130 -51.742  1.00  0.00    -0.356 OA
HETATM   25  C   UNL     1     -39.461  50.768 -51.370  1.00  0.00     0.210 C 
ENDBRANCH  21  24
ENDBRANCH  17  18
ENDBRANCH  14  17
ENDBRANCH   9  13
BRANCH   3  26
HETATM   26  C   UNL     1     -44.304  56.971 -59.179  1.00  0.00    -0.002 A 
HETATM   27  C   UNL     1     -43.603  55.812 -59.529  1.00  0.00     0.014 A 
HETATM   28  C   UNL     1     -44.227  54.815 -60.282  1.00  0.00     0.001 A 
HETATM   29  C   UNL     1     -45.554  54.971 -60.685  1.00  0.00     0.000 A 
HETATM   30  C   UNL     1     -46.260  56.120 -60.334  1.00  0.00     0.001 A 
HETATM   31  C   UNL     1     -45.639  57.117 -59.581  1.00  0.00     0.014 A 
ENDBRANCH   3  26
TORSDOF 5
ENDMDL
