MODEL 1
REMARK VINA RESULT:      -8.8      0.000      0.000
REMARK  4 active torsions:
REMARK  status: ('A' for Active; 'I' for Inactive)
REMARK    1  A    between atoms: C_3  and  N_4 
REMARK    2  A    between atoms: N_4  and  C_5 
REMARK    3  A    between atoms: C_5  and  C_6 
REMARK    4  A    between atoms: C_8  and  C_9 
REMARK       I    between atoms: C_9  and  N_10 
ROOT
HETATM    1  N   UNL     1     -41.240  55.174 -55.670  1.00  0.00    -0.372 N 
HETATM    2  H   UNL     1     -40.747  54.997 -56.546  1.00  0.00     0.161 HD
ENDROOT
BRANCH   1   3
HETATM    3  C   UNL     1     -40.871  54.339 -54.638  1.00  0.00     0.107 A 
HETATM    4  C   UNL     1     -40.835  54.793 -53.305  1.00  0.00    -0.017 A 
HETATM    5  C   UNL     1     -41.161  56.209 -52.909  1.00  0.00     0.052 C 
HETATM    6  C   UNL     1     -40.496  53.893 -52.284  1.00  0.00     0.024 A 
HETATM    7  C   UNL     1     -40.206  52.561 -52.582  1.00  0.00    -0.009 A 
HETATM    8  C   UNL     1     -40.252  52.153 -53.928  1.00  0.00     0.043 A 
HETATM    9  C   UNL     1     -39.874  51.623 -51.592  1.00  0.00     0.014 A 
HETATM   10  N   UNL     1     -40.584  53.050 -54.872  1.00  0.00    -0.342 N 
HETATM   11  C   UNL     1     -39.957  50.828 -54.273  1.00  0.00     0.030 A 
HETATM   12  H   UNL     1     -40.579  52.741 -55.834  1.00  0.00     0.167 HD
HETATM   13  C   UNL     1     -39.627  49.906 -53.278  1.00  0.00     0.002 A 
HETATM   14  C   UNL     1     -39.589  50.302 -51.943  1.00  0.00     0.001 A 
ENDBRANCH   1   3
BRANCH   1  15
HETATM   15  C   UNL     1     -42.535  55.812 -55.844  1.00  0.00     0.160 C 
BRANCH  15  16
HETATM   16  C   UNL     1     -42.826  56.187 -57.277  1.00  0.00    -0.040 A 
HETATM   17  C   UNL     1     -43.541  55.333 -58.130  1.00  0.00     0.026 A 
HETATM   18  C   UNL     1     -43.778  55.682 -59.468  1.00  0.00     0.032 A 
HETATM   19  C   UNL     1     -43.299  56.897 -59.964  1.00  0.00     0.017 A 
HETATM   20  C   UNL     1     -42.570  57.746 -59.131  1.00  0.00     0.002 A 
HETATM   21  C   UNL     1     -42.328  57.392 -57.801  1.00  0.00     0.009 A 
BRANCH  18  22
HETATM   22  C   UNL     1     -44.574  54.745 -60.298  1.00  0.00     0.249 C 
HETATM   23  N   UNL     1     -45.143  53.674 -59.676  1.00  0.00    -0.366 N 
HETATM   24  H   UNL     1     -45.227  53.593 -58.672  1.00  0.00     0.159 HD
HETATM   25  H   UNL     1     -45.766  53.100 -60.234  1.00  0.00     0.159 HD
HETATM   26  O   UNL     1     -44.724  54.956 -61.495  1.00  0.00    -0.268 OA
ENDBRANCH  18  22
ENDBRANCH  15  16
ENDBRANCH   1  15
TORSDOF 4
ENDMDL
MODEL 2
REMARK VINA RESULT:      -8.5      2.771      7.708
REMARK  4 active torsions:
REMARK  status: ('A' for Active; 'I' for Inactive)
REMARK    1  A    between atoms: C_3  and  N_4 
REMARK    2  A    between atoms: N_4  and  C_5 
REMARK    3  A    between atoms: C_5  and  C_6 
REMARK    4  A    between atoms: C_8  and  C_9 
REMARK       I    between atoms: C_9  and  N_10 
ROOT
HETATM    1  N   UNL     1     -41.271  55.498 -55.261  1.00  0.00    -0.372 N 
HETATM    2  H   UNL     1     -41.385  55.722 -54.273  1.00  0.00     0.161 HD
ENDROOT
BRANCH   1   3
HETATM    3  C   UNL     1     -42.212  56.080 -56.084  1.00  0.00     0.107 A 
HETATM    4  C   UNL     1     -42.980  57.180 -55.656  1.00  0.00    -0.017 A 
HETATM    5  C   UNL     1     -42.862  57.781 -54.280  1.00  0.00     0.052 C 
HETATM    6  C   UNL     1     -43.892  57.765 -56.545  1.00  0.00     0.024 A 
HETATM    7  C   UNL     1     -44.033  57.271 -57.843  1.00  0.00    -0.009 A 
HETATM    8  C   UNL     1     -43.246  56.168 -58.226  1.00  0.00     0.043 A 
HETATM    9  C   UNL     1     -44.924  57.832 -58.770  1.00  0.00     0.014 A 
HETATM   10  N   UNL     1     -42.384  55.642 -57.340  1.00  0.00    -0.342 N 
HETATM   11  C   UNL     1     -43.364  55.633 -59.515  1.00  0.00     0.030 A 
HETATM   12  H   UNL     1     -41.854  54.831 -57.628  1.00  0.00     0.167 HD
HETATM   13  C   UNL     1     -44.255  56.200 -60.426  1.00  0.00     0.002 A 
HETATM   14  C   UNL     1     -45.030  57.298 -60.056  1.00  0.00     0.001 A 
ENDBRANCH   1   3
BRANCH   1  15
HETATM   15  C   UNL     1     -40.569  54.246 -55.502  1.00  0.00     0.160 C 
BRANCH  15  16
HETATM   16  C   UNL     1     -40.360  53.431 -54.250  1.00  0.00    -0.040 A 
HETATM   17  C   UNL     1     -40.101  52.053 -54.305  1.00  0.00     0.026 A 
HETATM   18  C   UNL     1     -39.938  51.303 -53.130  1.00  0.00     0.032 A 
HETATM   19  C   UNL     1     -40.033  51.930 -51.885  1.00  0.00     0.017 A 
HETATM   20  C   UNL     1     -40.309  53.296 -51.819  1.00  0.00     0.002 A 
HETATM   21  C   UNL     1     -40.480  54.040 -52.990  1.00  0.00     0.009 A 
BRANCH  18  22
HETATM   22  C   UNL     1     -39.629  49.859 -53.268  1.00  0.00     0.249 C 
HETATM   23  N   UNL     1     -39.455  49.135 -52.125  1.00  0.00    -0.366 N 
HETATM   24  H   UNL     1     -39.722  49.469 -51.209  1.00  0.00     0.159 HD
HETATM   25  H   UNL     1     -39.345  48.132 -52.233  1.00  0.00     0.159 HD
HETATM   26  O   UNL     1     -39.559  49.346 -54.378  1.00  0.00    -0.268 OA
ENDBRANCH  18  22
ENDBRANCH  15  16
ENDBRANCH   1  15
TORSDOF 4
ENDMDL
MODEL 3
REMARK VINA RESULT:      -8.5      1.344      1.492
REMARK  4 active torsions:
REMARK  status: ('A' for Active; 'I' for Inactive)
REMARK    1  A    between atoms: C_3  and  N_4 
REMARK    2  A    between atoms: N_4  and  C_5 
REMARK    3  A    between atoms: C_5  and  C_6 
REMARK    4  A    between atoms: C_8  and  C_9 
REMARK       I    between atoms: C_9  and  N_10 
ROOT
HETATM    1  N   UNL     1     -41.190  54.604 -55.516  1.00  0.00    -0.372 N 
HETATM    2  H   UNL     1     -40.464  54.717 -56.223  1.00  0.00     0.161 HD
ENDROOT
BRANCH   1   3
HETATM    3  C   UNL     1     -40.809  53.845 -54.431  1.00  0.00     0.107 A 
HETATM    4  C   UNL     1     -40.781  54.387 -53.131  1.00  0.00    -0.017 A 
HETATM    5  C   UNL     1     -41.129  55.820 -52.829  1.00  0.00     0.052 C 
HETATM    6  C   UNL     1     -40.428  53.562 -52.053  1.00  0.00     0.024 A 
HETATM    7  C   UNL     1     -40.117  52.218 -52.263  1.00  0.00    -0.009 A 
HETATM    8  C   UNL     1     -40.156  51.721 -53.579  1.00  0.00     0.043 A 
HETATM    9  C   UNL     1     -39.771  51.352 -51.214  1.00  0.00     0.014 A 
HETATM   10  N   UNL     1     -40.501  52.548 -54.580  1.00  0.00    -0.342 N 
HETATM   11  C   UNL     1     -39.840  50.381 -53.836  1.00  0.00     0.030 A 
HETATM   12  H   UNL     1     -40.491  52.176 -55.520  1.00  0.00     0.167 HD
HETATM   13  C   UNL     1     -39.496  49.532 -52.783  1.00  0.00     0.002 A 
HETATM   14  C   UNL     1     -39.465  50.016 -51.477  1.00  0.00     0.001 A 
ENDBRANCH   1   3
BRANCH   1  15
HETATM   15  C   UNL     1     -42.542  54.751 -56.036  1.00  0.00     0.160 C 
BRANCH  15  16
HETATM   16  C   UNL     1     -42.734  56.011 -56.844  1.00  0.00    -0.040 A 
HETATM   17  C   UNL     1     -43.239  55.974 -58.153  1.00  0.00     0.026 A 
HETATM   18  C   UNL     1     -43.384  57.151 -58.903  1.00  0.00     0.032 A 
HETATM   19  C   UNL     1     -43.025  58.380 -58.344  1.00  0.00     0.017 A 
HETATM   20  C   UNL     1     -42.505  58.426 -57.051  1.00  0.00     0.002 A 
HETATM   21  C   UNL     1     -42.352  57.252 -56.309  1.00  0.00     0.009 A 
BRANCH  18  22
HETATM   22  C   UNL     1     -43.960  57.038 -60.265  1.00  0.00     0.249 C 
HETATM   23  N   UNL     1     -44.620  58.120 -60.767  1.00  0.00    -0.366 N 
HETATM   24  H   UNL     1     -44.564  59.044 -60.361  1.00  0.00     0.159 HD
HETATM   25  H   UNL     1     -44.920  58.063 -61.735  1.00  0.00     0.159 HD
HETATM   26  O   UNL     1     -43.818  56.007 -60.911  1.00  0.00    -0.268 OA
ENDBRANCH  18  22
ENDBRANCH  15  16
ENDBRANCH   1  15
TORSDOF 4
ENDMDL
MODEL 4
REMARK VINA RESULT:      -8.4      1.689      2.798
REMARK  4 active torsions:
REMARK  status: ('A' for Active; 'I' for Inactive)
REMARK    1  A    between atoms: C_3  and  N_4 
REMARK    2  A    between atoms: N_4  and  C_5 
REMARK    3  A    between atoms: C_5  and  C_6 
REMARK    4  A    between atoms: C_8  and  C_9 
REMARK       I    between atoms: C_9  and  N_10 
ROOT
HETATM    1  N   UNL     1     -41.651  56.304 -54.910  1.00  0.00    -0.372 N 
HETATM    2  H   UNL     1     -40.890  56.428 -55.577  1.00  0.00     0.161 HD
ENDROOT
BRANCH   1   3
HETATM    3  C   UNL     1     -41.327  55.517 -53.826  1.00  0.00     0.107 A 
HETATM    4  C   UNL     1     -40.691  54.271 -53.988  1.00  0.00    -0.017 A 
HETATM    5  C   UNL     1     -40.346  53.692 -55.334  1.00  0.00     0.052 C 
HETATM    6  C   UNL     1     -40.342  53.528 -52.850  1.00  0.00     0.024 A 
HETATM    7  C   UNL     1     -40.613  54.020 -51.573  1.00  0.00    -0.009 A 
HETATM    8  C   UNL     1     -41.252  55.269 -51.460  1.00  0.00     0.043 A 
HETATM    9  C   UNL     1     -40.271  53.317 -50.407  1.00  0.00     0.014 A 
HETATM   10  N   UNL     1     -41.566  55.946 -52.577  1.00  0.00    -0.342 N 
HETATM   11  C   UNL     1     -41.553  55.794 -50.197  1.00  0.00     0.030 A 
HETATM   12  H   UNL     1     -42.053  56.825 -52.471  1.00  0.00     0.167 HD
HETATM   13  C   UNL     1     -41.209  55.084 -49.046  1.00  0.00     0.002 A 
HETATM   14  C   UNL     1     -40.567  53.851 -49.152  1.00  0.00     0.001 A 
ENDBRANCH   1   3
BRANCH   1  15
HETATM   15  C   UNL     1     -42.974  56.473 -55.491  1.00  0.00     0.160 C 
BRANCH  15  16
HETATM   16  C   UNL     1     -42.953  56.590 -56.995  1.00  0.00    -0.040 A 
HETATM   17  C   UNL     1     -43.624  55.668 -57.813  1.00  0.00     0.026 A 
HETATM   18  C   UNL     1     -43.570  55.772 -59.212  1.00  0.00     0.032 A 
HETATM   19  C   UNL     1     -42.842  56.807 -59.804  1.00  0.00     0.017 A 
HETATM   20  C   UNL     1     -42.156  57.718 -59.001  1.00  0.00     0.002 A 
HETATM   21  C   UNL     1     -42.204  57.607 -57.608  1.00  0.00     0.009 A 
BRANCH  18  22
HETATM   22  C   UNL     1     -44.335  54.783 -60.010  1.00  0.00     0.249 C 
HETATM   23  N   UNL     1     -44.809  53.679 -59.365  1.00  0.00    -0.366 N 
HETATM   24  H   UNL     1     -44.848  53.596 -58.359  1.00  0.00     0.159 HD
HETATM   25  H   UNL     1     -45.414  53.064 -59.899  1.00  0.00     0.159 HD
HETATM   26  O   UNL     1     -44.545  54.980 -61.200  1.00  0.00    -0.268 OA
ENDBRANCH  18  22
ENDBRANCH  15  16
ENDBRANCH   1  15
TORSDOF 4
ENDMDL
MODEL 5
REMARK VINA RESULT:      -8.4     13.714     14.868
REMARK  4 active torsions:
REMARK  status: ('A' for Active; 'I' for Inactive)
REMARK    1  A    between atoms: C_3  and  N_4 
REMARK    2  A    between atoms: N_4  and  C_5 
REMARK    3  A    between atoms: C_5  and  C_6 
REMARK    4  A    between atoms: C_8  and  C_9 
REMARK       I    between atoms: C_9  and  N_10 
ROOT
HETATM    1  N   UNL     1     -35.507  42.444 -54.121  1.00  0.00    -0.372 N 
HETATM    2  H   UNL     1     -35.705  43.429 -53.945  1.00  0.00     0.161 HD
ENDROOT
BRANCH   1   3
HETATM    3  C   UNL     1     -35.183  41.723 -52.991  1.00  0.00     0.107 A 
HETATM    4  C   UNL     1     -36.180  41.197 -52.147  1.00  0.00    -0.017 A 
HETATM    5  C   UNL     1     -37.653  41.400 -52.385  1.00  0.00     0.052 C 
HETATM    6  C   UNL     1     -35.800  40.433 -51.033  1.00  0.00     0.024 A 
HETATM    7  C   UNL     1     -34.452  40.188 -50.769  1.00  0.00    -0.009 A 
HETATM    8  C   UNL     1     -33.491  40.736 -51.639  1.00  0.00     0.043 A 
HETATM    9  C   UNL     1     -34.026  39.419 -49.675  1.00  0.00     0.014 A 
HETATM   10  N   UNL     1     -33.901  41.460 -52.694  1.00  0.00    -0.342 N 
HETATM   11  C   UNL     1     -32.126  40.524 -51.405  1.00  0.00     0.030 A 
HETATM   12  H   UNL     1     -33.192  41.869 -53.286  1.00  0.00     0.167 HD
HETATM   13  C   UNL     1     -31.717  39.759 -50.312  1.00  0.00     0.002 A 
HETATM   14  C   UNL     1     -32.665  39.206 -49.452  1.00  0.00     0.001 A 
ENDBRANCH   1   3
BRANCH   1  15
HETATM   15  C   UNL     1     -35.062  42.168 -55.478  1.00  0.00     0.160 C 
BRANCH  15  16
HETATM   16  C   UNL     1     -36.154  41.616 -56.361  1.00  0.00    -0.040 A 
HETATM   17  C   UNL     1     -36.238  41.948 -57.722  1.00  0.00     0.026 A 
HETATM   18  C   UNL     1     -37.277  41.450 -58.523  1.00  0.00     0.032 A 
HETATM   19  C   UNL     1     -38.244  40.611 -57.965  1.00  0.00     0.017 A 
HETATM   20  C   UNL     1     -38.182  40.290 -56.609  1.00  0.00     0.002 A 
HETATM   21  C   UNL     1     -37.151  40.793 -55.811  1.00  0.00     0.009 A 
BRANCH  18  22
HETATM   22  C   UNL     1     -37.277  41.815 -59.961  1.00  0.00     0.249 C 
HETATM   23  N   UNL     1     -37.329  40.801 -60.872  1.00  0.00    -0.366 N 
HETATM   24  H   UNL     1     -37.570  39.849 -60.632  1.00  0.00     0.159 HD
HETATM   25  H   UNL     1     -37.430  41.068 -61.845  1.00  0.00     0.159 HD
HETATM   26  O   UNL     1     -37.255  42.991 -60.300  1.00  0.00    -0.268 OA
ENDBRANCH  18  22
ENDBRANCH  15  16
ENDBRANCH   1  15
TORSDOF 4
ENDMDL
MODEL 6
REMARK VINA RESULT:      -8.3      4.547      5.773
REMARK  4 active torsions:
REMARK  status: ('A' for Active; 'I' for Inactive)
REMARK    1  A    between atoms: C_3  and  N_4 
REMARK    2  A    between atoms: N_4  and  C_5 
REMARK    3  A    between atoms: C_5  and  C_6 
REMARK    4  A    between atoms: C_8  and  C_9 
REMARK       I    between atoms: C_9  and  N_10 
ROOT
HETATM    1  N   UNL     1     -40.874  55.166 -51.200  1.00  0.00    -0.372 N 
HETATM    2  H   UNL     1     -40.314  55.986 -51.433  1.00  0.00     0.161 HD
ENDROOT
BRANCH   1   3
HETATM    3  C   UNL     1     -40.658  54.083 -52.025  1.00  0.00     0.107 A 
HETATM    4  C   UNL     1     -40.727  54.203 -53.426  1.00  0.00    -0.017 A 
HETATM    5  C   UNL     1     -41.067  55.492 -54.127  1.00  0.00     0.052 C 
HETATM    6  C   UNL     1     -40.455  53.081 -54.223  1.00  0.00     0.024 A 
HETATM    7  C   UNL     1     -40.111  51.863 -53.637  1.00  0.00    -0.009 A 
HETATM    8  C   UNL     1     -40.057  51.790 -52.232  1.00  0.00     0.043 A 
HETATM    9  C   UNL     1     -39.819  50.718 -54.394  1.00  0.00     0.014 A 
HETATM   10  N   UNL     1     -40.323  52.890 -51.510  1.00  0.00    -0.342 N 
HETATM   11  C   UNL     1     -39.727  50.583 -51.602  1.00  0.00     0.030 A 
HETATM   12  H   UNL     1     -40.309  52.805 -50.503  1.00  0.00     0.167 HD
HETATM   13  C   UNL     1     -39.440  49.452 -52.368  1.00  0.00     0.002 A 
HETATM   14  C   UNL     1     -39.483  49.521 -53.759  1.00  0.00     0.001 A 
ENDBRANCH   1   3
BRANCH   1  15
HETATM   15  C   UNL     1     -42.105  55.479 -50.490  1.00  0.00     0.160 C 
BRANCH  15  16
HETATM   16  C   UNL     1     -42.843  56.661 -51.070  1.00  0.00    -0.040 A 
HETATM   17  C   UNL     1     -42.162  57.725 -51.680  1.00  0.00     0.026 A 
HETATM   18  C   UNL     1     -42.861  58.831 -52.188  1.00  0.00     0.032 A 
HETATM   19  C   UNL     1     -44.253  58.879 -52.089  1.00  0.00     0.017 A 
HETATM   20  C   UNL     1     -44.939  57.835 -51.468  1.00  0.00     0.002 A 
HETATM   21  C   UNL     1     -44.241  56.738 -50.955  1.00  0.00     0.009 A 
BRANCH  18  22
HETATM   22  C   UNL     1     -42.076  59.900 -52.853  1.00  0.00     0.249 C 
HETATM   23  N   UNL     1     -42.700  61.088 -53.095  1.00  0.00    -0.366 N 
HETATM   24  H   UNL     1     -43.580  61.350 -52.673  1.00  0.00     0.159 HD
HETATM   25  H   UNL     1     -42.124  61.840 -53.457  1.00  0.00     0.159 HD
HETATM   26  O   UNL     1     -40.902  59.712 -53.146  1.00  0.00    -0.268 OA
ENDBRANCH  18  22
ENDBRANCH  15  16
ENDBRANCH   1  15
TORSDOF 4
ENDMDL
MODEL 7
REMARK VINA RESULT:      -8.3      4.855      6.263
REMARK  4 active torsions:
REMARK  status: ('A' for Active; 'I' for Inactive)
REMARK    1  A    between atoms: C_3  and  N_4 
REMARK    2  A    between atoms: N_4  and  C_5 
REMARK    3  A    between atoms: C_5  and  C_6 
REMARK    4  A    between atoms: C_8  and  C_9 
REMARK       I    between atoms: C_9  and  N_10 
ROOT
HETATM    1  N   UNL     1     -41.776  55.737 -52.625  1.00  0.00    -0.372 N 
HETATM    2  H   UNL     1     -42.614  55.875 -52.060  1.00  0.00     0.161 HD
ENDROOT
BRANCH   1   3
HETATM    3  C   UNL     1     -41.159  54.520 -52.428  1.00  0.00     0.107 A 
HETATM    4  C   UNL     1     -40.628  54.162 -51.174  1.00  0.00    -0.017 A 
HETATM    5  C   UNL     1     -40.663  55.072 -49.975  1.00  0.00     0.052 C 
HETATM    6  C   UNL     1     -40.049  52.895 -51.013  1.00  0.00     0.024 A 
HETATM    7  C   UNL     1     -40.006  51.995 -52.078  1.00  0.00    -0.009 A 
HETATM    8  C   UNL     1     -40.547  52.397 -53.314  1.00  0.00     0.043 A 
HETATM    9  C   UNL     1     -39.448  50.713 -51.960  1.00  0.00     0.014 A 
HETATM   10  N   UNL     1     -41.093  53.620 -53.421  1.00  0.00    -0.342 N 
HETATM   11  C   UNL     1     -40.515  51.530 -54.413  1.00  0.00     0.030 A 
HETATM   12  H   UNL     1     -41.446  53.898 -54.326  1.00  0.00     0.167 HD
HETATM   13  C   UNL     1     -39.955  50.258 -54.281  1.00  0.00     0.002 A 
HETATM   14  C   UNL     1     -39.427  49.851 -53.057  1.00  0.00     0.001 A 
ENDBRANCH   1   3
BRANCH   1  15
HETATM   15  C   UNL     1     -41.134  56.975 -53.037  1.00  0.00     0.160 C 
BRANCH  15  16
HETATM   16  C   UNL     1     -41.331  58.103 -52.054  1.00  0.00    -0.040 A 
HETATM   17  C   UNL     1     -42.590  58.689 -51.851  1.00  0.00     0.026 A 
HETATM   18  C   UNL     1     -42.752  59.757 -50.955  1.00  0.00     0.032 A 
HETATM   19  C   UNL     1     -41.650  60.248 -50.253  1.00  0.00     0.017 A 
HETATM   20  C   UNL     1     -40.390  59.686 -50.461  1.00  0.00     0.002 A 
HETATM   21  C   UNL     1     -40.229  58.628 -51.360  1.00  0.00     0.009 A 
BRANCH  18  22
HETATM   22  C   UNL     1     -44.120  60.299 -50.765  1.00  0.00     0.249 C 
HETATM   23  N   UNL     1     -45.017  59.531 -50.084  1.00  0.00    -0.366 N 
HETATM   24  H   UNL     1     -44.755  58.724 -49.534  1.00  0.00     0.159 HD
HETATM   25  H   UNL     1     -45.914  59.955 -49.874  1.00  0.00     0.159 HD
HETATM   26  O   UNL     1     -44.408  61.410 -51.191  1.00  0.00    -0.268 OA
ENDBRANCH  18  22
ENDBRANCH  15  16
ENDBRANCH   1  15
TORSDOF 4
ENDMDL
MODEL 8
REMARK VINA RESULT:      -8.1      1.897      2.237
REMARK  4 active torsions:
REMARK  status: ('A' for Active; 'I' for Inactive)
REMARK    1  A    between atoms: C_3  and  N_4 
REMARK    2  A    between atoms: N_4  and  C_5 
REMARK    3  A    between atoms: C_5  and  C_6 
REMARK    4  A    between atoms: C_8  and  C_9 
REMARK       I    between atoms: C_9  and  N_10 
ROOT
HETATM    1  N   UNL     1     -44.075  55.679 -53.957  1.00  0.00    -0.372 N 
HETATM    2  H   UNL     1     -45.018  55.310 -53.841  1.00  0.00     0.161 HD
ENDROOT
BRANCH   1   3
HETATM    3  C   UNL     1     -43.100  54.942 -53.320  1.00  0.00     0.107 A 
HETATM    4  C   UNL     1     -42.922  55.012 -51.924  1.00  0.00    -0.017 A 
HETATM    5  C   UNL     1     -43.747  55.903 -51.033  1.00  0.00     0.052 C 
HETATM    6  C   UNL     1     -41.945  54.209 -51.318  1.00  0.00     0.024 A 
HETATM    7  C   UNL     1     -41.163  53.344 -52.085  1.00  0.00    -0.009 A 
HETATM    8  C   UNL     1     -41.374  53.310 -53.476  1.00  0.00     0.043 A 
HETATM    9  C   UNL     1     -40.183  52.514 -51.520  1.00  0.00     0.014 A 
HETATM   10  N   UNL     1     -42.323  54.095 -54.012  1.00  0.00    -0.342 N 
HETATM   11  C   UNL     1     -40.604  52.464 -54.284  1.00  0.00     0.030 A 
HETATM   12  H   UNL     1     -42.434  54.076 -55.017  1.00  0.00     0.167 HD
HETATM   13  C   UNL     1     -39.632  51.645 -53.709  1.00  0.00     0.002 A 
HETATM   14  C   UNL     1     -39.424  51.669 -52.331  1.00  0.00     0.001 A 
ENDBRANCH   1   3
BRANCH   1  15
HETATM   15  C   UNL     1     -44.033  57.105 -54.242  1.00  0.00     0.160 C 
BRANCH  15  16
HETATM   16  C   UNL     1     -43.436  57.425 -55.590  1.00  0.00    -0.040 A 
HETATM   17  C   UNL     1     -43.548  56.538 -56.672  1.00  0.00     0.026 A 
HETATM   18  C   UNL     1     -42.961  56.836 -57.912  1.00  0.00     0.032 A 
HETATM   19  C   UNL     1     -42.256  58.030 -58.078  1.00  0.00     0.017 A 
HETATM   20  C   UNL     1     -42.123  58.910 -57.004  1.00  0.00     0.002 A 
HETATM   21  C   UNL     1     -42.700  58.608 -55.768  1.00  0.00     0.009 A 
BRANCH  18  22
HETATM   22  C   UNL     1     -43.154  55.868 -59.020  1.00  0.00     0.249 C 
HETATM   23  N   UNL     1     -44.139  54.935 -58.882  1.00  0.00    -0.366 N 
HETATM   24  H   UNL     1     -44.864  54.991 -58.180  1.00  0.00     0.159 HD
HETATM   25  H   UNL     1     -44.325  54.347 -59.687  1.00  0.00     0.159 HD
HETATM   26  O   UNL     1     -42.459  55.935 -60.026  1.00  0.00    -0.268 OA
ENDBRANCH  18  22
ENDBRANCH  15  16
ENDBRANCH   1  15
TORSDOF 4
ENDMDL
MODEL 9
REMARK VINA RESULT:      -8.1      4.223      5.441
REMARK  4 active torsions:
REMARK  status: ('A' for Active; 'I' for Inactive)
REMARK    1  A    between atoms: C_3  and  N_4 
REMARK    2  A    between atoms: N_4  and  C_5 
REMARK    3  A    between atoms: C_5  and  C_6 
REMARK    4  A    between atoms: C_8  and  C_9 
REMARK       I    between atoms: C_9  and  N_10 
ROOT
HETATM    1  N   UNL     1     -41.183  55.629 -51.949  1.00  0.00    -0.372 N 
HETATM    2  H   UNL     1     -40.978  56.164 -51.106  1.00  0.00     0.161 HD
ENDROOT
BRANCH   1   3
HETATM    3  C   UNL     1     -40.739  54.325 -51.912  1.00  0.00     0.107 A 
HETATM    4  C   UNL     1     -40.375  53.708 -50.700  1.00  0.00    -0.017 A 
HETATM    5  C   UNL     1     -40.411  54.418 -49.372  1.00  0.00     0.052 C 
HETATM    6  C   UNL     1     -39.972  52.365 -50.709  1.00  0.00     0.024 A 
HETATM    7  C   UNL     1     -39.940  51.643 -51.903  1.00  0.00    -0.009 A 
HETATM    8  C   UNL     1     -40.310  52.302 -53.091  1.00  0.00     0.043 A 
HETATM    9  C   UNL     1     -39.555  50.295 -51.958  1.00  0.00     0.014 A 
HETATM   10  N   UNL     1     -40.691  53.588 -53.033  1.00  0.00    -0.342 N 
HETATM   11  C   UNL     1     -40.281  51.618 -54.313  1.00  0.00     0.030 A 
HETATM   12  H   UNL     1     -40.921  54.048 -53.903  1.00  0.00     0.167 HD
HETATM   13  C   UNL     1     -39.895  50.278 -54.353  1.00  0.00     0.002 A 
HETATM   14  C   UNL     1     -39.537  49.618 -53.179  1.00  0.00     0.001 A 
ENDBRANCH   1   3
BRANCH   1  15
HETATM   15  C   UNL     1     -41.353  56.450 -53.138  1.00  0.00     0.160 C 
BRANCH  15  16
HETATM   16  C   UNL     1     -42.699  57.130 -53.205  1.00  0.00    -0.040 A 
HETATM   17  C   UNL     1     -43.287  57.707 -52.069  1.00  0.00     0.026 A 
HETATM   18  C   UNL     1     -44.553  58.309 -52.140  1.00  0.00     0.032 A 
HETATM   19  C   UNL     1     -45.242  58.338 -53.355  1.00  0.00     0.017 A 
HETATM   20  C   UNL     1     -44.675  57.750 -54.486  1.00  0.00     0.002 A 
HETATM   21  C   UNL     1     -43.418  57.143 -54.411  1.00  0.00     0.009 A 
BRANCH  18  22
HETATM   22  C   UNL     1     -45.094  58.932 -50.907  1.00  0.00     0.249 C 
HETATM   23  N   UNL     1     -44.297  59.817 -50.242  1.00  0.00    -0.366 N 
HETATM   24  H   UNL     1     -43.461  60.222 -50.641  1.00  0.00     0.159 HD
HETATM   25  H   UNL     1     -44.716  60.309 -49.461  1.00  0.00     0.159 HD
HETATM   26  O   UNL     1     -46.227  58.667 -50.527  1.00  0.00    -0.268 OA
ENDBRANCH  18  22
ENDBRANCH  15  16
ENDBRANCH   1  15
TORSDOF 4
ENDMDL
MODEL 10
REMARK VINA RESULT:      -8.0     13.728     15.424
REMARK  4 active torsions:
REMARK  status: ('A' for Active; 'I' for Inactive)
REMARK    1  A    between atoms: C_3  and  N_4 
REMARK    2  A    between atoms: N_4  and  C_5 
REMARK    3  A    between atoms: C_5  and  C_6 
REMARK    4  A    between atoms: C_8  and  C_9 
REMARK       I    between atoms: C_9  and  N_10 
ROOT
HETATM    1  N   UNL     1     -34.020  41.915 -55.522  1.00  0.00    -0.372 N 
HETATM    2  H   UNL     1     -33.698  41.704 -56.466  1.00  0.00     0.161 HD
ENDROOT
BRANCH   1   3
HETATM    3  C   UNL     1     -33.482  41.099 -54.549  1.00  0.00     0.107 A 
HETATM    4  C   UNL     1     -32.513  40.126 -54.860  1.00  0.00    -0.017 A 
HETATM    5  C   UNL     1     -32.017  39.878 -56.260  1.00  0.00     0.052 C 
HETATM    6  C   UNL     1     -31.965  39.351 -53.828  1.00  0.00     0.024 A 
HETATM    7  C   UNL     1     -32.366  39.548 -52.506  1.00  0.00    -0.009 A 
HETATM    8  C   UNL     1     -33.338  40.531 -52.242  1.00  0.00     0.043 A 
HETATM    9  C   UNL     1     -31.835  38.805 -51.439  1.00  0.00     0.014 A 
HETATM   10  N   UNL     1     -33.834  41.250 -53.262  1.00  0.00    -0.342 N 
HETATM   11  C   UNL     1     -33.777  40.753 -50.930  1.00  0.00     0.030 A 
HETATM   12  H   UNL     1     -34.554  41.927 -53.052  1.00  0.00     0.167 HD
HETATM   13  C   UNL     1     -33.242  40.006 -49.880  1.00  0.00     0.002 A 
HETATM   14  C   UNL     1     -32.272  39.038 -50.134  1.00  0.00     0.001 A 
ENDBRANCH   1   3
BRANCH   1  15
HETATM   15  C   UNL     1     -35.314  42.577 -55.475  1.00  0.00     0.160 C 
BRANCH  15  16
HETATM   16  C   UNL     1     -36.362  41.894 -56.320  1.00  0.00    -0.040 A 
HETATM   17  C   UNL     1     -36.387  42.035 -57.716  1.00  0.00     0.026 A 
HETATM   18  C   UNL     1     -37.386  41.418 -58.485  1.00  0.00     0.032 A 
HETATM   19  C   UNL     1     -38.370  40.651 -57.859  1.00  0.00     0.017 A 
HETATM   20  C   UNL     1     -38.366  40.520 -56.471  1.00  0.00     0.002 A 
HETATM   21  C   UNL     1     -37.376  41.142 -55.706  1.00  0.00     0.009 A 
BRANCH  18  22
HETATM   22  C   UNL     1     -37.324  41.582 -59.959  1.00  0.00     0.249 C 
HETATM   23  N   UNL     1     -37.157  42.842 -60.451  1.00  0.00    -0.366 N 
HETATM   24  H   UNL     1     -36.871  43.628 -59.882  1.00  0.00     0.159 HD
HETATM   25  H   UNL     1     -37.016  42.926 -61.451  1.00  0.00     0.159 HD
HETATM   26  O   UNL     1     -37.400  40.603 -60.692  1.00  0.00    -0.268 OA
ENDBRANCH  18  22
ENDBRANCH  15  16
ENDBRANCH   1  15
TORSDOF 4
ENDMDL
