MODEL 1
REMARK VINA RESULT:      -8.1      0.000      0.000
REMARK  8 active torsions:
REMARK  status: ('A' for Active; 'I' for Inactive)
REMARK    1  A    between atoms: C_2  and  C_3 
REMARK    2  A    between atoms: C_3  and  C_4 
REMARK       I    between atoms: C_4  and  N_5 
REMARK    3  A    between atoms: N_8  and  C_9 
REMARK    4  A    between atoms: C_13  and  N_14 
REMARK    5  A    between atoms: N_14  and  C_15 
REMARK    6  A    between atoms: C_15  and  N_16 
REMARK       I    between atoms: N_16  and  C_17 
REMARK    7  A    between atoms: C_17  and  C_18 
REMARK    8  A    between atoms: C_19  and  O_20 
ROOT
HETATM    1  C   UNL     1     -44.504  57.095 -58.058  1.00  0.00     0.052 A 
HETATM    2  C   UNL     1     -44.451  57.878 -56.885  1.00  0.00     0.062 A 
HETATM    3 CL   UNL     1     -45.375  59.327 -56.642  1.00  0.00    -0.082 Cl
HETATM    4  C   UNL     1     -43.585  57.552 -55.826  1.00  0.00     0.055 A 
HETATM    5  C   UNL     1     -42.708  56.474 -55.918  1.00  0.00     0.036 A 
HETATM    6  C   UNL     1     -42.678  55.735 -57.096  1.00  0.00     0.032 A 
HETATM    7  C   UNL     1     -43.569  56.039 -58.136  1.00  0.00     0.033 A 
ENDROOT
BRANCH   5   8
HETATM    8  N   UNL     1     -41.977  56.125 -54.760  1.00  0.00    -0.333 N 
HETATM    9  H   UNL     1     -41.336  56.841 -54.435  1.00  0.00     0.168 HD
BRANCH   8  10
HETATM   10  C   UNL     1     -42.290  55.183 -53.839  1.00  0.00     0.179 C 
HETATM   11  S   UNL     1     -43.079  55.618 -52.431  1.00  0.00    -0.040 SA
BRANCH  10  12
HETATM   12  N   UNL     1     -41.906  53.884 -53.999  1.00  0.00    -0.299 N 
HETATM   13  C   UNL     1     -40.611  53.497 -54.337  1.00  0.00     0.260 C 
HETATM   14  O   UNL     1     -39.841  54.104 -55.067  1.00  0.00    -0.267 OA
HETATM   15  H   UNL     1     -42.374  53.279 -53.336  1.00  0.00     0.171 HD
BRANCH  13  16
HETATM   16  C   UNL     1     -40.193  52.196 -53.745  1.00  0.00     0.066 A 
HETATM   17  C   UNL     1     -40.251  51.932 -52.366  1.00  0.00     0.089 A 
HETATM   18  C   UNL     1     -39.926  50.644 -51.890  1.00  0.00    -0.028 A 
HETATM   19  C   UNL     1     -40.026  50.317 -50.424  1.00  0.00     0.051 C 
HETATM   20  C   UNL     1     -39.524  49.649 -52.793  1.00  0.00     0.009 A 
HETATM   21  C   UNL     1     -39.463  49.912 -54.158  1.00  0.00     0.002 A 
HETATM   22  C   UNL     1     -39.807  51.175 -54.635  1.00  0.00     0.020 A 
BRANCH  17  23
HETATM   23  O   UNL     1     -40.677  52.819 -51.411  1.00  0.00    -0.354 OA
HETATM   24  C   UNL     1     -39.663  53.655 -50.861  1.00  0.00     0.210 C 
ENDBRANCH  17  23
ENDBRANCH  13  16
ENDBRANCH  10  12
ENDBRANCH   8  10
ENDBRANCH   5   8
BRANCH   1  25
HETATM   25  N   UNL     1     -45.431  57.195 -59.101  1.00  0.00    -0.376 N 
HETATM   26  C   UNL     1     -45.629  55.997 -59.945  1.00  0.00     0.143 C 
HETATM   27  C   UNL     1     -47.030  56.030 -60.593  1.00  0.00     0.145 C 
HETATM   28  N   UNL     1     -47.345  57.306 -61.254  1.00  0.00    -0.349 N 
HETATM   29  C   UNL     1     -48.333  57.293 -62.236  1.00  0.00     0.219 C 
HETATM   30  C   UNL     1     -47.010  58.507 -60.475  1.00  0.00     0.145 C 
HETATM   31  O   UNL     1     -48.828  56.245 -62.652  1.00  0.00    -0.273 OA
HETATM   32  C   UNL     1     -45.606  58.450 -59.848  1.00  0.00     0.143 C 
BRANCH  29  33
HETATM   33  C   UNL     1     -48.754  58.647 -62.794  1.00  0.00     0.103 C 
BRANCH  33  34
HETATM   34  C   UNL     1     -50.109  59.112 -62.266  1.00  0.00     0.005 C 
HETATM   35  C   UNL     1     -50.070  60.574 -61.851  1.00  0.00     0.005 C 
ENDBRANCH  33  34
ENDBRANCH  29  33
ENDBRANCH   1  25
TORSDOF 8
ENDMDL
MODEL 2
REMARK VINA RESULT:      -7.8      7.850     11.471
REMARK  8 active torsions:
REMARK  status: ('A' for Active; 'I' for Inactive)
REMARK    1  A    between atoms: C_2  and  C_3 
REMARK    2  A    between atoms: C_3  and  C_4 
REMARK       I    between atoms: C_4  and  N_5 
REMARK    3  A    between atoms: N_8  and  C_9 
REMARK    4  A    between atoms: C_13  and  N_14 
REMARK    5  A    between atoms: N_14  and  C_15 
REMARK    6  A    between atoms: C_15  and  N_16 
REMARK       I    between atoms: N_16  and  C_17 
REMARK    7  A    between atoms: C_17  and  C_18 
REMARK    8  A    between atoms: C_19  and  O_20 
ROOT
HETATM    1  C   UNL     1     -42.600  58.279 -51.677  1.00  0.00     0.052 A 
HETATM    2  C   UNL     1     -41.807  59.273 -51.062  1.00  0.00     0.062 A 
HETATM    3 CL   UNL     1     -40.110  59.101 -50.744  1.00  0.00    -0.082 Cl
HETATM    4  C   UNL     1     -42.368  60.481 -50.611  1.00  0.00     0.055 A 
HETATM    5  C   UNL     1     -43.737  60.720 -50.706  1.00  0.00     0.036 A 
HETATM    6  C   UNL     1     -44.555  59.724 -51.230  1.00  0.00     0.032 A 
HETATM    7  C   UNL     1     -43.989  58.536 -51.714  1.00  0.00     0.033 A 
ENDROOT
BRANCH   5   8
HETATM    8  N   UNL     1     -44.200  62.011 -50.366  1.00  0.00    -0.333 N 
HETATM    9  H   UNL     1     -43.691  62.770 -50.806  1.00  0.00     0.168 HD
BRANCH   8  10
HETATM   10  C   UNL     1     -45.419  62.350 -49.881  1.00  0.00     0.179 C 
HETATM   11  S   UNL     1     -46.692  62.614 -50.930  1.00  0.00    -0.040 SA
BRANCH  10  12
HETATM   12  N   UNL     1     -45.616  62.556 -48.548  1.00  0.00    -0.299 N 
HETATM   13  C   UNL     1     -45.694  61.529 -47.609  1.00  0.00     0.260 C 
HETATM   14  O   UNL     1     -46.173  60.418 -47.790  1.00  0.00    -0.267 OA
HETATM   15  H   UNL     1     -45.137  63.389 -48.230  1.00  0.00     0.171 HD
BRANCH  13  16
HETATM   16  C   UNL     1     -45.156  61.890 -46.269  1.00  0.00     0.066 A 
HETATM   17  C   UNL     1     -45.414  63.126 -45.652  1.00  0.00     0.089 A 
HETATM   18  C   UNL     1     -44.946  63.360 -44.342  1.00  0.00    -0.028 A 
HETATM   19  C   UNL     1     -45.248  64.654 -43.636  1.00  0.00     0.051 C 
HETATM   20  C   UNL     1     -44.205  62.370 -43.679  1.00  0.00     0.009 A 
HETATM   21  C   UNL     1     -43.947  61.147 -44.293  1.00  0.00     0.002 A 
HETATM   22  C   UNL     1     -44.429  60.903 -45.577  1.00  0.00     0.020 A 
BRANCH  17  23
HETATM   23  O   UNL     1     -46.165  64.136 -46.195  1.00  0.00    -0.354 OA
HETATM   24  C   UNL     1     -47.575  63.996 -46.045  1.00  0.00     0.210 C 
ENDBRANCH  17  23
ENDBRANCH  13  16
ENDBRANCH  10  12
ENDBRANCH   8  10
ENDBRANCH   5   8
BRANCH   1  25
HETATM   25  N   UNL     1     -42.155  57.122 -52.326  1.00  0.00    -0.376 N 
HETATM   26  C   UNL     1     -41.827  57.238 -53.763  1.00  0.00     0.143 C 
HETATM   27  C   UNL     1     -40.816  56.144 -54.167  1.00  0.00     0.145 C 
HETATM   28  N   UNL     1     -41.203  54.793 -53.732  1.00  0.00    -0.349 N 
HETATM   29  C   UNL     1     -40.644  53.715 -54.415  1.00  0.00     0.219 C 
HETATM   30  C   UNL     1     -41.672  54.700 -52.342  1.00  0.00     0.145 C 
HETATM   31  O   UNL     1     -39.973  53.865 -55.436  1.00  0.00    -0.273 OA
HETATM   32  C   UNL     1     -42.684  55.797 -51.970  1.00  0.00     0.143 C 
BRANCH  29  33
HETATM   33  C   UNL     1     -40.933  52.330 -53.850  1.00  0.00     0.103 C 
BRANCH  33  34
HETATM   34  C   UNL     1     -39.680  51.466 -53.728  1.00  0.00     0.005 C 
HETATM   35  C   UNL     1     -39.877  50.108 -54.384  1.00  0.00     0.005 C 
ENDBRANCH  33  34
ENDBRANCH  29  33
ENDBRANCH   1  25
TORSDOF 8
ENDMDL
MODEL 3
REMARK VINA RESULT:      -7.8      3.120      9.698
REMARK  8 active torsions:
REMARK  status: ('A' for Active; 'I' for Inactive)
REMARK    1  A    between atoms: C_2  and  C_3 
REMARK    2  A    between atoms: C_3  and  C_4 
REMARK       I    between atoms: C_4  and  N_5 
REMARK    3  A    between atoms: N_8  and  C_9 
REMARK    4  A    between atoms: C_13  and  N_14 
REMARK    5  A    between atoms: N_14  and  C_15 
REMARK    6  A    between atoms: C_15  and  N_16 
REMARK       I    between atoms: N_16  and  C_17 
REMARK    7  A    between atoms: C_17  and  C_18 
REMARK    8  A    between atoms: C_19  and  O_20 
ROOT
HETATM    1  C   UNL     1     -42.550  57.086 -52.895  1.00  0.00     0.052 A 
HETATM    2  C   UNL     1     -41.973  58.336 -53.210  1.00  0.00     0.062 A 
HETATM    3 CL   UNL     1     -40.277  58.680 -53.088  1.00  0.00    -0.082 Cl
HETATM    4  C   UNL     1     -42.765  59.428 -53.609  1.00  0.00     0.055 A 
HETATM    5  C   UNL     1     -44.154  59.332 -53.655  1.00  0.00     0.036 A 
HETATM    6  C   UNL     1     -44.755  58.139 -53.269  1.00  0.00     0.032 A 
HETATM    7  C   UNL     1     -43.962  57.039 -52.909  1.00  0.00     0.033 A 
ENDROOT
BRANCH   5   8
HETATM    8  N   UNL     1     -44.866  60.423 -54.203  1.00  0.00    -0.333 N 
HETATM    9  H   UNL     1     -44.684  61.313 -53.754  1.00  0.00     0.168 HD
BRANCH   8  10
HETATM   10  C   UNL     1     -45.419  60.512 -55.437  1.00  0.00     0.179 C 
HETATM   11  S   UNL     1     -46.269  61.882 -55.876  1.00  0.00    -0.040 SA
BRANCH  10  12
HETATM   12  N   UNL     1     -45.363  59.468 -56.313  1.00  0.00    -0.299 N 
HETATM   13  C   UNL     1     -44.358  59.313 -57.267  1.00  0.00     0.260 C 
HETATM   14  O   UNL     1     -43.787  60.210 -57.870  1.00  0.00    -0.267 OA
HETATM   15  H   UNL     1     -45.678  58.610 -55.881  1.00  0.00     0.171 HD
BRANCH  13  16
HETATM   16  C   UNL     1     -44.014  57.893 -57.558  1.00  0.00     0.066 A 
HETATM   17  C   UNL     1     -44.434  57.232 -58.725  1.00  0.00     0.089 A 
HETATM   18  C   UNL     1     -43.992  55.916 -58.975  1.00  0.00    -0.028 A 
HETATM   19  C   UNL     1     -44.384  55.199 -60.239  1.00  0.00     0.051 C 
HETATM   20  C   UNL     1     -43.161  55.272 -58.046  1.00  0.00     0.009 A 
HETATM   21  C   UNL     1     -42.749  55.927 -56.889  1.00  0.00     0.002 A 
HETATM   22  C   UNL     1     -43.163  57.235 -56.650  1.00  0.00     0.020 A 
BRANCH  17  23
HETATM   23  O   UNL     1     -45.203  57.789 -59.714  1.00  0.00    -0.354 OA
HETATM   24  C   UNL     1     -46.607  57.778 -59.473  1.00  0.00     0.210 C 
ENDBRANCH  17  23
ENDBRANCH  13  16
ENDBRANCH  10  12
ENDBRANCH   8  10
ENDBRANCH   5   8
BRANCH   1  25
HETATM   25  N   UNL     1     -41.882  55.880 -52.662  1.00  0.00    -0.376 N 
HETATM   26  C   UNL     1     -41.518  55.569 -51.263  1.00  0.00     0.143 C 
HETATM   27  C   UNL     1     -41.379  54.043 -51.077  1.00  0.00     0.145 C 
HETATM   28  N   UNL     1     -40.528  53.400 -52.090  1.00  0.00    -0.349 N 
HETATM   29  C   UNL     1     -39.966  52.167 -51.767  1.00  0.00     0.219 C 
HETATM   30  C   UNL     1     -40.787  53.820 -53.475  1.00  0.00     0.145 C 
HETATM   31  O   UNL     1     -40.043  51.690 -50.635  1.00  0.00    -0.273 OA
HETATM   32  C   UNL     1     -40.914  55.345 -53.631  1.00  0.00     0.143 C 
BRANCH  29  33
HETATM   33  C   UNL     1     -39.220  51.447 -52.883  1.00  0.00     0.103 C 
BRANCH  33  34
HETATM   34  C   UNL     1     -39.847  50.102 -53.245  1.00  0.00     0.005 C 
HETATM   35  C   UNL     1     -39.803  49.856 -54.745  1.00  0.00     0.005 C 
ENDBRANCH  33  34
ENDBRANCH  29  33
ENDBRANCH   1  25
TORSDOF 8
ENDMDL
MODEL 4
REMARK VINA RESULT:      -7.5      1.963      2.467
REMARK  8 active torsions:
REMARK  status: ('A' for Active; 'I' for Inactive)
REMARK    1  A    between atoms: C_2  and  C_3 
REMARK    2  A    between atoms: C_3  and  C_4 
REMARK       I    between atoms: C_4  and  N_5 
REMARK    3  A    between atoms: N_8  and  C_9 
REMARK    4  A    between atoms: C_13  and  N_14 
REMARK    5  A    between atoms: N_14  and  C_15 
REMARK    6  A    between atoms: C_15  and  N_16 
REMARK       I    between atoms: N_16  and  C_17 
REMARK    7  A    between atoms: C_17  and  C_18 
REMARK    8  A    between atoms: C_19  and  O_20 
ROOT
HETATM    1  C   UNL     1     -44.452  57.748 -58.277  1.00  0.00     0.052 A 
HETATM    2  C   UNL     1     -43.053  57.771 -58.466  1.00  0.00     0.062 A 
HETATM    3 CL   UNL     1     -42.270  57.385 -59.966  1.00  0.00    -0.082 Cl
HETATM    4  C   UNL     1     -42.176  58.070 -57.408  1.00  0.00     0.055 A 
HETATM    5  C   UNL     1     -42.653  58.301 -56.120  1.00  0.00     0.036 A 
HETATM    6  C   UNL     1     -44.021  58.201 -55.886  1.00  0.00     0.032 A 
HETATM    7  C   UNL     1     -44.897  57.941 -56.950  1.00  0.00     0.033 A 
ENDROOT
BRANCH   5   8
HETATM    8  N   UNL     1     -41.725  58.736 -55.148  1.00  0.00    -0.333 N 
HETATM    9  H   UNL     1     -41.160  59.530 -55.430  1.00  0.00     0.168 HD
BRANCH   8  10
HETATM   10  C   UNL     1     -41.762  58.512 -53.812  1.00  0.00     0.179 C 
HETATM   11  S   UNL     1     -42.316  59.703 -52.779  1.00  0.00    -0.040 SA
BRANCH  10  12
HETATM   12  N   UNL     1     -41.283  57.353 -53.277  1.00  0.00    -0.299 N 
HETATM   13  C   UNL     1     -42.050  56.201 -53.116  1.00  0.00     0.260 C 
HETATM   14  O   UNL     1     -43.242  56.156 -52.847  1.00  0.00    -0.267 OA
HETATM   15  H   UNL     1     -40.323  57.192 -53.551  1.00  0.00     0.171 HD
BRANCH  13  16
HETATM   16  C   UNL     1     -41.281  54.935 -53.266  1.00  0.00     0.066 A 
HETATM   17  C   UNL     1     -40.981  54.092 -52.182  1.00  0.00     0.089 A 
HETATM   18  C   UNL     1     -40.328  52.864 -52.417  1.00  0.00    -0.028 A 
HETATM   19  C   UNL     1     -40.037  51.918 -51.283  1.00  0.00     0.051 C 
HETATM   20  C   UNL     1     -39.961  52.508 -53.723  1.00  0.00     0.009 A 
HETATM   21  C   UNL     1     -40.255  53.345 -54.795  1.00  0.00     0.002 A 
HETATM   22  C   UNL     1     -40.922  54.547 -54.571  1.00  0.00     0.020 A 
BRANCH  17  23
HETATM   23  O   UNL     1     -41.338  54.326 -50.879  1.00  0.00    -0.354 OA
HETATM   24  C   UNL     1     -40.540  55.284 -50.191  1.00  0.00     0.210 C 
ENDBRANCH  17  23
ENDBRANCH  13  16
ENDBRANCH  10  12
ENDBRANCH   8  10
ENDBRANCH   5   8
BRANCH   1  25
HETATM   25  N   UNL     1     -45.438  57.645 -59.264  1.00  0.00    -0.376 N 
HETATM   26  C   UNL     1     -45.577  56.341 -59.947  1.00  0.00     0.143 C 
HETATM   27  C   UNL     1     -47.007  56.184 -60.504  1.00  0.00     0.145 C 
HETATM   28  N   UNL     1     -47.466  57.340 -61.290  1.00  0.00    -0.349 N 
HETATM   29  C   UNL     1     -48.500  57.128 -62.199  1.00  0.00     0.219 C 
HETATM   30  C   UNL     1     -47.195  58.650 -60.680  1.00  0.00     0.145 C 
HETATM   31  O   UNL     1     -48.924  56.001 -62.456  1.00  0.00    -0.273 OA
HETATM   32  C   UNL     1     -45.760  58.781 -60.140  1.00  0.00     0.143 C 
BRANCH  29  33
HETATM   33  C   UNL     1     -49.065  58.366 -62.885  1.00  0.00     0.103 C 
BRANCH  33  34
HETATM   34  C   UNL     1     -50.545  58.590 -62.581  1.00  0.00     0.005 C 
HETATM   35  C   UNL     1     -50.765  59.894 -61.830  1.00  0.00     0.005 C 
ENDBRANCH  33  34
ENDBRANCH  29  33
ENDBRANCH   1  25
TORSDOF 8
ENDMDL
MODEL 5
REMARK VINA RESULT:      -7.5      5.918      8.068
REMARK  8 active torsions:
REMARK  status: ('A' for Active; 'I' for Inactive)
REMARK    1  A    between atoms: C_2  and  C_3 
REMARK    2  A    between atoms: C_3  and  C_4 
REMARK       I    between atoms: C_4  and  N_5 
REMARK    3  A    between atoms: N_8  and  C_9 
REMARK    4  A    between atoms: C_13  and  N_14 
REMARK    5  A    between atoms: N_14  and  C_15 
REMARK    6  A    between atoms: C_15  and  N_16 
REMARK       I    between atoms: N_16  and  C_17 
REMARK    7  A    between atoms: C_17  and  C_18 
REMARK    8  A    between atoms: C_19  and  O_20 
ROOT
HETATM    1  C   UNL     1     -43.156  59.340 -51.876  1.00  0.00     0.052 A 
HETATM    2  C   UNL     1     -43.366  57.949 -51.991  1.00  0.00     0.062 A 
HETATM    3 CL   UNL     1     -44.483  57.052 -51.012  1.00  0.00    -0.082 Cl
HETATM    4  C   UNL     1     -42.627  57.170 -52.899  1.00  0.00     0.055 A 
HETATM    5  C   UNL     1     -41.622  57.734 -53.682  1.00  0.00     0.036 A 
HETATM    6  C   UNL     1     -41.336  59.087 -53.529  1.00  0.00     0.032 A 
HETATM    7  C   UNL     1     -42.099  59.870 -52.650  1.00  0.00     0.033 A 
ENDROOT
BRANCH   5   8
HETATM    8  N   UNL     1     -41.028  56.918 -54.670  1.00  0.00    -0.333 N 
HETATM    9  H   UNL     1     -40.151  57.271 -55.037  1.00  0.00     0.168 HD
BRANCH   8  10
HETATM   10  C   UNL     1     -41.247  55.600 -54.893  1.00  0.00     0.179 C 
HETATM   11  S   UNL     1     -42.389  55.119 -56.014  1.00  0.00    -0.040 SA
BRANCH  10  12
HETATM   12  N   UNL     1     -40.604  54.644 -54.163  1.00  0.00    -0.299 N 
HETATM   13  C   UNL     1     -41.258  53.746 -53.320  1.00  0.00     0.260 C 
HETATM   14  O   UNL     1     -42.260  53.973 -52.657  1.00  0.00    -0.267 OA
HETATM   15  H   UNL     1     -39.820  54.258 -54.672  1.00  0.00     0.171 HD
BRANCH  13  16
HETATM   16  C   UNL     1     -40.607  52.409 -53.238  1.00  0.00     0.066 A 
HETATM   17  C   UNL     1     -40.239  51.815 -52.019  1.00  0.00     0.089 A 
HETATM   18  C   UNL     1     -39.711  50.507 -52.015  1.00  0.00    -0.028 A 
HETATM   19  C   UNL     1     -39.353  49.824 -50.723  1.00  0.00     0.051 C 
HETATM   20  C   UNL     1     -39.533  49.823 -53.228  1.00  0.00     0.009 A 
HETATM   21  C   UNL     1     -39.894  50.415 -54.435  1.00  0.00     0.002 A 
HETATM   22  C   UNL     1     -40.439  51.697 -54.441  1.00  0.00     0.020 A 
BRANCH  17  23
HETATM   23  O   UNL     1     -40.416  52.378 -50.782  1.00  0.00    -0.354 OA
HETATM   24  C   UNL     1     -39.558  53.475 -50.482  1.00  0.00     0.210 C 
ENDBRANCH  17  23
ENDBRANCH  13  16
ENDBRANCH  10  12
ENDBRANCH   8  10
ENDBRANCH   5   8
BRANCH   1  25
HETATM   25  N   UNL     1     -43.930  60.257 -51.155  1.00  0.00    -0.376 N 
HETATM   26  C   UNL     1     -44.891  61.079 -51.922  1.00  0.00     0.143 C 
HETATM   27  C   UNL     1     -46.041  61.544 -51.003  1.00  0.00     0.145 C 
HETATM   28  N   UNL     1     -45.583  62.149 -49.743  1.00  0.00    -0.349 N 
HETATM   29  C   UNL     1     -46.467  62.998 -49.081  1.00  0.00     0.219 C 
HETATM   30  C   UNL     1     -44.518  61.409 -49.051  1.00  0.00     0.145 C 
HETATM   31  O   UNL     1     -47.531  63.357 -49.586  1.00  0.00    -0.273 OA
HETATM   32  C   UNL     1     -43.382  60.964 -49.988  1.00  0.00     0.143 C 
BRANCH  29  33
HETATM   33  C   UNL     1     -46.036  63.487 -47.703  1.00  0.00     0.103 C 
BRANCH  33  34
HETATM   34  C   UNL     1     -47.037  63.131 -46.607  1.00  0.00     0.005 C 
HETATM   35  C   UNL     1     -47.060  61.633 -46.343  1.00  0.00     0.005 C 
ENDBRANCH  33  34
ENDBRANCH  29  33
ENDBRANCH   1  25
TORSDOF 8
ENDMDL
MODEL 6
REMARK VINA RESULT:      -7.5      3.743      4.400
REMARK  8 active torsions:
REMARK  status: ('A' for Active; 'I' for Inactive)
REMARK    1  A    between atoms: C_2  and  C_3 
REMARK    2  A    between atoms: C_3  and  C_4 
REMARK       I    between atoms: C_4  and  N_5 
REMARK    3  A    between atoms: N_8  and  C_9 
REMARK    4  A    between atoms: C_13  and  N_14 
REMARK    5  A    between atoms: N_14  and  C_15 
REMARK    6  A    between atoms: C_15  and  N_16 
REMARK       I    between atoms: N_16  and  C_17 
REMARK    7  A    between atoms: C_17  and  C_18 
REMARK    8  A    between atoms: C_19  and  O_20 
ROOT
HETATM    1  C   UNL     1     -42.936  58.414 -56.157  1.00  0.00     0.052 A 
HETATM    2  C   UNL     1     -42.763  58.797 -54.810  1.00  0.00     0.062 A 
HETATM    3 CL   UNL     1     -42.150  60.342 -54.311  1.00  0.00    -0.082 Cl
HETATM    4  C   UNL     1     -43.039  57.909 -53.755  1.00  0.00     0.055 A 
HETATM    5  C   UNL     1     -43.443  56.599 -54.004  1.00  0.00     0.036 A 
HETATM    6  C   UNL     1     -43.540  56.168 -55.323  1.00  0.00     0.032 A 
HETATM    7  C   UNL     1     -43.301  57.066 -56.373  1.00  0.00     0.033 A 
ENDROOT
BRANCH   5   8
HETATM    8  N   UNL     1     -43.839  55.816 -52.896  1.00  0.00    -0.333 N 
HETATM    9  H   UNL     1     -44.842  55.696 -52.802  1.00  0.00     0.168 HD
BRANCH   8  10
HETATM   10  C   UNL     1     -43.094  54.915 -52.212  1.00  0.00     0.179 C 
HETATM   11  S   UNL     1     -42.796  55.139 -50.583  1.00  0.00    -0.040 SA
BRANCH  10  12
HETATM   12  N   UNL     1     -42.509  53.857 -52.845  1.00  0.00    -0.299 N 
HETATM   13  C   UNL     1     -41.169  53.829 -53.225  1.00  0.00     0.260 C 
HETATM   14  O   UNL     1     -40.504  54.781 -53.609  1.00  0.00    -0.267 OA
HETATM   15  H   UNL     1     -42.875  52.978 -52.504  1.00  0.00     0.171 HD
BRANCH  13  16
HETATM   16  C   UNL     1     -40.551  52.475 -53.167  1.00  0.00     0.066 A 
HETATM   17  C   UNL     1     -40.220  51.840 -51.958  1.00  0.00     0.089 A 
HETATM   18  C   UNL     1     -39.724  50.519 -51.980  1.00  0.00    -0.028 A 
HETATM   19  C   UNL     1     -39.406  49.795 -50.699  1.00  0.00     0.051 C 
HETATM   20  C   UNL     1     -39.540  49.864 -53.206  1.00  0.00     0.009 A 
HETATM   21  C   UNL     1     -39.865  50.496 -54.404  1.00  0.00     0.002 A 
HETATM   22  C   UNL     1     -40.379  51.790 -54.385  1.00  0.00     0.020 A 
BRANCH  17  23
HETATM   23  O   UNL     1     -40.407  52.374 -50.709  1.00  0.00    -0.354 OA
HETATM   24  C   UNL     1     -39.534  53.447 -50.369  1.00  0.00     0.210 C 
ENDBRANCH  17  23
ENDBRANCH  13  16
ENDBRANCH  10  12
ENDBRANCH   8  10
ENDBRANCH   5   8
BRANCH   1  25
HETATM   25  N   UNL     1     -42.874  59.238 -57.286  1.00  0.00    -0.376 N 
HETATM   26  C   UNL     1     -44.118  59.928 -57.688  1.00  0.00     0.143 C 
HETATM   27  C   UNL     1     -43.782  61.203 -58.491  1.00  0.00     0.145 C 
HETATM   28  N   UNL     1     -42.824  60.977 -59.585  1.00  0.00    -0.349 N 
HETATM   29  C   UNL     1     -42.811  61.902 -60.626  1.00  0.00     0.219 C 
HETATM   30  C   UNL     1     -41.655  60.163 -59.226  1.00  0.00     0.145 C 
HETATM   31  O   UNL     1     -43.656  62.792 -60.721  1.00  0.00    -0.273 OA
HETATM   32  C   UNL     1     -42.019  58.896 -58.433  1.00  0.00     0.143 C 
BRANCH  29  33
HETATM   33  C   UNL     1     -41.708  61.739 -61.666  1.00  0.00     0.103 C 
BRANCH  33  34
HETATM   34  C   UNL     1     -41.105  63.071 -62.106  1.00  0.00     0.005 C 
HETATM   35  C   UNL     1     -39.587  63.045 -62.025  1.00  0.00     0.005 C 
ENDBRANCH  33  34
ENDBRANCH  29  33
ENDBRANCH   1  25
TORSDOF 8
ENDMDL
MODEL 7
REMARK VINA RESULT:      -7.3      4.167     10.137
REMARK  8 active torsions:
REMARK  status: ('A' for Active; 'I' for Inactive)
REMARK    1  A    between atoms: C_2  and  C_3 
REMARK    2  A    between atoms: C_3  and  C_4 
REMARK       I    between atoms: C_4  and  N_5 
REMARK    3  A    between atoms: N_8  and  C_9 
REMARK    4  A    between atoms: C_13  and  N_14 
REMARK    5  A    between atoms: N_14  and  C_15 
REMARK    6  A    between atoms: C_15  and  N_16 
REMARK       I    between atoms: N_16  and  C_17 
REMARK    7  A    between atoms: C_17  and  C_18 
REMARK    8  A    between atoms: C_19  and  O_20 
ROOT
HETATM    1  C   UNL     1     -42.998  57.371 -51.377  1.00  0.00     0.052 A 
HETATM    2  C   UNL     1     -42.504  58.692 -51.327  1.00  0.00     0.062 A 
HETATM    3 CL   UNL     1     -40.817  59.097 -51.316  1.00  0.00    -0.082 Cl
HETATM    4  C   UNL     1     -43.371  59.795 -51.233  1.00  0.00     0.055 A 
HETATM    5  C   UNL     1     -44.750  59.621 -51.130  1.00  0.00     0.036 A 
HETATM    6  C   UNL     1     -45.259  58.327 -51.091  1.00  0.00     0.032 A 
HETATM    7  C   UNL     1     -44.396  57.230 -51.224  1.00  0.00     0.033 A 
ENDROOT
BRANCH   5   8
HETATM    8  N   UNL     1     -45.560  60.778 -51.185  1.00  0.00    -0.333 N 
HETATM    9  H   UNL     1     -45.315  61.496 -50.512  1.00  0.00     0.168 HD
BRANCH   8  10
HETATM   10  C   UNL     1     -46.317  61.206 -52.223  1.00  0.00     0.179 C 
HETATM   11  S   UNL     1     -47.402  62.458 -52.007  1.00  0.00    -0.040 SA
BRANCH  10  12
HETATM   12  N   UNL     1     -46.270  60.583 -53.436  1.00  0.00    -0.299 N 
HETATM   13  C   UNL     1     -45.287  60.828 -54.393  1.00  0.00     0.260 C 
HETATM   14  O   UNL     1     -44.740  61.900 -54.611  1.00  0.00    -0.267 OA
HETATM   15  H   UNL     1     -46.567  59.619 -53.365  1.00  0.00     0.171 HD
BRANCH  13  16
HETATM   16  C   UNL     1     -44.935  59.639 -55.217  1.00  0.00     0.066 A 
HETATM   17  C   UNL     1     -45.547  59.358 -56.450  1.00  0.00     0.089 A 
HETATM   18  C   UNL     1     -45.095  58.263 -57.217  1.00  0.00    -0.028 A 
HETATM   19  C   UNL     1     -45.697  57.966 -58.564  1.00  0.00     0.051 C 
HETATM   20  C   UNL     1     -44.060  57.451 -56.730  1.00  0.00     0.009 A 
HETATM   21  C   UNL     1     -43.458  57.727 -55.506  1.00  0.00     0.002 A 
HETATM   22  C   UNL     1     -43.884  58.822 -54.757  1.00  0.00     0.020 A 
BRANCH  17  23
HETATM   23  O   UNL     1     -46.529  60.116 -57.034  1.00  0.00    -0.354 OA
HETATM   24  C   UNL     1     -46.070  61.243 -57.775  1.00  0.00     0.210 C 
ENDBRANCH  17  23
ENDBRANCH  13  16
ENDBRANCH  10  12
ENDBRANCH   8  10
ENDBRANCH   5   8
BRANCH   1  25
HETATM   25  N   UNL     1     -42.274  56.205 -51.648  1.00  0.00    -0.376 N 
HETATM   26  C   UNL     1     -41.527  55.597 -50.526  1.00  0.00     0.143 C 
HETATM   27  C   UNL     1     -41.320  54.090 -50.782  1.00  0.00     0.145 C 
HETATM   28  N   UNL     1     -40.778  53.786 -52.116  1.00  0.00    -0.349 N 
HETATM   29  C   UNL     1     -40.130  52.564 -52.282  1.00  0.00     0.219 C 
HETATM   30  C   UNL     1     -41.422  54.504 -53.225  1.00  0.00     0.145 C 
HETATM   31  O   UNL     1     -39.879  51.822 -51.332  1.00  0.00    -0.273 OA
HETATM   32  C   UNL     1     -41.609  56.006 -52.945  1.00  0.00     0.143 C 
BRANCH  29  33
HETATM   33  C   UNL     1     -39.717  52.201 -53.703  1.00  0.00     0.103 C 
BRANCH  33  34
HETATM   34  C   UNL     1     -40.494  51.012 -54.262  1.00  0.00     0.005 C 
HETATM   35  C   UNL     1     -39.588  49.810 -54.479  1.00  0.00     0.005 C 
ENDBRANCH  33  34
ENDBRANCH  29  33
ENDBRANCH   1  25
TORSDOF 8
ENDMDL
MODEL 8
REMARK VINA RESULT:      -7.3      4.503      5.910
REMARK  8 active torsions:
REMARK  status: ('A' for Active; 'I' for Inactive)
REMARK    1  A    between atoms: C_2  and  C_3 
REMARK    2  A    between atoms: C_3  and  C_4 
REMARK       I    between atoms: C_4  and  N_5 
REMARK    3  A    between atoms: N_8  and  C_9 
REMARK    4  A    between atoms: C_13  and  N_14 
REMARK    5  A    between atoms: N_14  and  C_15 
REMARK    6  A    between atoms: C_15  and  N_16 
REMARK       I    between atoms: N_16  and  C_17 
REMARK    7  A    between atoms: C_17  and  C_18 
REMARK    8  A    between atoms: C_19  and  O_20 
ROOT
HETATM    1  C   UNL     1     -42.064  57.739 -52.775  1.00  0.00     0.052 A 
HETATM    2  C   UNL     1     -43.054  56.958 -52.140  1.00  0.00     0.062 A 
HETATM    3 CL   UNL     1     -44.659  56.732 -52.761  1.00  0.00    -0.082 Cl
HETATM    4  C   UNL     1     -42.812  56.333 -50.904  1.00  0.00     0.055 A 
HETATM    5  C   UNL     1     -41.603  56.507 -50.233  1.00  0.00     0.036 A 
HETATM    6  C   UNL     1     -40.641  57.340 -50.794  1.00  0.00     0.032 A 
HETATM    7  C   UNL     1     -40.870  57.931 -52.046  1.00  0.00     0.033 A 
ENDROOT
BRANCH   5   8
HETATM    8  N   UNL     1     -41.383  55.732 -49.072  1.00  0.00    -0.333 N 
HETATM    9  H   UNL     1     -42.089  55.843 -48.352  1.00  0.00     0.168 HD
BRANCH   8  10
HETATM   10  C   UNL     1     -40.623  54.617 -48.955  1.00  0.00     0.179 C 
HETATM   11  S   UNL     1     -40.272  53.998 -47.443  1.00  0.00    -0.040 SA
BRANCH  10  12
HETATM   12  N   UNL     1     -40.067  54.024 -50.050  1.00  0.00    -0.299 N 
HETATM   13  C   UNL     1     -40.364  52.726 -50.460  1.00  0.00     0.260 C 
HETATM   14  O   UNL     1     -40.621  51.777 -49.732  1.00  0.00    -0.267 OA
HETATM   15  H   UNL     1     -39.934  54.689 -50.800  1.00  0.00     0.171 HD
BRANCH  13  16
HETATM   16  C   UNL     1     -40.319  52.532 -51.936  1.00  0.00     0.066 A 
HETATM   17  C   UNL     1     -39.726  51.409 -52.539  1.00  0.00     0.089 A 
HETATM   18  C   UNL     1     -39.804  51.250 -53.939  1.00  0.00    -0.028 A 
HETATM   19  C   UNL     1     -39.222  50.034 -54.609  1.00  0.00     0.051 C 
HETATM   20  C   UNL     1     -40.446  52.225 -54.717  1.00  0.00     0.009 A 
HETATM   21  C   UNL     1     -41.028  53.339 -54.118  1.00  0.00     0.002 A 
HETATM   22  C   UNL     1     -40.976  53.487 -52.734  1.00  0.00     0.020 A 
BRANCH  17  23
HETATM   23  O   UNL     1     -39.120  50.380 -51.866  1.00  0.00    -0.354 OA
HETATM   24  C   UNL     1     -39.978  49.304 -51.496  1.00  0.00     0.210 C 
ENDBRANCH  17  23
ENDBRANCH  13  16
ENDBRANCH  10  12
ENDBRANCH   8  10
ENDBRANCH   5   8
BRANCH   1  25
HETATM   25  N   UNL     1     -42.102  58.264 -54.072  1.00  0.00    -0.376 N 
HETATM   26  C   UNL     1     -41.829  57.331 -55.186  1.00  0.00     0.143 C 
HETATM   27  C   UNL     1     -42.487  57.847 -56.483  1.00  0.00     0.145 C 
HETATM   28  N   UNL     1     -42.189  59.257 -56.776  1.00  0.00    -0.349 N 
HETATM   29  C   UNL     1     -42.324  59.680 -58.097  1.00  0.00     0.219 C 
HETATM   30  C   UNL     1     -42.316  60.169 -55.630  1.00  0.00     0.145 C 
HETATM   31  O   UNL     1     -42.535  58.891 -59.017  1.00  0.00    -0.273 OA
HETATM   32  C   UNL     1     -41.645  59.633 -54.353  1.00  0.00     0.143 C 
BRANCH  29  33
HETATM   33  C   UNL     1     -42.164  61.174 -58.351  1.00  0.00     0.103 C 
BRANCH  33  34
HETATM   34  C   UNL     1     -40.704  61.605 -58.462  1.00  0.00     0.005 C 
HETATM   35  C   UNL     1     -40.524  62.688 -59.515  1.00  0.00     0.005 C 
ENDBRANCH  33  34
ENDBRANCH  29  33
ENDBRANCH   1  25
TORSDOF 8
ENDMDL
MODEL 9
REMARK VINA RESULT:      -7.3      7.536     11.341
REMARK  8 active torsions:
REMARK  status: ('A' for Active; 'I' for Inactive)
REMARK    1  A    between atoms: C_2  and  C_3 
REMARK    2  A    between atoms: C_3  and  C_4 
REMARK       I    between atoms: C_4  and  N_5 
REMARK    3  A    between atoms: N_8  and  C_9 
REMARK    4  A    between atoms: C_13  and  N_14 
REMARK    5  A    between atoms: N_14  and  C_15 
REMARK    6  A    between atoms: C_15  and  N_16 
REMARK       I    between atoms: N_16  and  C_17 
REMARK    7  A    between atoms: C_17  and  C_18 
REMARK    8  A    between atoms: C_19  and  O_20 
ROOT
HETATM    1  C   UNL     1     -42.980  58.167 -51.893  1.00  0.00     0.052 A 
HETATM    2  C   UNL     1     -42.345  59.226 -51.207  1.00  0.00     0.062 A 
HETATM    3 CL   UNL     1     -40.702  59.175 -50.651  1.00  0.00    -0.082 Cl
HETATM    4  C   UNL     1     -43.038  60.404 -50.878  1.00  0.00     0.055 A 
HETATM    5  C   UNL     1     -44.393  60.549 -51.169  1.00  0.00     0.036 A 
HETATM    6  C   UNL     1     -45.065  59.489 -51.769  1.00  0.00     0.032 A 
HETATM    7  C   UNL     1     -44.363  58.330 -52.131  1.00  0.00     0.033 A 
ENDROOT
BRANCH   5   8
HETATM    8  N   UNL     1     -44.979  61.814 -50.939  1.00  0.00    -0.333 N 
HETATM    9  H   UNL     1     -45.960  61.783 -50.681  1.00  0.00     0.168 HD
BRANCH   8  10
HETATM   10  C   UNL     1     -44.348  62.973 -50.634  1.00  0.00     0.179 C 
HETATM   11  S   UNL     1     -43.397  63.734 -51.778  1.00  0.00    -0.040 SA
BRANCH  10  12
HETATM   12  N   UNL     1     -44.409  63.502 -49.379  1.00  0.00    -0.299 N 
HETATM   13  C   UNL     1     -45.597  63.676 -48.670  1.00  0.00     0.260 C 
HETATM   14  O   UNL     1     -46.687  63.963 -49.143  1.00  0.00    -0.267 OA
HETATM   15  H   UNL     1     -43.617  63.213 -48.820  1.00  0.00     0.171 HD
BRANCH  13  16
HETATM   16  C   UNL     1     -45.452  63.514 -47.197  1.00  0.00     0.066 A 
HETATM   17  C   UNL     1     -45.033  62.313 -46.600  1.00  0.00     0.089 A 
HETATM   18  C   UNL     1     -44.831  62.265 -45.204  1.00  0.00    -0.028 A 
HETATM   19  C   UNL     1     -44.336  61.008 -44.541  1.00  0.00     0.051 C 
HETATM   20  C   UNL     1     -45.075  63.405 -44.424  1.00  0.00     0.009 A 
HETATM   21  C   UNL     1     -45.494  64.593 -45.017  1.00  0.00     0.002 A 
HETATM   22  C   UNL     1     -45.670  64.652 -46.397  1.00  0.00     0.020 A 
BRANCH  17  23
HETATM   23  O   UNL     1     -44.723  61.162 -47.276  1.00  0.00    -0.354 OA
HETATM   24  C   UNL     1     -45.838  60.377 -47.688  1.00  0.00     0.210 C 
ENDBRANCH  17  23
ENDBRANCH  13  16
ENDBRANCH  10  12
ENDBRANCH   8  10
ENDBRANCH   5   8
BRANCH   1  25
HETATM   25  N   UNL     1     -42.376  57.028 -52.436  1.00  0.00    -0.376 N 
HETATM   26  C   UNL     1     -42.285  56.950 -53.910  1.00  0.00     0.143 C 
HETATM   27  C   UNL     1     -41.116  56.029 -54.321  1.00  0.00     0.145 C 
HETATM   28  N   UNL     1     -41.120  54.727 -53.636  1.00  0.00    -0.349 N 
HETATM   29  C   UNL     1     -40.430  53.681 -54.243  1.00  0.00     0.219 C 
HETATM   30  C   UNL     1     -41.360  54.790 -52.187  1.00  0.00     0.145 C 
HETATM   31  O   UNL     1     -39.958  53.779 -55.375  1.00  0.00    -0.273 OA
HETATM   32  C   UNL     1     -42.534  55.708 -51.807  1.00  0.00     0.143 C 
BRANCH  29  33
HETATM   33  C   UNL     1     -40.314  52.389 -53.443  1.00  0.00     0.103 C 
BRANCH  33  34
HETATM   34  C   UNL     1     -40.680  51.151 -54.258  1.00  0.00     0.005 C 
HETATM   35  C   UNL     1     -39.554  50.129 -54.250  1.00  0.00     0.005 C 
ENDBRANCH  33  34
ENDBRANCH  29  33
ENDBRANCH   1  25
TORSDOF 8
ENDMDL
MODEL 10
REMARK VINA RESULT:      -7.2      2.925      9.795
REMARK  8 active torsions:
REMARK  status: ('A' for Active; 'I' for Inactive)
REMARK    1  A    between atoms: C_2  and  C_3 
REMARK    2  A    between atoms: C_3  and  C_4 
REMARK       I    between atoms: C_4  and  N_5 
REMARK    3  A    between atoms: N_8  and  C_9 
REMARK    4  A    between atoms: C_13  and  N_14 
REMARK    5  A    between atoms: N_14  and  C_15 
REMARK    6  A    between atoms: C_15  and  N_16 
REMARK       I    between atoms: N_16  and  C_17 
REMARK    7  A    between atoms: C_17  and  C_18 
REMARK    8  A    between atoms: C_19  and  O_20 
ROOT
HETATM    1  C   UNL     1     -43.091  56.674 -53.949  1.00  0.00     0.052 A 
HETATM    2  C   UNL     1     -42.601  57.995 -54.031  1.00  0.00     0.062 A 
HETATM    3 CL   UNL     1     -40.987  58.460 -53.599  1.00  0.00    -0.082 Cl
HETATM    4  C   UNL     1     -43.429  59.059 -54.432  1.00  0.00     0.055 A 
HETATM    5  C   UNL     1     -44.778  58.856 -54.714  1.00  0.00     0.036 A 
HETATM    6  C   UNL     1     -45.308  57.579 -54.560  1.00  0.00     0.032 A 
HETATM    7  C   UNL     1     -44.473  56.513 -54.197  1.00  0.00     0.033 A 
ENDROOT
BRANCH   5   8
HETATM    8  N   UNL     1     -45.505  59.943 -55.249  1.00  0.00    -0.333 N 
HETATM    9  H   UNL     1     -46.010  60.492 -54.562  1.00  0.00     0.168 HD
BRANCH   8  10
HETATM   10  C   UNL     1     -45.305  60.565 -56.436  1.00  0.00     0.179 C 
HETATM   11  S   UNL     1     -44.717  62.128 -56.474  1.00  0.00    -0.040 SA
BRANCH  10  12
HETATM   12  N   UNL     1     -45.647  59.967 -57.613  1.00  0.00    -0.299 N 
HETATM   13  C   UNL     1     -44.730  59.353 -58.464  1.00  0.00     0.260 C 
HETATM   14  O   UNL     1     -43.575  59.705 -58.659  1.00  0.00    -0.267 OA
HETATM   15  H   UNL     1     -46.542  59.499 -57.541  1.00  0.00     0.171 HD
BRANCH  13  16
HETATM   16  C   UNL     1     -45.277  58.180 -59.201  1.00  0.00     0.066 A 
HETATM   17  C   UNL     1     -44.551  56.992 -59.390  1.00  0.00     0.089 A 
HETATM   18  C   UNL     1     -45.171  55.891 -60.018  1.00  0.00    -0.028 A 
HETATM   19  C   UNL     1     -44.435  54.589 -60.191  1.00  0.00     0.051 C 
HETATM   20  C   UNL     1     -46.493  56.001 -60.471  1.00  0.00     0.009 A 
HETATM   21  C   UNL     1     -47.211  57.180 -60.287  1.00  0.00     0.002 A 
HETATM   22  C   UNL     1     -46.611  58.261 -59.645  1.00  0.00     0.020 A 
BRANCH  17  23
HETATM   23  O   UNL     1     -43.274  56.768 -58.942  1.00  0.00    -0.354 OA
HETATM   24  C   UNL     1     -43.167  56.366 -57.580  1.00  0.00     0.210 C 
ENDBRANCH  17  23
ENDBRANCH  13  16
ENDBRANCH  10  12
ENDBRANCH   8  10
ENDBRANCH   5   8
BRANCH   1  25
HETATM   25  N   UNL     1     -42.348  55.506 -53.741  1.00  0.00    -0.376 N 
HETATM   26  C   UNL     1     -42.696  54.329 -54.565  1.00  0.00     0.143 C 
HETATM   27  C   UNL     1     -41.478  53.389 -54.686  1.00  0.00     0.145 C 
HETATM   28  N   UNL     1     -40.847  53.070 -53.396  1.00  0.00    -0.349 N 
HETATM   29  C   UNL     1     -40.076  51.912 -53.327  1.00  0.00     0.219 C 
HETATM   30  C   UNL     1     -40.635  54.223 -52.508  1.00  0.00     0.145 C 
HETATM   31  O   UNL     1     -40.035  51.098 -54.250  1.00  0.00    -0.273 OA
HETATM   32  C   UNL     1     -41.866  55.139 -52.401  1.00  0.00     0.143 C 
BRANCH  29  33
HETATM   33  C   UNL     1     -39.305  51.685 -52.032  1.00  0.00     0.103 C 
BRANCH  33  34
HETATM   34  C   UNL     1     -39.499  50.281 -51.464  1.00  0.00     0.005 C 
HETATM   35  C   UNL     1     -40.221  50.319 -50.126  1.00  0.00     0.005 C 
ENDBRANCH  33  34
ENDBRANCH  29  33
ENDBRANCH   1  25
TORSDOF 8
ENDMDL
