MODEL 1
REMARK VINA RESULT:      -8.0      0.000      0.000
REMARK  3 active torsions:
REMARK  status: ('A' for Active; 'I' for Inactive)
REMARK    1  A    between atoms: C_2  and  C_3 
REMARK    2  A    between atoms: C_8  and  C_9 
REMARK    3  A    between atoms: C_9  and  N_10 
ROOT
HETATM    1  C   UNL     1     -42.568  58.927 -56.603  1.00  0.00     0.096 A 
HETATM    2  N   UNL     1     -42.636  60.263 -56.677  1.00  0.00    -0.174 NA
HETATM    3  N   UNL     1     -42.157  60.710 -55.515  1.00  0.00    -0.288 N 
HETATM    4  H   UNL     1     -42.077  61.716 -55.383  1.00  0.00     0.188 HD
HETATM    5  C   UNL     1     -41.847  59.707 -54.644  1.00  0.00     0.120 A 
HETATM    6  C   UNL     1     -42.117  58.519 -55.303  1.00  0.00     0.016 A 
ENDROOT
BRANCH   6   7
HETATM    7  C   UNL     1     -41.953  57.136 -54.785  1.00  0.00     0.277 C 
BRANCH   7   8
HETATM    8  N   UNL     1     -42.951  56.759 -53.711  1.00  0.00    -0.067 N 
HETATM    9  H   UNL     1     -43.673  57.484 -53.796  1.00  0.00     0.280 HD
HETATM   10  C   UNL     1     -43.680  55.455 -53.929  1.00  0.00     0.242 C 
HETATM   11  C   UNL     1     -42.885  54.219 -53.494  1.00  0.00     0.041 C 
HETATM   12  C   UNL     1     -42.194  54.417 -52.144  1.00  0.00     0.128 C 
HETATM   13  C   UNL     1     -41.967  53.629 -54.579  1.00  0.00     0.011 C 
HETATM   14  O   UNL     1     -41.351  53.319 -51.843  1.00  0.00    -0.385 OA
HETATM   15  C   UNL     1     -41.482  55.756 -51.975  1.00  0.00     0.060 C 
HETATM   16  C   UNL     1     -40.302  53.023 -52.761  1.00  0.00     0.168 C 
HETATM   17  C   UNL     1     -40.505  53.551 -54.175  1.00  0.00     0.027 C 
HETATM   18  C   UNL     1     -42.416  56.901 -52.310  1.00  0.00     0.237 C 
ENDBRANCH   7   8
ENDBRANCH   6   7
BRANCH   1  19
HETATM   19  C   UNL     1     -42.968  58.106 -57.748  1.00  0.00    -0.002 A 
HETATM   20  C   UNL     1     -42.006  57.700 -58.688  1.00  0.00     0.017 A 
HETATM   21  C   UNL     1     -42.371  56.940 -59.802  1.00  0.00     0.040 A 
HETATM   22  C   UNL     1     -43.703  56.582 -59.989  1.00  0.00     0.102 A 
HETATM   23  C   UNL     1     -44.669  56.989 -59.066  1.00  0.00     0.103 A 
HETATM   24  O   UNL     1     -43.994  55.833 -61.097  1.00  0.00    -0.346 OA
HETATM   25  C   UNL     1     -44.300  57.714 -57.933  1.00  0.00     0.053 A 
HETATM   26  O   UNL     1     -46.006  56.715 -59.205  1.00  0.00    -0.346 OA
HETATM   27  C   UNL     1     -46.313  56.246 -60.527  1.00  0.00     0.202 C 
HETATM   28  C   UNL     1     -45.287  55.225 -60.992  1.00  0.00     0.202 C 
ENDBRANCH   1  19
TORSDOF 3
ENDMDL
MODEL 2
REMARK VINA RESULT:      -8.0      3.846      7.385
REMARK  3 active torsions:
REMARK  status: ('A' for Active; 'I' for Inactive)
REMARK    1  A    between atoms: C_2  and  C_3 
REMARK    2  A    between atoms: C_8  and  C_9 
REMARK    3  A    between atoms: C_9  and  N_10 
ROOT
HETATM    1  C   UNL     1     -42.722  55.026 -54.546  1.00  0.00     0.096 A 
HETATM    2  N   UNL     1     -43.179  54.076 -55.371  1.00  0.00    -0.174 NA
HETATM    3  N   UNL     1     -43.249  54.649 -56.573  1.00  0.00    -0.288 N 
HETATM    4  H   UNL     1     -43.534  54.074 -57.364  1.00  0.00     0.188 HD
HETATM    5  C   UNL     1     -42.925  55.974 -56.552  1.00  0.00     0.120 A 
HETATM    6  C   UNL     1     -42.591  56.274 -55.242  1.00  0.00     0.016 A 
ENDROOT
BRANCH   6   7
HETATM    7  C   UNL     1     -42.170  57.589 -54.692  1.00  0.00     0.277 C 
BRANCH   7   8
HETATM    8  N   UNL     1     -43.322  58.506 -54.341  1.00  0.00    -0.067 N 
HETATM    9  H   UNL     1     -44.011  58.312 -55.077  1.00  0.00     0.280 HD
HETATM   10  C   UNL     1     -44.034  58.190 -53.047  1.00  0.00     0.242 C 
HETATM   11  C   UNL     1     -43.333  58.744 -51.802  1.00  0.00     0.041 C 
HETATM   12  C   UNL     1     -42.844  60.180 -51.999  1.00  0.00     0.128 C 
HETATM   13  C   UNL     1     -42.276  57.810 -51.188  1.00  0.00     0.011 C 
HETATM   14  O   UNL     1     -42.074  60.609 -50.890  1.00  0.00    -0.385 OA
HETATM   15  C   UNL     1     -42.141  60.444 -53.328  1.00  0.00     0.060 C 
HETATM   16  C   UNL     1     -40.908  59.856 -50.569  1.00  0.00     0.168 C 
HETATM   17  C   UNL     1     -40.891  58.425 -51.089  1.00  0.00     0.027 C 
HETATM   18  C   UNL     1     -42.996  59.970 -54.485  1.00  0.00     0.237 C 
ENDBRANCH   7   8
ENDBRANCH   6   7
BRANCH   1  19
HETATM   19  C   UNL     1     -42.469  54.717 -53.136  1.00  0.00    -0.002 A 
HETATM   20  C   UNL     1     -43.545  54.611 -52.240  1.00  0.00     0.017 A 
HETATM   21  C   UNL     1     -43.323  54.345 -50.886  1.00  0.00     0.040 A 
HETATM   22  C   UNL     1     -42.023  54.186 -50.416  1.00  0.00     0.102 A 
HETATM   23  C   UNL     1     -40.946  54.301 -51.297  1.00  0.00     0.103 A 
HETATM   24  O   UNL     1     -41.875  53.922 -49.081  1.00  0.00    -0.346 OA
HETATM   25  C   UNL     1     -41.168  54.527 -52.655  1.00  0.00     0.053 A 
HETATM   26  O   UNL     1     -39.635  54.204 -50.902  1.00  0.00    -0.346 OA
HETATM   27  C   UNL     1     -39.509  54.279 -49.473  1.00  0.00     0.202 C 
HETATM   28  C   UNL     1     -40.563  53.422 -48.790  1.00  0.00     0.202 C 
ENDBRANCH   1  19
TORSDOF 3
ENDMDL
MODEL 3
REMARK VINA RESULT:      -7.8     16.138     17.961
REMARK  3 active torsions:
REMARK  status: ('A' for Active; 'I' for Inactive)
REMARK    1  A    between atoms: C_2  and  C_3 
REMARK    2  A    between atoms: C_8  and  C_9 
REMARK    3  A    between atoms: C_9  and  N_10 
ROOT
HETATM    1  C   UNL     1     -37.796  41.213 -54.385  1.00  0.00     0.096 A 
HETATM    2  N   UNL     1     -39.033  41.233 -53.874  1.00  0.00    -0.174 NA
HETATM    3  N   UNL     1     -38.875  41.380 -52.558  1.00  0.00    -0.288 N 
HETATM    4  H   UNL     1     -39.708  41.467 -51.980  1.00  0.00     0.188 HD
HETATM    5  C   UNL     1     -37.565  41.379 -52.175  1.00  0.00     0.120 A 
HETATM    6  C   UNL     1     -36.819  41.253 -53.335  1.00  0.00     0.016 A 
ENDROOT
BRANCH   6   7
HETATM    7  C   UNL     1     -35.339  41.196 -53.459  1.00  0.00     0.277 C 
BRANCH   7   8
HETATM    8  N   UNL     1     -34.731  39.897 -52.975  1.00  0.00    -0.067 N 
HETATM    9  H   UNL     1     -35.296  39.664 -52.150  1.00  0.00     0.280 HD
HETATM   10  C   UNL     1     -34.892  38.717 -53.904  1.00  0.00     0.242 C 
HETATM   11  C   UNL     1     -33.860  38.672 -55.035  1.00  0.00     0.041 C 
HETATM   12  C   UNL     1     -32.446  38.989 -54.546  1.00  0.00     0.128 C 
HETATM   13  C   UNL     1     -34.262  39.442 -56.305  1.00  0.00     0.011 C 
HETATM   14  O   UNL     1     -31.544  39.086 -55.635  1.00  0.00    -0.385 OA
HETATM   15  C   UNL     1     -32.343  40.185 -53.602  1.00  0.00     0.060 C 
HETATM   16  C   UNL     1     -31.822  40.062 -56.634  1.00  0.00     0.168 C 
HETATM   17  C   UNL     1     -33.272  40.520 -56.713  1.00  0.00     0.027 C 
HETATM   18  C   UNL     1     -33.324  40.043 -52.457  1.00  0.00     0.237 C 
ENDBRANCH   7   8
ENDBRANCH   6   7
BRANCH   1  19
HETATM   19  C   UNL     1     -37.599  41.120 -55.834  1.00  0.00    -0.002 A 
HETATM   20  C   UNL     1     -37.066  42.211 -56.539  1.00  0.00     0.017 A 
HETATM   21  C   UNL     1     -36.897  42.152 -57.925  1.00  0.00     0.040 A 
HETATM   22  C   UNL     1     -37.263  41.002 -58.619  1.00  0.00     0.102 A 
HETATM   23  C   UNL     1     -37.804  39.915 -57.928  1.00  0.00     0.103 A 
HETATM   24  O   UNL     1     -37.067  41.006 -59.973  1.00  0.00    -0.346 OA
HETATM   25  C   UNL     1     -37.937  39.958 -56.540  1.00  0.00     0.053 A 
HETATM   26  O   UNL     1     -38.231  38.767 -58.546  1.00  0.00    -0.346 OA
HETATM   27  C   UNL     1     -38.336  38.941 -59.967  1.00  0.00     0.202 C 
HETATM   28  C   UNL     1     -37.126  39.680 -60.514  1.00  0.00     0.202 C 
ENDBRANCH   1  19
TORSDOF 3
ENDMDL
MODEL 4
REMARK VINA RESULT:      -7.7      3.539      6.511
REMARK  3 active torsions:
REMARK  status: ('A' for Active; 'I' for Inactive)
REMARK    1  A    between atoms: C_2  and  C_3 
REMARK    2  A    between atoms: C_8  and  C_9 
REMARK    3  A    between atoms: C_9  and  N_10 
ROOT
HETATM    1  C   UNL     1     -42.447  55.629 -55.739  1.00  0.00     0.096 A 
HETATM    2  N   UNL     1     -43.007  55.086 -56.828  1.00  0.00    -0.174 NA
HETATM    3  N   UNL     1     -43.525  56.108 -57.511  1.00  0.00    -0.288 N 
HETATM    4  H   UNL     1     -43.962  55.913 -58.410  1.00  0.00     0.188 HD
HETATM    5  C   UNL     1     -43.393  57.303 -56.866  1.00  0.00     0.120 A 
HETATM    6  C   UNL     1     -42.710  57.039 -55.691  1.00  0.00     0.016 A 
ENDROOT
BRANCH   6   7
HETATM    7  C   UNL     1     -42.319  58.006 -54.632  1.00  0.00     0.277 C 
BRANCH   7   8
HETATM    8  N   UNL     1     -43.491  58.686 -53.957  1.00  0.00    -0.067 N 
HETATM    9  H   UNL     1     -44.268  58.518 -54.607  1.00  0.00     0.280 HD
HETATM   10  C   UNL     1     -43.936  58.071 -52.652  1.00  0.00     0.242 C 
HETATM   11  C   UNL     1     -43.103  58.511 -51.443  1.00  0.00     0.041 C 
HETATM   12  C   UNL     1     -42.819  60.014 -51.448  1.00  0.00     0.128 C 
HETATM   13  C   UNL     1     -41.859  57.648 -51.169  1.00  0.00     0.011 C 
HETATM   14  O   UNL     1     -41.926  60.363 -50.404  1.00  0.00    -0.385 OA
HETATM   15  C   UNL     1     -42.383  60.583 -52.796  1.00  0.00     0.060 C 
HETATM   16  C   UNL     1     -40.645  59.740 -50.398  1.00  0.00     0.168 C 
HETATM   17  C   UNL     1     -40.555  58.427 -51.164  1.00  0.00     0.027 C 
HETATM   18  C   UNL     1     -43.361  60.185 -53.882  1.00  0.00     0.237 C 
ENDBRANCH   7   8
ENDBRANCH   6   7
BRANCH   1  19
HETATM   19  C   UNL     1     -41.727  54.784 -54.783  1.00  0.00    -0.002 A 
HETATM   20  C   UNL     1     -40.795  53.842 -55.247  1.00  0.00     0.017 A 
HETATM   21  C   UNL     1     -40.119  53.007 -54.353  1.00  0.00     0.040 A 
HETATM   22  C   UNL     1     -40.371  53.105 -52.988  1.00  0.00     0.102 A 
HETATM   23  C   UNL     1     -41.304  54.032 -52.518  1.00  0.00     0.103 A 
HETATM   24  O   UNL     1     -39.672  52.263 -52.166  1.00  0.00    -0.346 OA
HETATM   25  C   UNL     1     -41.951  54.892 -53.405  1.00  0.00     0.053 A 
HETATM   26  O   UNL     1     -41.641  54.156 -51.193  1.00  0.00    -0.346 OA
HETATM   27  C   UNL     1     -41.163  53.044 -50.422  1.00  0.00     0.202 C 
HETATM   28  C   UNL     1     -39.732  52.696 -50.801  1.00  0.00     0.202 C 
ENDBRANCH   1  19
TORSDOF 3
ENDMDL
MODEL 5
REMARK VINA RESULT:      -7.7      3.684      6.959
REMARK  3 active torsions:
REMARK  status: ('A' for Active; 'I' for Inactive)
REMARK    1  A    between atoms: C_2  and  C_3 
REMARK    2  A    between atoms: C_8  and  C_9 
REMARK    3  A    between atoms: C_9  and  N_10 
ROOT
HETATM    1  C   UNL     1     -41.317  55.623 -50.108  1.00  0.00     0.096 A 
HETATM    2  N   UNL     1     -41.190  55.380 -48.797  1.00  0.00    -0.174 NA
HETATM    3  N   UNL     1     -40.435  54.284 -48.707  1.00  0.00    -0.288 N 
HETATM    4  H   UNL     1     -40.177  53.953 -47.780  1.00  0.00     0.188 HD
HETATM    5  C   UNL     1     -40.125  53.749 -49.923  1.00  0.00     0.120 A 
HETATM    6  C   UNL     1     -40.696  54.579 -50.872  1.00  0.00     0.016 A 
ENDROOT
BRANCH   6   7
HETATM    7  C   UNL     1     -40.651  54.432 -52.351  1.00  0.00     0.277 C 
BRANCH   7   8
HETATM    8  N   UNL     1     -41.694  53.484 -52.906  1.00  0.00    -0.067 N 
HETATM    9  H   UNL     1     -41.729  52.735 -52.204  1.00  0.00     0.280 HD
HETATM   10  C   UNL     1     -43.101  54.029 -52.966  1.00  0.00     0.242 C 
HETATM   11  C   UNL     1     -43.376  54.903 -54.194  1.00  0.00     0.041 C 
HETATM   12  C   UNL     1     -42.803  54.301 -55.478  1.00  0.00     0.128 C 
HETATM   13  C   UNL     1     -43.046  56.395 -54.009  1.00  0.00     0.011 C 
HETATM   14  O   UNL     1     -42.942  55.201 -56.564  1.00  0.00    -0.385 OA
HETATM   15  C   UNL     1     -41.382  53.757 -55.356  1.00  0.00     0.060 C 
HETATM   16  C   UNL     1     -42.326  56.479 -56.442  1.00  0.00     0.168 C 
HETATM   17  C   UNL     1     -42.046  56.935 -55.017  1.00  0.00     0.027 C 
HETATM   18  C   UNL     1     -41.276  52.805 -54.183  1.00  0.00     0.237 C 
ENDBRANCH   7   8
ENDBRANCH   6   7
BRANCH   1  19
HETATM   19  C   UNL     1     -42.049  56.804 -50.570  1.00  0.00    -0.002 A 
HETATM   20  C   UNL     1     -41.346  57.957 -50.954  1.00  0.00     0.017 A 
HETATM   21  C   UNL     1     -42.027  59.104 -51.371  1.00  0.00     0.040 A 
HETATM   22  C   UNL     1     -43.418  59.108 -51.405  1.00  0.00     0.102 A 
HETATM   23  C   UNL     1     -44.128  57.971 -51.014  1.00  0.00     0.103 A 
HETATM   24  O   UNL     1     -44.024  60.261 -51.827  1.00  0.00    -0.346 OA
HETATM   25  C   UNL     1     -43.449  56.813 -50.635  1.00  0.00     0.053 A 
HETATM   26  O   UNL     1     -45.498  57.914 -50.975  1.00  0.00    -0.346 OA
HETATM   27  C   UNL     1     -46.083  59.220 -51.083  1.00  0.00     0.202 C 
HETATM   28  C   UNL     1     -45.398  60.034 -52.169  1.00  0.00     0.202 C 
ENDBRANCH   1  19
TORSDOF 3
ENDMDL
MODEL 6
REMARK VINA RESULT:      -7.7      2.485      7.305
REMARK  3 active torsions:
REMARK  status: ('A' for Active; 'I' for Inactive)
REMARK    1  A    between atoms: C_2  and  C_3 
REMARK    2  A    between atoms: C_8  and  C_9 
REMARK    3  A    between atoms: C_9  and  N_10 
ROOT
HETATM    1  C   UNL     1     -41.366  55.764 -51.571  1.00  0.00     0.096 A 
HETATM    2  N   UNL     1     -41.449  56.327 -50.359  1.00  0.00    -0.174 NA
HETATM    3  N   UNL     1     -41.972  57.537 -50.561  1.00  0.00    -0.288 N 
HETATM    4  H   UNL     1     -42.164  58.120 -49.748  1.00  0.00     0.188 HD
HETATM    5  C   UNL     1     -42.165  57.821 -51.881  1.00  0.00     0.120 A 
HETATM    6  C   UNL     1     -41.765  56.698 -52.585  1.00  0.00     0.016 A 
ENDROOT
BRANCH   6   7
HETATM    7  C   UNL     1     -41.772  56.501 -54.058  1.00  0.00     0.277 C 
BRANCH   7   8
HETATM    8  N   UNL     1     -43.077  55.957 -54.600  1.00  0.00    -0.067 N 
HETATM    9  H   UNL     1     -43.373  55.291 -53.876  1.00  0.00     0.280 HD
HETATM   10  C   UNL     1     -44.207  56.954 -54.698  1.00  0.00     0.242 C 
HETATM   11  C   UNL     1     -44.155  57.828 -55.956  1.00  0.00     0.041 C 
HETATM   12  C   UNL     1     -43.823  57.021 -57.212  1.00  0.00     0.128 C 
HETATM   13  C   UNL     1     -43.328  59.117 -55.811  1.00  0.00     0.011 C 
HETATM   14  O   UNL     1     -43.637  57.875 -58.327  1.00  0.00    -0.385 OA
HETATM   15  C   UNL     1     -42.680  56.021 -57.052  1.00  0.00     0.060 C 
HETATM   16  C   UNL     1     -42.615  58.863 -58.235  1.00  0.00     0.168 C 
HETATM   17  C   UNL     1     -42.198  59.241 -56.820  1.00  0.00     0.027 C 
HETATM   18  C   UNL     1     -42.917  55.132 -55.849  1.00  0.00     0.237 C 
ENDBRANCH   7   8
ENDBRANCH   6   7
BRANCH   1  19
HETATM   19  C   UNL     1     -40.880  54.390 -51.713  1.00  0.00    -0.002 A 
HETATM   20  C   UNL     1     -40.321  53.729 -50.607  1.00  0.00     0.017 A 
HETATM   21  C   UNL     1     -39.826  52.427 -50.728  1.00  0.00     0.040 A 
HETATM   22  C   UNL     1     -39.883  51.777 -51.957  1.00  0.00     0.102 A 
HETATM   23  C   UNL     1     -40.427  52.429 -53.065  1.00  0.00     0.103 A 
HETATM   24  O   UNL     1     -39.386  50.502 -52.008  1.00  0.00    -0.346 OA
HETATM   25  C   UNL     1     -40.957  53.713 -52.937  1.00  0.00     0.053 A 
HETATM   26  O   UNL     1     -40.476  51.873 -54.319  1.00  0.00    -0.346 OA
HETATM   27  C   UNL     1     -39.646  50.705 -54.409  1.00  0.00     0.202 C 
HETATM   28  C   UNL     1     -39.824  49.817 -53.188  1.00  0.00     0.202 C 
ENDBRANCH   1  19
TORSDOF 3
ENDMDL
MODEL 7
REMARK VINA RESULT:      -7.6      1.878      6.802
REMARK  3 active torsions:
REMARK  status: ('A' for Active; 'I' for Inactive)
REMARK    1  A    between atoms: C_2  and  C_3 
REMARK    2  A    between atoms: C_8  and  C_9 
REMARK    3  A    between atoms: C_9  and  N_10 
ROOT
HETATM    1  C   UNL     1     -43.438  56.209 -52.173  1.00  0.00     0.096 A 
HETATM    2  N   UNL     1     -43.346  56.520 -50.874  1.00  0.00    -0.174 NA
HETATM    3  N   UNL     1     -44.194  57.533 -50.688  1.00  0.00    -0.288 N 
HETATM    4  H   UNL     1     -44.312  57.893 -49.743  1.00  0.00     0.188 HD
HETATM    5  C   UNL     1     -44.787  57.952 -51.843  1.00  0.00     0.120 A 
HETATM    6  C   UNL     1     -44.309  57.128 -52.848  1.00  0.00     0.016 A 
ENDROOT
BRANCH   6   7
HETATM    7  C   UNL     1     -44.646  57.175 -54.295  1.00  0.00     0.277 C 
BRANCH   7   8
HETATM    8  N   UNL     1     -44.375  58.514 -54.946  1.00  0.00    -0.067 N 
HETATM    9  H   UNL     1     -44.484  59.179 -54.172  1.00  0.00     0.280 HD
HETATM   10  C   UNL     1     -42.964  58.723 -55.443  1.00  0.00     0.242 C 
HETATM   11  C   UNL     1     -42.693  58.103 -56.818  1.00  0.00     0.041 C 
HETATM   12  C   UNL     1     -43.829  58.363 -57.809  1.00  0.00     0.128 C 
HETATM   13  C   UNL     1     -42.225  56.638 -56.783  1.00  0.00     0.011 C 
HETATM   14  O   UNL     1     -43.617  57.655 -59.018  1.00  0.00    -0.385 OA
HETATM   15  C   UNL     1     -45.233  58.146 -57.249  1.00  0.00     0.060 C 
HETATM   16  C   UNL     1     -43.506  56.237 -58.938  1.00  0.00     0.168 C 
HETATM   17  C   UNL     1     -43.109  55.689 -57.574  1.00  0.00     0.027 C 
HETATM   18  C   UNL     1     -45.415  58.917 -55.958  1.00  0.00     0.237 C 
ENDBRANCH   7   8
ENDBRANCH   6   7
BRANCH   1  19
HETATM   19  C   UNL     1     -42.671  55.085 -52.717  1.00  0.00    -0.002 A 
HETATM   20  C   UNL     1     -42.979  54.580 -53.990  1.00  0.00     0.017 A 
HETATM   21  C   UNL     1     -42.278  53.490 -54.515  1.00  0.00     0.040 A 
HETATM   22  C   UNL     1     -41.264  52.896 -53.770  1.00  0.00     0.102 A 
HETATM   23  C   UNL     1     -40.957  53.385 -52.498  1.00  0.00     0.103 A 
HETATM   24  O   UNL     1     -40.613  51.837 -54.343  1.00  0.00    -0.346 OA
HETATM   25  C   UNL     1     -41.629  54.496 -51.990  1.00  0.00     0.053 A 
HETATM   26  O   UNL     1     -40.004  52.824 -51.685  1.00  0.00    -0.346 OA
HETATM   27  C   UNL     1     -39.599  51.532 -52.163  1.00  0.00     0.202 C 
HETATM   28  C   UNL     1     -39.381  51.554 -53.667  1.00  0.00     0.202 C 
ENDBRANCH   1  19
TORSDOF 3
ENDMDL
MODEL 8
REMARK VINA RESULT:      -7.6      2.161      7.076
REMARK  3 active torsions:
REMARK  status: ('A' for Active; 'I' for Inactive)
REMARK    1  A    between atoms: C_2  and  C_3 
REMARK    2  A    between atoms: C_8  and  C_9 
REMARK    3  A    between atoms: C_9  and  N_10 
ROOT
HETATM    1  C   UNL     1     -41.319  55.594 -51.642  1.00  0.00     0.096 A 
HETATM    2  N   UNL     1     -41.034  55.659 -50.335  1.00  0.00    -0.174 NA
HETATM    3  N   UNL     1     -41.421  56.874 -49.944  1.00  0.00    -0.288 N 
HETATM    4  H   UNL     1     -41.334  57.113 -48.958  1.00  0.00     0.188 HD
HETATM    5  C   UNL     1     -41.881  57.643 -50.972  1.00  0.00     0.120 A 
HETATM    6  C   UNL     1     -41.816  56.856 -52.109  1.00  0.00     0.016 A 
ENDROOT
BRANCH   6   7
HETATM    7  C   UNL     1     -42.199  57.231 -53.496  1.00  0.00     0.277 C 
BRANCH   7   8
HETATM    8  N   UNL     1     -43.168  58.392 -53.573  1.00  0.00    -0.067 N 
HETATM    9  H   UNL     1     -43.053  58.856 -52.664  1.00  0.00     0.280 HD
HETATM   10  C   UNL     1     -42.834  59.451 -54.596  1.00  0.00     0.242 C 
HETATM   11  C   UNL     1     -43.283  59.102 -56.019  1.00  0.00     0.041 C 
HETATM   12  C   UNL     1     -44.694  58.512 -56.057  1.00  0.00     0.128 C 
HETATM   13  C   UNL     1     -42.256  58.302 -56.840  1.00  0.00     0.011 C 
HETATM   14  O   UNL     1     -45.019  58.064 -57.362  1.00  0.00    -0.385 OA
HETATM   15  C   UNL     1     -44.978  57.454 -54.994  1.00  0.00     0.060 C 
HETATM   16  C   UNL     1     -44.182  57.069 -57.943  1.00  0.00     0.168 C 
HETATM   17  C   UNL     1     -42.779  56.973 -57.358  1.00  0.00     0.027 C 
HETATM   18  C   UNL     1     -44.614  57.972 -53.618  1.00  0.00     0.237 C 
ENDBRANCH   7   8
ENDBRANCH   6   7
BRANCH   1  19
HETATM   19  C   UNL     1     -41.071  54.358 -52.388  1.00  0.00    -0.002 A 
HETATM   20  C   UNL     1     -41.627  54.190 -53.667  1.00  0.00     0.017 A 
HETATM   21  C   UNL     1     -41.425  53.007 -54.384  1.00  0.00     0.040 A 
HETATM   22  C   UNL     1     -40.669  51.980 -53.827  1.00  0.00     0.102 A 
HETATM   23  C   UNL     1     -40.121  52.133 -52.551  1.00  0.00     0.103 A 
HETATM   24  O   UNL     1     -40.506  50.851 -54.582  1.00  0.00    -0.346 OA
HETATM   25  C   UNL     1     -40.289  53.328 -51.851  1.00  0.00     0.053 A 
HETATM   26  O   UNL     1     -39.405  51.150 -51.916  1.00  0.00    -0.346 OA
HETATM   27  C   UNL     1     -39.551  49.883 -52.576  1.00  0.00     0.202 C 
HETATM   28  C   UNL     1     -39.435  50.039 -54.083  1.00  0.00     0.202 C 
ENDBRANCH   1  19
TORSDOF 3
ENDMDL
MODEL 9
REMARK VINA RESULT:      -7.5      1.732      2.540
REMARK  3 active torsions:
REMARK  status: ('A' for Active; 'I' for Inactive)
REMARK    1  A    between atoms: C_2  and  C_3 
REMARK    2  A    between atoms: C_8  and  C_9 
REMARK    3  A    between atoms: C_9  and  N_10 
ROOT
HETATM    1  C   UNL     1     -41.971  58.293 -54.820  1.00  0.00     0.096 A 
HETATM    2  N   UNL     1     -41.614  59.567 -54.609  1.00  0.00    -0.174 NA
HETATM    3  N   UNL     1     -40.792  59.539 -53.559  1.00  0.00    -0.288 N 
HETATM    4  H   UNL     1     -40.365  60.413 -53.260  1.00  0.00     0.188 HD
HETATM    5  C   UNL     1     -40.656  58.293 -53.021  1.00  0.00     0.120 A 
HETATM    6  C   UNL     1     -41.424  57.445 -53.801  1.00  0.00     0.016 A 
ENDROOT
BRANCH   6   7
HETATM    7  C   UNL     1     -41.616  55.980 -53.630  1.00  0.00     0.277 C 
BRANCH   7   8
HETATM    8  N   UNL     1     -42.916  55.606 -52.949  1.00  0.00    -0.067 N 
HETATM    9  H   UNL     1     -43.624  55.813 -53.664  1.00  0.00     0.280 HD
HETATM   10  C   UNL     1     -43.090  54.139 -52.641  1.00  0.00     0.242 C 
HETATM   11  C   UNL     1     -42.394  53.689 -51.352  1.00  0.00     0.041 C 
HETATM   12  C   UNL     1     -42.603  54.675 -50.202  1.00  0.00     0.128 C 
HETATM   13  C   UNL     1     -40.930  53.248 -51.531  1.00  0.00     0.011 C 
HETATM   14  O   UNL     1     -41.827  54.308 -49.074  1.00  0.00    -0.385 OA
HETATM   15  C   UNL     1     -42.424  56.145 -50.574  1.00  0.00     0.060 C 
HETATM   16  C   UNL     1     -40.415  54.226 -49.246  1.00  0.00     0.168 C 
HETATM   17  C   UNL     1     -39.942  54.027 -50.680  1.00  0.00     0.027 C 
HETATM   18  C   UNL     1     -43.266  56.494 -51.783  1.00  0.00     0.237 C 
ENDBRANCH   7   8
ENDBRANCH   6   7
BRANCH   1  19
HETATM   19  C   UNL     1     -42.838  57.950 -55.950  1.00  0.00    -0.002 A 
HETATM   20  C   UNL     1     -44.151  58.445 -55.998  1.00  0.00     0.017 A 
HETATM   21  C   UNL     1     -45.004  58.106 -57.053  1.00  0.00     0.040 A 
HETATM   22  C   UNL     1     -44.552  57.267 -58.066  1.00  0.00     0.102 A 
HETATM   23  C   UNL     1     -43.251  56.760 -58.022  1.00  0.00     0.103 A 
HETATM   24  O   UNL     1     -45.434  56.978 -59.072  1.00  0.00    -0.346 OA
HETATM   25  C   UNL     1     -42.387  57.129 -56.991  1.00  0.00     0.053 A 
HETATM   26  O   UNL     1     -42.748  55.891 -58.957  1.00  0.00    -0.346 OA
HETATM   27  C   UNL     1     -43.789  55.346 -59.782  1.00  0.00     0.202 C 
HETATM   28  C   UNL     1     -44.763  56.430 -60.214  1.00  0.00     0.202 C 
ENDBRANCH   1  19
TORSDOF 3
ENDMDL
MODEL 10
REMARK VINA RESULT:      -7.4      1.500      6.595
REMARK  3 active torsions:
REMARK  status: ('A' for Active; 'I' for Inactive)
REMARK    1  A    between atoms: C_2  and  C_3 
REMARK    2  A    between atoms: C_8  and  C_9 
REMARK    3  A    between atoms: C_9  and  N_10 
ROOT
HETATM    1  C   UNL     1     -42.368  58.518 -55.476  1.00  0.00     0.096 A 
HETATM    2  N   UNL     1     -41.585  59.523 -55.060  1.00  0.00    -0.174 NA
HETATM    3  N   UNL     1     -42.146  60.635 -55.537  1.00  0.00    -0.288 N 
HETATM    4  H   UNL     1     -41.726  61.529 -55.292  1.00  0.00     0.188 HD
HETATM    5  C   UNL     1     -43.235  60.389 -56.322  1.00  0.00     0.120 A 
HETATM    6  C   UNL     1     -43.409  59.015 -56.329  1.00  0.00     0.016 A 
ENDROOT
BRANCH   6   7
HETATM    7  C   UNL     1     -44.457  58.238 -57.042  1.00  0.00     0.277 C 
BRANCH   7   8
HETATM    8  N   UNL     1     -44.899  58.857 -58.350  1.00  0.00    -0.067 N 
HETATM    9  H   UNL     1     -44.898  59.864 -58.147  1.00  0.00     0.280 HD
HETATM   10  C   UNL     1     -43.940  58.693 -59.505  1.00  0.00     0.242 C 
HETATM   11  C   UNL     1     -44.050  57.339 -60.215  1.00  0.00     0.041 C 
HETATM   12  C   UNL     1     -45.502  56.920 -60.446  1.00  0.00     0.128 C 
HETATM   13  C   UNL     1     -43.172  56.226 -59.618  1.00  0.00     0.011 C 
HETATM   14  O   UNL     1     -45.571  55.603 -60.967  1.00  0.00    -0.385 OA
HETATM   15  C   UNL     1     -46.429  57.118 -59.249  1.00  0.00     0.060 C 
HETATM   16  C   UNL     1     -44.998  54.557 -60.187  1.00  0.00     0.168 C 
HETATM   17  C   UNL     1     -43.948  54.997 -59.176  1.00  0.00     0.027 C 
HETATM   18  C   UNL     1     -46.322  58.534 -58.723  1.00  0.00     0.237 C 
ENDBRANCH   7   8
ENDBRANCH   6   7
BRANCH   1  19
HETATM   19  C   UNL     1     -42.071  57.140 -55.077  1.00  0.00    -0.002 A 
HETATM   20  C   UNL     1     -42.197  56.100 -56.012  1.00  0.00     0.017 A 
HETATM   21  C   UNL     1     -41.946  54.775 -55.645  1.00  0.00     0.040 A 
HETATM   22  C   UNL     1     -41.568  54.479 -54.338  1.00  0.00     0.102 A 
HETATM   23  C   UNL     1     -41.451  55.505 -53.398  1.00  0.00     0.103 A 
HETATM   24  O   UNL     1     -41.332  53.163 -54.045  1.00  0.00    -0.346 OA
HETATM   25  C   UNL     1     -41.664  56.831 -53.774  1.00  0.00     0.053 A 
HETATM   26  O   UNL     1     -41.130  55.288 -52.082  1.00  0.00    -0.346 OA
HETATM   27  C   UNL     1     -41.233  53.898 -51.737  1.00  0.00     0.202 C 
HETATM   28  C   UNL     1     -40.611  53.024 -52.814  1.00  0.00     0.202 C 
ENDBRANCH   1  19
TORSDOF 3
ENDMDL
