MODEL 1
REMARK VINA RESULT:      -7.3      0.000      0.000
REMARK  7 active torsions:
REMARK  status: ('A' for Active; 'I' for Inactive)
REMARK    1  A    between atoms: C_5  and  N_6 
REMARK    2  A    between atoms: N_6  and  C_9 
REMARK    3  A    between atoms: C_9  and  C_10 
REMARK    4  A    between atoms: C_10  and  C_11 
REMARK    5  A    between atoms: C_10  and  C_13 
REMARK    6  A    between atoms: C_11  and  O_12 
REMARK    7  A    between atoms: C_13  and  C_14 
ROOT
HETATM    1  N   UNL     1     -43.404  55.578 -53.065  1.00  0.00    -0.066 N 
HETATM    2  H   UNL     1     -43.837  54.844 -53.660  1.00  0.00     0.278 HD
HETATM    3  H   UNL     1     -43.616  55.298 -52.088  1.00  0.00     0.278 HD
ENDROOT
BRANCH   1   4
HETATM    4  C   UNL     1     -41.935  55.584 -53.245  1.00  0.00     0.220 C 
HETATM    5  C   UNL     1     -41.235  55.061 -52.029  1.00  0.00    -0.021 A 
HETATM    6  C   UNL     1     -40.852  53.715 -52.190  1.00  0.00    -0.040 A 
HETATM    7  C   UNL     1     -41.007  55.751 -50.846  1.00  0.00     0.010 A 
HETATM    8  C   UNL     1     -40.269  53.023 -51.129  1.00  0.00    -0.055 A 
HETATM    9  C   UNL     1     -41.249  53.231 -53.564  1.00  0.00     0.018 C 
HETATM   10  C   UNL     1     -39.883  51.576 -51.208  1.00  0.00     0.049 C 
HETATM   11  C   UNL     1     -40.020  53.733 -49.942  1.00  0.00     0.007 A 
HETATM   12  C   UNL     1     -40.382  55.079 -49.802  1.00  0.00     0.001 A 
HETATM   13  C   UNL     1     -41.497  54.567 -54.302  1.00  0.00     0.047 C 
HETATM   14  C   UNL     1     -40.229  52.391 -54.322  1.00  0.00     0.015 C 
ENDBRANCH   1   4
BRANCH   1  15
HETATM   15  C   UNL     1     -44.116  56.859 -53.315  1.00  0.00     0.240 C 
BRANCH  15  16
HETATM   16  C   UNL     1     -43.784  57.893 -52.221  1.00  0.00     0.040 C 
BRANCH  16  17
HETATM   17  C   UNL     1     -45.079  58.420 -51.583  1.00  0.00     0.170 C 
BRANCH  17  18
HETATM   18  O   UNL     1     -45.155  57.968 -50.229  1.00  0.00    -0.400 OA
HETATM   19  H   UNL     1     -45.637  58.664 -49.735  1.00  0.00     0.209 HD
ENDBRANCH  17  18
ENDBRANCH  16  17
BRANCH  16  20
HETATM   20  C   UNL     1     -42.935  59.088 -52.707  1.00  0.00     0.067 C 
BRANCH  20  21
HETATM   21  C   UNL     1     -41.596  59.189 -52.028  1.00  0.00     0.034 A 
HETATM   22  N   UNL     1     -40.506  59.014 -52.826  1.00  0.00    -0.266 NA
HETATM   23  C   UNL     1     -39.294  59.135 -52.226  1.00  0.00     0.117 A 
HETATM   24  C   UNL     1     -39.118  59.375 -50.875  1.00  0.00     0.019 A 
HETATM   25  C   UNL     1     -40.247  59.516 -50.079  1.00  0.00     0.003 A 
HETATM   26  C   UNL     1     -41.508  59.425 -50.660  1.00  0.00     0.027 A 
ENDBRANCH  20  21
ENDBRANCH  16  20
ENDBRANCH  15  16
ENDBRANCH   1  15
TORSDOF 7
ENDMDL
MODEL 2
REMARK VINA RESULT:      -7.2      2.543      3.736
REMARK  7 active torsions:
REMARK  status: ('A' for Active; 'I' for Inactive)
REMARK    1  A    between atoms: C_5  and  N_6 
REMARK    2  A    between atoms: N_6  and  C_9 
REMARK    3  A    between atoms: C_9  and  C_10 
REMARK    4  A    between atoms: C_10  and  C_11 
REMARK    5  A    between atoms: C_10  and  C_13 
REMARK    6  A    between atoms: C_11  and  O_12 
REMARK    7  A    between atoms: C_13  and  C_14 
ROOT
HETATM    1  N   UNL     1     -41.664  54.860 -55.537  1.00  0.00    -0.066 N 
HETATM    2  H   UNL     1     -41.304  55.606 -54.910  1.00  0.00     0.278 HD
HETATM    3  H   UNL     1     -40.826  54.472 -56.010  1.00  0.00     0.278 HD
ENDROOT
BRANCH   1   4
HETATM    4  C   UNL     1     -42.298  53.782 -54.742  1.00  0.00     0.220 C 
HETATM    5  C   UNL     1     -41.281  53.020 -53.951  1.00  0.00    -0.021 A 
HETATM    6  C   UNL     1     -41.242  53.445 -52.609  1.00  0.00    -0.040 A 
HETATM    7  C   UNL     1     -40.423  52.041 -54.435  1.00  0.00     0.010 A 
HETATM    8  C   UNL     1     -40.293  52.917 -51.736  1.00  0.00    -0.055 A 
HETATM    9  C   UNL     1     -42.269  54.530 -52.386  1.00  0.00     0.018 C 
HETATM   10  C   UNL     1     -40.155  53.358 -50.309  1.00  0.00     0.049 C 
HETATM   11  C   UNL     1     -39.442  51.910 -52.225  1.00  0.00     0.007 A 
HETATM   12  C   UNL     1     -39.506  51.476 -53.555  1.00  0.00     0.001 A 
HETATM   13  C   UNL     1     -43.176  54.355 -53.627  1.00  0.00     0.047 C 
HETATM   14  C   UNL     1     -43.099  54.443 -51.111  1.00  0.00     0.015 C 
ENDBRANCH   1   4
BRANCH   1  15
HETATM   15  C   UNL     1     -42.501  55.499 -56.586  1.00  0.00     0.240 C 
BRANCH  15  16
HETATM   16  C   UNL     1     -43.136  56.803 -56.062  1.00  0.00     0.040 C 
BRANCH  16  17
HETATM   17  C   UNL     1     -43.979  57.460 -57.166  1.00  0.00     0.170 C 
BRANCH  17  18
HETATM   18  O   UNL     1     -44.408  56.457 -58.091  1.00  0.00    -0.400 OA
HETATM   19  H   UNL     1     -44.209  55.594 -57.670  1.00  0.00     0.209 HD
ENDBRANCH  17  18
ENDBRANCH  16  17
BRANCH  16  20
HETATM   20  C   UNL     1     -42.122  57.833 -55.518  1.00  0.00     0.067 C 
BRANCH  20  21
HETATM   21  C   UNL     1     -42.109  57.926 -54.015  1.00  0.00     0.034 A 
HETATM   22  N   UNL     1     -43.322  58.075 -53.415  1.00  0.00    -0.266 NA
HETATM   23  C   UNL     1     -43.321  58.128 -52.058  1.00  0.00     0.117 A 
HETATM   24  C   UNL     1     -42.176  58.085 -51.282  1.00  0.00     0.019 A 
HETATM   25  C   UNL     1     -40.951  57.965 -51.923  1.00  0.00     0.003 A 
HETATM   26  C   UNL     1     -40.910  57.881 -53.311  1.00  0.00     0.027 A 
ENDBRANCH  20  21
ENDBRANCH  16  20
ENDBRANCH  15  16
ENDBRANCH   1  15
TORSDOF 7
ENDMDL
MODEL 3
REMARK VINA RESULT:      -7.2      1.514      1.827
REMARK  7 active torsions:
REMARK  status: ('A' for Active; 'I' for Inactive)
REMARK    1  A    between atoms: C_5  and  N_6 
REMARK    2  A    between atoms: N_6  and  C_9 
REMARK    3  A    between atoms: C_9  and  C_10 
REMARK    4  A    between atoms: C_10  and  C_11 
REMARK    5  A    between atoms: C_10  and  C_13 
REMARK    6  A    between atoms: C_11  and  O_12 
REMARK    7  A    between atoms: C_13  and  C_14 
ROOT
HETATM    1  N   UNL     1     -42.310  54.953 -54.038  1.00  0.00    -0.066 N 
HETATM    2  H   UNL     1     -42.624  54.137 -54.599  1.00  0.00     0.278 HD
HETATM    3  H   UNL     1     -42.878  54.923 -53.170  1.00  0.00     0.278 HD
ENDROOT
BRANCH   1   4
HETATM    4  C   UNL     1     -40.882  54.807 -53.672  1.00  0.00     0.220 C 
HETATM    5  C   UNL     1     -40.723  54.462 -52.225  1.00  0.00    -0.021 A 
HETATM    6  C   UNL     1     -40.503  53.083 -52.041  1.00  0.00    -0.040 A 
HETATM    7  C   UNL     1     -40.820  55.337 -51.151  1.00  0.00     0.010 A 
HETATM    8  C   UNL     1     -40.423  52.553 -50.754  1.00  0.00    -0.055 A 
HETATM    9  C   UNL     1     -40.469  52.387 -53.382  1.00  0.00     0.018 C 
HETATM   10  C   UNL     1     -40.243  51.089 -50.479  1.00  0.00     0.049 C 
HETATM   11  C   UNL     1     -40.499  53.447 -49.672  1.00  0.00     0.007 A 
HETATM   12  C   UNL     1     -40.692  54.821 -49.866  1.00  0.00     0.001 A 
HETATM   13  C   UNL     1     -40.257  53.581 -54.343  1.00  0.00     0.047 C 
HETATM   14  C   UNL     1     -39.380  51.343 -53.591  1.00  0.00     0.015 C 
ENDBRANCH   1   4
BRANCH   1  15
HETATM   15  C   UNL     1     -42.692  56.192 -54.766  1.00  0.00     0.240 C 
BRANCH  15  16
HETATM   16  C   UNL     1     -43.242  57.252 -53.791  1.00  0.00     0.040 C 
BRANCH  16  17
HETATM   17  C   UNL     1     -44.750  57.442 -54.014  1.00  0.00     0.170 C 
BRANCH  17  18
HETATM   18  O   UNL     1     -45.316  56.212 -54.476  1.00  0.00    -0.400 OA
HETATM   19  H   UNL     1     -44.781  55.939 -55.251  1.00  0.00     0.209 HD
ENDBRANCH  17  18
ENDBRANCH  16  17
BRANCH  16  20
HETATM   20  C   UNL     1     -42.540  58.625 -53.879  1.00  0.00     0.067 C 
BRANCH  20  21
HETATM   21  C   UNL     1     -41.754  58.978 -52.644  1.00  0.00     0.034 A 
HETATM   22  N   UNL     1     -42.452  59.585 -51.644  1.00  0.00    -0.266 NA
HETATM   23  C   UNL     1     -41.757  59.877 -50.515  1.00  0.00     0.117 A 
HETATM   24  C   UNL     1     -40.403  59.637 -50.354  1.00  0.00     0.019 A 
HETATM   25  C   UNL     1     -39.711  59.047 -51.403  1.00  0.00     0.003 A 
HETATM   26  C   UNL     1     -40.392  58.708 -52.567  1.00  0.00     0.027 A 
ENDBRANCH  20  21
ENDBRANCH  16  20
ENDBRANCH  15  16
ENDBRANCH   1  15
TORSDOF 7
ENDMDL
MODEL 4
REMARK VINA RESULT:      -7.0      4.543      8.072
REMARK  7 active torsions:
REMARK  status: ('A' for Active; 'I' for Inactive)
REMARK    1  A    between atoms: C_5  and  N_6 
REMARK    2  A    between atoms: N_6  and  C_9 
REMARK    3  A    between atoms: C_9  and  C_10 
REMARK    4  A    between atoms: C_10  and  C_11 
REMARK    5  A    between atoms: C_10  and  C_13 
REMARK    6  A    between atoms: C_11  and  O_12 
REMARK    7  A    between atoms: C_13  and  C_14 
ROOT
HETATM    1  N   UNL     1     -43.105  55.251 -56.719  1.00  0.00    -0.066 N 
HETATM    2  H   UNL     1     -44.108  55.329 -56.462  1.00  0.00     0.278 HD
HETATM    3  H   UNL     1     -42.949  54.242 -56.911  1.00  0.00     0.278 HD
ENDROOT
BRANCH   1   4
HETATM    4  C   UNL     1     -42.830  56.014 -57.958  1.00  0.00     0.220 C 
HETATM    5  C   UNL     1     -43.952  55.882 -58.940  1.00  0.00    -0.021 A 
HETATM    6  C   UNL     1     -44.805  57.002 -58.908  1.00  0.00    -0.040 A 
HETATM    7  C   UNL     1     -44.202  54.795 -59.767  1.00  0.00     0.010 A 
HETATM    8  C   UNL     1     -45.961  57.023 -59.686  1.00  0.00    -0.055 A 
HETATM    9  C   UNL     1     -44.293  58.006 -57.902  1.00  0.00     0.018 C 
HETATM   10  C   UNL     1     -46.943  58.157 -59.667  1.00  0.00     0.049 C 
HETATM   11  C   UNL     1     -46.196  55.930 -60.539  1.00  0.00     0.007 A 
HETATM   12  C   UNL     1     -45.328  54.832 -60.581  1.00  0.00     0.001 A 
HETATM   13  C   UNL     1     -42.838  57.522 -57.697  1.00  0.00     0.047 C 
HETATM   14  C   UNL     1     -44.308  59.471 -58.318  1.00  0.00     0.015 C 
ENDBRANCH   1   4
BRANCH   1  15
HETATM   15  C   UNL     1     -42.290  55.597 -55.524  1.00  0.00     0.240 C 
BRANCH  15  16
HETATM   16  C   UNL     1     -42.178  54.391 -54.570  1.00  0.00     0.040 C 
BRANCH  16  17
HETATM   17  C   UNL     1     -43.338  54.404 -53.564  1.00  0.00     0.170 C 
BRANCH  17  18
HETATM   18  O   UNL     1     -44.535  54.815 -54.230  1.00  0.00    -0.400 OA
HETATM   19  H   UNL     1     -44.279  55.009 -55.157  1.00  0.00     0.209 HD
ENDBRANCH  17  18
ENDBRANCH  16  17
BRANCH  16  20
HETATM   20  C   UNL     1     -40.841  54.307 -53.801  1.00  0.00     0.067 C 
BRANCH  20  21
HETATM   21  C   UNL     1     -40.411  52.896 -53.496  1.00  0.00     0.034 A 
HETATM   22  N   UNL     1     -39.964  52.669 -52.230  1.00  0.00    -0.266 NA
HETATM   23  C   UNL     1     -39.604  51.392 -51.939  1.00  0.00     0.117 A 
HETATM   24  C   UNL     1     -39.626  50.353 -52.852  1.00  0.00     0.019 A 
HETATM   25  C   UNL     1     -40.056  50.622 -54.144  1.00  0.00     0.003 A 
HETATM   26  C   UNL     1     -40.458  51.911 -54.477  1.00  0.00     0.027 A 
ENDBRANCH  20  21
ENDBRANCH  16  20
ENDBRANCH  15  16
ENDBRANCH   1  15
TORSDOF 7
ENDMDL
MODEL 5
REMARK VINA RESULT:      -6.9      3.444      5.290
REMARK  7 active torsions:
REMARK  status: ('A' for Active; 'I' for Inactive)
REMARK    1  A    between atoms: C_5  and  N_6 
REMARK    2  A    between atoms: N_6  and  C_9 
REMARK    3  A    between atoms: C_9  and  C_10 
REMARK    4  A    between atoms: C_10  and  C_11 
REMARK    5  A    between atoms: C_10  and  C_13 
REMARK    6  A    between atoms: C_11  and  O_12 
REMARK    7  A    between atoms: C_13  and  C_14 
ROOT
HETATM    1  N   UNL     1     -42.600  54.502 -54.496  1.00  0.00    -0.066 N 
HETATM    2  H   UNL     1     -42.944  53.522 -54.485  1.00  0.00     0.278 HD
HETATM    3  H   UNL     1     -43.128  54.986 -53.745  1.00  0.00     0.278 HD
ENDROOT
BRANCH   1   4
HETATM    4  C   UNL     1     -41.158  54.545 -54.161  1.00  0.00     0.220 C 
HETATM    5  C   UNL     1     -40.935  54.360 -52.693  1.00  0.00    -0.021 A 
HETATM    6  C   UNL     1     -40.562  53.036 -52.387  1.00  0.00    -0.040 A 
HETATM    7  C   UNL     1     -41.105  55.320 -51.703  1.00  0.00     0.010 A 
HETATM    8  C   UNL     1     -40.400  52.645 -51.059  1.00  0.00    -0.055 A 
HETATM    9  C   UNL     1     -40.479  52.222 -53.657  1.00  0.00     0.018 C 
HETATM   10  C   UNL     1     -40.056  51.242 -50.653  1.00  0.00     0.049 C 
HETATM   11  C   UNL     1     -40.551  53.626 -50.064  1.00  0.00     0.007 A 
HETATM   12  C   UNL     1     -40.897  54.946 -50.381  1.00  0.00     0.001 A 
HETATM   13  C   UNL     1     -40.417  53.333 -54.731  1.00  0.00     0.047 C 
HETATM   14  C   UNL     1     -39.287  51.284 -53.799  1.00  0.00     0.015 C 
ENDBRANCH   1   4
BRANCH   1  15
HETATM   15  C   UNL     1     -43.008  55.124 -55.784  1.00  0.00     0.240 C 
BRANCH  15  16
HETATM   16  C   UNL     1     -42.877  56.658 -55.717  1.00  0.00     0.040 C 
BRANCH  16  17
HETATM   17  C   UNL     1     -44.115  57.264 -55.038  1.00  0.00     0.170 C 
BRANCH  17  18
HETATM   18  O   UNL     1     -44.974  56.209 -54.597  1.00  0.00    -0.400 OA
HETATM   19  H   UNL     1     -44.441  55.387 -54.639  1.00  0.00     0.209 HD
ENDBRANCH  17  18
ENDBRANCH  16  17
BRANCH  16  20
HETATM   20  C   UNL     1     -42.665  57.342 -57.086  1.00  0.00     0.067 C 
BRANCH  20  21
HETATM   21  C   UNL     1     -43.553  56.797 -58.173  1.00  0.00     0.034 A 
HETATM   22  N   UNL     1     -44.776  57.384 -58.297  1.00  0.00    -0.266 NA
HETATM   23  C   UNL     1     -45.569  56.919 -59.296  1.00  0.00     0.117 A 
HETATM   24  C   UNL     1     -45.224  55.877 -60.139  1.00  0.00     0.019 A 
HETATM   25  C   UNL     1     -43.984  55.275 -59.968  1.00  0.00     0.003 A 
HETATM   26  C   UNL     1     -43.131  55.740 -58.973  1.00  0.00     0.027 A 
ENDBRANCH  20  21
ENDBRANCH  16  20
ENDBRANCH  15  16
ENDBRANCH   1  15
TORSDOF 7
ENDMDL
MODEL 6
REMARK VINA RESULT:      -6.6      1.476      2.046
REMARK  7 active torsions:
REMARK  status: ('A' for Active; 'I' for Inactive)
REMARK    1  A    between atoms: C_5  and  N_6 
REMARK    2  A    between atoms: N_6  and  C_9 
REMARK    3  A    between atoms: C_9  and  C_10 
REMARK    4  A    between atoms: C_10  and  C_11 
REMARK    5  A    between atoms: C_10  and  C_13 
REMARK    6  A    between atoms: C_11  and  O_12 
REMARK    7  A    between atoms: C_13  and  C_14 
ROOT
HETATM    1  N   UNL     1     -42.921  55.619 -52.153  1.00  0.00    -0.066 N 
HETATM    2  H   UNL     1     -43.377  55.567 -53.084  1.00  0.00     0.278 HD
HETATM    3  H   UNL     1     -43.224  54.761 -51.652  1.00  0.00     0.278 HD
ENDROOT
BRANCH   1   4
HETATM    4  C   UNL     1     -41.448  55.582 -52.298  1.00  0.00     0.220 C 
HETATM    5  C   UNL     1     -40.887  54.271 -51.843  1.00  0.00    -0.021 A 
HETATM    6  C   UNL     1     -40.621  53.414 -52.929  1.00  0.00    -0.040 A 
HETATM    7  C   UNL     1     -40.681  53.872 -50.528  1.00  0.00     0.010 A 
HETATM    8  C   UNL     1     -40.181  52.112 -52.700  1.00  0.00    -0.055 A 
HETATM    9  C   UNL     1     -40.963  54.111 -54.225  1.00  0.00     0.018 C 
HETATM   10  C   UNL     1     -39.927  51.126 -53.802  1.00  0.00     0.049 C 
HETATM   11  C   UNL     1     -39.952  51.722 -51.369  1.00  0.00     0.007 A 
HETATM   12  C   UNL     1     -40.196  52.590 -50.297  1.00  0.00     0.001 A 
HETATM   13  C   UNL     1     -41.032  55.588 -53.772  1.00  0.00     0.047 C 
HETATM   14  C   UNL     1     -39.973  53.958 -55.373  1.00  0.00     0.015 C 
ENDBRANCH   1   4
BRANCH   1  15
HETATM   15  C   UNL     1     -43.493  56.778 -51.419  1.00  0.00     0.240 C 
BRANCH  15  16
HETATM   16  C   UNL     1     -44.260  57.709 -52.378  1.00  0.00     0.040 C 
BRANCH  16  17
HETATM   17  C   UNL     1     -44.507  56.999 -53.718  1.00  0.00     0.170 C 
BRANCH  17  18
HETATM   18  O   UNL     1     -43.674  57.585 -54.723  1.00  0.00    -0.400 OA
HETATM   19  H   UNL     1     -42.750  57.439 -54.431  1.00  0.00     0.209 HD
ENDBRANCH  17  18
ENDBRANCH  16  17
BRANCH  16  20
HETATM   20  C   UNL     1     -43.567  59.064 -52.643  1.00  0.00     0.067 C 
BRANCH  20  21
HETATM   21  C   UNL     1     -42.218  59.188 -51.986  1.00  0.00     0.034 A 
HETATM   22  N   UNL     1     -42.223  59.572 -50.679  1.00  0.00    -0.266 NA
HETATM   23  C   UNL     1     -41.012  59.655 -50.071  1.00  0.00     0.117 A 
HETATM   24  C   UNL     1     -39.807  59.419 -50.708  1.00  0.00     0.019 A 
HETATM   25  C   UNL     1     -39.831  59.060 -52.050  1.00  0.00     0.003 A 
HETATM   26  C   UNL     1     -41.053  58.938 -52.703  1.00  0.00     0.027 A 
ENDBRANCH  20  21
ENDBRANCH  16  20
ENDBRANCH  15  16
ENDBRANCH   1  15
TORSDOF 7
ENDMDL
MODEL 7
REMARK VINA RESULT:      -6.5      3.667      5.573
REMARK  7 active torsions:
REMARK  status: ('A' for Active; 'I' for Inactive)
REMARK    1  A    between atoms: C_5  and  N_6 
REMARK    2  A    between atoms: N_6  and  C_9 
REMARK    3  A    between atoms: C_9  and  C_10 
REMARK    4  A    between atoms: C_10  and  C_11 
REMARK    5  A    between atoms: C_10  and  C_13 
REMARK    6  A    between atoms: C_11  and  O_12 
REMARK    7  A    between atoms: C_13  and  C_14 
ROOT
HETATM    1  N   UNL     1     -42.056  55.937 -55.044  1.00  0.00    -0.066 N 
HETATM    2  H   UNL     1     -41.115  56.043 -54.616  1.00  0.00     0.278 HD
HETATM    3  H   UNL     1     -41.888  55.898 -56.068  1.00  0.00     0.278 HD
ENDROOT
BRANCH   1   4
HETATM    4  C   UNL     1     -42.674  54.660 -54.619  1.00  0.00     0.220 C 
HETATM    5  C   UNL     1     -41.655  53.728 -54.041  1.00  0.00    -0.021 A 
HETATM    6  C   UNL     1     -41.671  53.749 -52.633  1.00  0.00    -0.040 A 
HETATM    7  C   UNL     1     -40.747  52.953 -54.751  1.00  0.00     0.010 A 
HETATM    8  C   UNL     1     -40.731  53.015 -51.912  1.00  0.00    -0.055 A 
HETATM    9  C   UNL     1     -42.743  54.696 -52.148  1.00  0.00     0.018 C 
HETATM   10  C   UNL     1     -40.652  53.029 -50.414  1.00  0.00     0.049 C 
HETATM   11  C   UNL     1     -39.830  52.214 -52.636  1.00  0.00     0.007 A 
HETATM   12  C   UNL     1     -39.838  52.182 -54.036  1.00  0.00     0.001 A 
HETATM   13  C   UNL     1     -43.606  54.863 -53.421  1.00  0.00     0.047 C 
HETATM   14  C   UNL     1     -43.607  54.224 -50.985  1.00  0.00     0.015 C 
ENDBRANCH   1   4
BRANCH   1  15
HETATM   15  C   UNL     1     -42.830  57.178 -54.777  1.00  0.00     0.240 C 
BRANCH  15  16
HETATM   16  C   UNL     1     -42.577  58.229 -55.877  1.00  0.00     0.040 C 
BRANCH  16  17
HETATM   17  C   UNL     1     -42.135  59.557 -55.245  1.00  0.00     0.170 C 
BRANCH  17  18
HETATM   18  O   UNL     1     -41.430  60.331 -56.219  1.00  0.00    -0.400 OA
HETATM   19  H   UNL     1     -42.077  60.974 -56.579  1.00  0.00     0.209 HD
ENDBRANCH  17  18
ENDBRANCH  16  17
BRANCH  16  20
HETATM   20  C   UNL     1     -43.785  58.485 -56.804  1.00  0.00     0.067 C 
BRANCH  20  21
HETATM   21  C   UNL     1     -43.883  57.510 -57.947  1.00  0.00     0.034 A 
HETATM   22  N   UNL     1     -42.760  56.785 -58.211  1.00  0.00    -0.266 NA
HETATM   23  C   UNL     1     -42.850  55.881 -59.220  1.00  0.00     0.117 A 
HETATM   24  C   UNL     1     -43.979  55.699 -59.999  1.00  0.00     0.019 A 
HETATM   25  C   UNL     1     -45.098  56.475 -59.728  1.00  0.00     0.003 A 
HETATM   26  C   UNL     1     -45.056  57.395 -58.685  1.00  0.00     0.027 A 
ENDBRANCH  20  21
ENDBRANCH  16  20
ENDBRANCH  15  16
ENDBRANCH   1  15
TORSDOF 7
ENDMDL
MODEL 8
REMARK VINA RESULT:      -6.4     15.828     17.962
REMARK  7 active torsions:
REMARK  status: ('A' for Active; 'I' for Inactive)
REMARK    1  A    between atoms: C_5  and  N_6 
REMARK    2  A    between atoms: N_6  and  C_9 
REMARK    3  A    between atoms: C_9  and  C_10 
REMARK    4  A    between atoms: C_10  and  C_11 
REMARK    5  A    between atoms: C_10  and  C_13 
REMARK    6  A    between atoms: C_11  and  O_12 
REMARK    7  A    between atoms: C_13  and  C_14 
ROOT
HETATM    1  N   UNL     1     -35.547  40.841 -52.367  1.00  0.00    -0.066 N 
HETATM    2  H   UNL     1     -36.133  40.359 -51.658  1.00  0.00     0.278 HD
HETATM    3  H   UNL     1     -35.361  40.128 -53.099  1.00  0.00     0.278 HD
ENDROOT
BRANCH   1   4
HETATM    4  C   UNL     1     -36.296  41.961 -52.980  1.00  0.00     0.220 C 
HETATM    5  C   UNL     1     -36.115  41.989 -54.466  1.00  0.00    -0.021 A 
HETATM    6  C   UNL     1     -37.211  41.410 -55.134  1.00  0.00    -0.040 A 
HETATM    7  C   UNL     1     -35.007  42.467 -55.154  1.00  0.00     0.010 A 
HETATM    8  C   UNL     1     -37.185  41.260 -56.519  1.00  0.00    -0.055 A 
HETATM    9  C   UNL     1     -38.246  40.964 -54.128  1.00  0.00     0.018 C 
HETATM   10  C   UNL     1     -38.291  40.606 -57.294  1.00  0.00     0.049 C 
HETATM   11  C   UNL     1     -36.072  41.766 -57.213  1.00  0.00     0.007 A 
HETATM   12  C   UNL     1     -34.998  42.363 -56.540  1.00  0.00     0.001 A 
HETATM   13  C   UNL     1     -37.808  41.748 -52.868  1.00  0.00     0.047 C 
HETATM   14  C   UNL     1     -39.703  41.266 -54.456  1.00  0.00     0.015 C 
ENDBRANCH   1   4
BRANCH   1  15
HETATM   15  C   UNL     1     -34.239  41.172 -51.741  1.00  0.00     0.240 C 
BRANCH  15  16
HETATM   16  C   UNL     1     -33.251  39.998 -51.883  1.00  0.00     0.040 C 
BRANCH  16  17
HETATM   17  C   UNL     1     -32.639  39.655 -50.516  1.00  0.00     0.170 C 
BRANCH  17  18
HETATM   18  O   UNL     1     -31.288  40.123 -50.474  1.00  0.00    -0.400 OA
HETATM   19  H   UNL     1     -31.136  40.596 -51.319  1.00  0.00     0.209 HD
ENDBRANCH  17  18
ENDBRANCH  16  17
BRANCH  16  20
HETATM   20  C   UNL     1     -32.114  40.239 -52.901  1.00  0.00     0.067 C 
BRANCH  20  21
HETATM   21  C   UNL     1     -32.489  39.884 -54.315  1.00  0.00     0.034 A 
HETATM   22  N   UNL     1     -31.717  40.433 -55.294  1.00  0.00    -0.266 NA
HETATM   23  C   UNL     1     -32.030  40.092 -56.570  1.00  0.00     0.117 A 
HETATM   24  C   UNL     1     -33.092  39.274 -56.917  1.00  0.00     0.019 A 
HETATM   25  C   UNL     1     -33.881  38.755 -55.899  1.00  0.00     0.003 A 
HETATM   26  C   UNL     1     -33.578  39.059 -54.576  1.00  0.00     0.027 A 
ENDBRANCH  20  21
ENDBRANCH  16  20
ENDBRANCH  15  16
ENDBRANCH   1  15
TORSDOF 7
ENDMDL
MODEL 9
REMARK VINA RESULT:      -6.3      3.843      5.178
REMARK  7 active torsions:
REMARK  status: ('A' for Active; 'I' for Inactive)
REMARK    1  A    between atoms: C_5  and  N_6 
REMARK    2  A    between atoms: N_6  and  C_9 
REMARK    3  A    between atoms: C_9  and  C_10 
REMARK    4  A    between atoms: C_10  and  C_11 
REMARK    5  A    between atoms: C_10  and  C_13 
REMARK    6  A    between atoms: C_11  and  O_12 
REMARK    7  A    between atoms: C_13  and  C_14 
ROOT
HETATM    1  N   UNL     1     -41.482  54.965 -55.507  1.00  0.00    -0.066 N 
HETATM    2  H   UNL     1     -40.475  54.968 -55.253  1.00  0.00     0.278 HD
HETATM    3  H   UNL     1     -41.508  54.745 -56.522  1.00  0.00     0.278 HD
ENDROOT
BRANCH   1   4
HETATM    4  C   UNL     1     -42.193  53.892 -54.775  1.00  0.00     0.220 C 
HETATM    5  C   UNL     1     -41.241  53.046 -53.989  1.00  0.00    -0.021 A 
HETATM    6  C   UNL     1     -41.219  53.415 -52.629  1.00  0.00    -0.040 A 
HETATM    7  C   UNL     1     -40.421  52.042 -54.488  1.00  0.00     0.010 A 
HETATM    8  C   UNL     1     -40.325  52.803 -51.753  1.00  0.00    -0.055 A 
HETATM    9  C   UNL     1     -42.196  54.543 -52.390  1.00  0.00     0.018 C 
HETATM   10  C   UNL     1     -40.207  53.179 -50.306  1.00  0.00     0.049 C 
HETATM   11  C   UNL     1     -39.513  51.773 -52.260  1.00  0.00     0.007 A 
HETATM   12  C   UNL     1     -39.561  51.396 -53.608  1.00  0.00     0.001 A 
HETATM   13  C   UNL     1     -43.074  54.465 -53.662  1.00  0.00     0.047 C 
HETATM   14  C   UNL     1     -43.066  54.450 -51.143  1.00  0.00     0.015 C 
ENDBRANCH   1   4
BRANCH   1  15
HETATM   15  C   UNL     1     -42.007  56.347 -55.347  1.00  0.00     0.240 C 
BRANCH  15  16
HETATM   16  C   UNL     1     -43.273  56.554 -56.202  1.00  0.00     0.040 C 
BRANCH  16  17
HETATM   17  C   UNL     1     -42.998  56.151 -57.658  1.00  0.00     0.170 C 
BRANCH  17  18
HETATM   18  O   UNL     1     -43.684  54.931 -57.948  1.00  0.00    -0.400 OA
HETATM   19  H   UNL     1     -44.060  54.620 -57.097  1.00  0.00     0.209 HD
ENDBRANCH  17  18
ENDBRANCH  16  17
BRANCH  16  20
HETATM   20  C   UNL     1     -43.835  57.992 -56.172  1.00  0.00     0.067 C 
BRANCH  20  21
HETATM   21  C   UNL     1     -43.291  58.873 -57.264  1.00  0.00     0.034 A 
HETATM   22  N   UNL     1     -44.057  58.976 -58.386  1.00  0.00    -0.266 NA
HETATM   23  C   UNL     1     -43.587  59.794 -59.363  1.00  0.00     0.117 A 
HETATM   24  C   UNL     1     -42.382  60.471 -59.295  1.00  0.00     0.019 A 
HETATM   25  C   UNL     1     -41.607  60.321 -58.153  1.00  0.00     0.003 A 
HETATM   26  C   UNL     1     -42.065  59.513 -57.117  1.00  0.00     0.027 A 
ENDBRANCH  20  21
ENDBRANCH  16  20
ENDBRANCH  15  16
ENDBRANCH   1  15
TORSDOF 7
ENDMDL
MODEL 10
REMARK VINA RESULT:      -6.3     15.649     17.819
REMARK  7 active torsions:
REMARK  status: ('A' for Active; 'I' for Inactive)
REMARK    1  A    between atoms: C_5  and  N_6 
REMARK    2  A    between atoms: N_6  and  C_9 
REMARK    3  A    between atoms: C_9  and  C_10 
REMARK    4  A    between atoms: C_10  and  C_11 
REMARK    5  A    between atoms: C_10  and  C_13 
REMARK    6  A    between atoms: C_11  and  O_12 
REMARK    7  A    between atoms: C_13  and  C_14 
ROOT
HETATM    1  N   UNL     1     -33.618  41.044 -54.572  1.00  0.00    -0.066 N 
HETATM    2  H   UNL     1     -33.903  41.679 -53.801  1.00  0.00     0.278 HD
HETATM    3  H   UNL     1     -32.734  41.444 -54.942  1.00  0.00     0.278 HD
ENDROOT
BRANCH   1   4
HETATM    4  C   UNL     1     -33.338  39.689 -54.046  1.00  0.00     0.220 C 
HETATM    5  C   UNL     1     -33.062  39.722 -52.575  1.00  0.00    -0.021 A 
HETATM    6  C   UNL     1     -34.195  39.349 -51.825  1.00  0.00    -0.040 A 
HETATM    7  C   UNL     1     -31.875  40.109 -51.966  1.00  0.00     0.010 A 
HETATM    8  C   UNL     1     -34.161  39.409 -50.433  1.00  0.00    -0.055 A 
HETATM    9  C   UNL     1     -35.333  39.004 -52.756  1.00  0.00     0.018 C 
HETATM   10  C   UNL     1     -35.343  39.079 -49.569  1.00  0.00     0.049 C 
HETATM   11  C   UNL     1     -32.951  39.779 -49.822  1.00  0.00     0.007 A 
HETATM   12  C   UNL     1     -31.822  40.123 -50.577  1.00  0.00     0.001 A 
HETATM   13  C   UNL     1     -34.586  38.803 -54.095  1.00  0.00     0.047 C 
HETATM   14  C   UNL     1     -36.151  37.764 -52.417  1.00  0.00     0.015 C 
ENDBRANCH   1   4
BRANCH   1  15
HETATM   15  C   UNL     1     -34.630  41.147 -55.657  1.00  0.00     0.240 C 
BRANCH  15  16
HETATM   16  C   UNL     1     -35.723  42.171 -55.291  1.00  0.00     0.040 C 
BRANCH  16  17
HETATM   17  C   UNL     1     -35.658  42.499 -53.791  1.00  0.00     0.170 C 
BRANCH  17  18
HETATM   18  O   UNL     1     -36.972  42.414 -53.233  1.00  0.00    -0.400 OA
HETATM   19  H   UNL     1     -36.853  42.348 -52.262  1.00  0.00     0.209 HD
ENDBRANCH  17  18
ENDBRANCH  16  17
BRANCH  16  20
HETATM   20  C   UNL     1     -37.158  41.730 -55.652  1.00  0.00     0.067 C 
BRANCH  20  21
HETATM   21  C   UNL     1     -37.313  41.304 -57.088  1.00  0.00     0.034 A 
HETATM   22  N   UNL     1     -37.715  40.019 -57.290  1.00  0.00    -0.266 NA
HETATM   23  C   UNL     1     -37.886  39.637 -58.582  1.00  0.00     0.117 A 
HETATM   24  C   UNL     1     -37.636  40.454 -59.671  1.00  0.00     0.019 A 
HETATM   25  C   UNL     1     -37.196  41.749 -59.435  1.00  0.00     0.003 A 
HETATM   26  C   UNL     1     -37.032  42.187 -58.125  1.00  0.00     0.027 A 
ENDBRANCH  20  21
ENDBRANCH  16  20
ENDBRANCH  15  16
ENDBRANCH   1  15
TORSDOF 7
ENDMDL
