MODEL 1
REMARK VINA RESULT:      -8.1      0.000      0.000
REMARK  9 active torsions:
REMARK  status: ('A' for Active; 'I' for Inactive)
REMARK    1  A    between atoms: O_2  and  C_3 
REMARK    2  A    between atoms: C_6  and  C_7 
REMARK    3  A    between atoms: C_13  and  C_14 
REMARK       I    between atoms: C_14  and  N_15 
REMARK    4  A    between atoms: N_15  and  N_16 
REMARK    5  A    between atoms: N_16  and  C_17 
REMARK    6  A    between atoms: C_17  and  N_18 
REMARK    7  A    between atoms: N_18  and  C_19 
REMARK    8  A    between atoms: C_19  and  C_20 
REMARK    9  A    between atoms: C_27  and  C_28 
ROOT
HETATM    1  C   UNL     1     -42.636  55.804 -51.861  1.00  0.00     0.118 C 
HETATM    2  N   UNL     1     -43.446  56.454 -52.888  1.00  0.00    -0.365 N 
HETATM    3  C   UNL     1     -42.895  57.374 -53.722  1.00  0.00     0.138 A 
HETATM    4  N   UNL     1     -41.705  57.979 -53.406  1.00  0.00    -0.240 N 
HETATM    5  N   UNL     1     -41.264  58.815 -54.357  1.00  0.00    -0.181 NA
HETATM    6  C   UNL     1     -42.240  58.778 -55.270  1.00  0.00     0.160 A 
HETATM    7  C   UNL     1     -43.283  57.877 -54.949  1.00  0.00     0.098 A 
HETATM    8  C   UNL     1     -40.913  57.645 -52.235  1.00  0.00     0.221 C 
HETATM    9  C   UNL     1     -41.777  56.896 -51.198  1.00  0.00     0.066 C 
HETATM   10  H   UNL     1     -44.271  55.935 -53.201  1.00  0.00     0.161 HD
ENDROOT
BRANCH   7  11
HETATM   11  C   UNL     1     -44.499  57.529 -55.661  1.00  0.00     0.275 C 
HETATM   12  N   UNL     1     -44.421  56.998 -56.942  1.00  0.00    -0.263 N 
HETATM   13  H   UNL     1     -45.331  56.667 -57.255  1.00  0.00     0.190 HD
HETATM   14  O   UNL     1     -45.617  57.697 -55.169  1.00  0.00    -0.266 OA
BRANCH  12  15
HETATM   15  N   UNL     1     -43.339  56.200 -57.367  1.00  0.00    -0.274 N 
HETATM   16  H   UNL     1     -42.601  56.032 -56.689  1.00  0.00     0.189 HD
BRANCH  15  17
HETATM   17  C   UNL     1     -43.175  55.862 -58.687  1.00  0.00     0.186 C 
HETATM   18  S   UNL     1     -44.240  54.951 -59.600  1.00  0.00    -0.040 SA
BRANCH  17  19
HETATM   19  N   UNL     1     -42.052  56.321 -59.305  1.00  0.00    -0.360 N 
HETATM   20  H   UNL     1     -41.243  55.722 -59.192  1.00  0.00     0.162 HD
BRANCH  19  21
HETATM   21  C   UNL     1     -41.918  57.428 -60.233  1.00  0.00     0.187 C 
BRANCH  21  22
HETATM   22  C   UNL     1     -42.892  58.488 -59.889  1.00  0.00     0.070 A 
HETATM   23  O   UNL     1     -42.732  59.092 -58.675  1.00  0.00    -0.325 OA
HETATM   24  C   UNL     1     -43.718  60.020 -58.564  1.00  0.00     0.142 A 
HETATM   25  C   UNL     1     -44.506  60.024 -59.691  1.00  0.00     0.027 A 
HETATM   26  C   UNL     1     -43.975  59.033 -60.549  1.00  0.00     0.036 A 
ENDBRANCH  21  22
ENDBRANCH  19  21
ENDBRANCH  17  19
ENDBRANCH  15  17
ENDBRANCH  12  15
ENDBRANCH   7  11
BRANCH   1  27
HETATM   27  C   UNL     1     -41.827  54.622 -52.389  1.00  0.00    -0.035 A 
HETATM   28  C   UNL     1     -42.025  54.075 -53.666  1.00  0.00     0.012 A 
HETATM   29  C   UNL     1     -41.253  53.001 -54.120  1.00  0.00     0.037 A 
HETATM   30  C   UNL     1     -40.265  52.442 -53.312  1.00  0.00     0.068 A 
HETATM   31  C   UNL     1     -40.081  52.942 -52.027  1.00  0.00     0.037 A 
HETATM   32  C   UNL     1     -40.860  54.013 -51.568  1.00  0.00     0.012 A 
BRANCH  30  33
HETATM   33  O   UNL     1     -39.569  51.413 -53.882  1.00  0.00    -0.356 OA
HETATM   34  C   UNL     1     -40.334  50.303 -54.337  1.00  0.00     0.210 C 
ENDBRANCH  30  33
ENDBRANCH   1  27
BRANCH   8  35
HETATM   35  C   UNL     1     -40.307  58.873 -51.592  1.00  0.00     0.409 C 
HETATM   36  F   UNL     1     -41.121  59.951 -51.654  1.00  0.00    -0.169 F 
HETATM   37  F   UNL     1     -40.093  58.632 -50.268  1.00  0.00    -0.169 F 
HETATM   38  F   UNL     1     -39.106  59.217 -52.101  1.00  0.00    -0.169 F 
ENDBRANCH   8  35
TORSDOF 9
ENDMDL
MODEL 2
REMARK VINA RESULT:      -7.9      1.593      1.933
REMARK  9 active torsions:
REMARK  status: ('A' for Active; 'I' for Inactive)
REMARK    1  A    between atoms: O_2  and  C_3 
REMARK    2  A    between atoms: C_6  and  C_7 
REMARK    3  A    between atoms: C_13  and  C_14 
REMARK       I    between atoms: C_14  and  N_15 
REMARK    4  A    between atoms: N_15  and  N_16 
REMARK    5  A    between atoms: N_16  and  C_17 
REMARK    6  A    between atoms: C_17  and  N_18 
REMARK    7  A    between atoms: N_18  and  C_19 
REMARK    8  A    between atoms: C_19  and  C_20 
REMARK    9  A    between atoms: C_27  and  C_28 
ROOT
HETATM    1  C   UNL     1     -42.754  55.659 -51.762  1.00  0.00     0.118 C 
HETATM    2  N   UNL     1     -43.535  56.345 -52.788  1.00  0.00    -0.365 N 
HETATM    3  C   UNL     1     -42.971  57.317 -53.550  1.00  0.00     0.138 A 
HETATM    4  N   UNL     1     -41.809  57.929 -53.154  1.00  0.00    -0.240 N 
HETATM    5  N   UNL     1     -41.348  58.822 -54.043  1.00  0.00    -0.181 NA
HETATM    6  C   UNL     1     -42.284  58.811 -54.998  1.00  0.00     0.160 A 
HETATM    7  C   UNL     1     -43.319  57.874 -54.767  1.00  0.00     0.098 A 
HETATM    8  C   UNL     1     -41.059  57.552 -51.969  1.00  0.00     0.221 C 
HETATM    9  C   UNL     1     -41.948  56.734 -51.008  1.00  0.00     0.066 C 
HETATM   10  H   UNL     1     -44.335  55.826 -53.162  1.00  0.00     0.161 HD
ENDROOT
BRANCH   7  11
HETATM   11  C   UNL     1     -44.497  57.537 -55.546  1.00  0.00     0.275 C 
HETATM   12  N   UNL     1     -44.370  57.249 -56.898  1.00  0.00    -0.263 N 
HETATM   13  H   UNL     1     -45.243  56.890 -57.278  1.00  0.00     0.190 HD
HETATM   14  O   UNL     1     -45.624  57.506 -55.049  1.00  0.00    -0.266 OA
BRANCH  12  15
HETATM   15  N   UNL     1     -43.215  56.649 -57.441  1.00  0.00    -0.274 N 
HETATM   16  H   UNL     1     -42.337  56.836 -56.965  1.00  0.00     0.189 HD
BRANCH  15  17
HETATM   17  C   UNL     1     -43.236  56.040 -58.671  1.00  0.00     0.186 C 
HETATM   18  S   UNL     1     -42.237  56.413 -59.960  1.00  0.00    -0.040 SA
BRANCH  17  19
HETATM   19  N   UNL     1     -44.140  55.037 -58.846  1.00  0.00    -0.360 N 
HETATM   20  H   UNL     1     -44.333  54.503 -58.007  1.00  0.00     0.162 HD
BRANCH  19  21
HETATM   21  C   UNL     1     -44.976  54.764 -59.999  1.00  0.00     0.187 C 
BRANCH  21  22
HETATM   22  C   UNL     1     -45.927  55.880 -60.201  1.00  0.00     0.070 A 
HETATM   23  O   UNL     1     -45.949  56.844 -59.235  1.00  0.00    -0.325 OA
HETATM   24  C   UNL     1     -46.878  57.760 -59.614  1.00  0.00     0.142 A 
HETATM   25  C   UNL     1     -47.449  57.401 -60.812  1.00  0.00     0.027 A 
HETATM   26  C   UNL     1     -46.836  56.185 -61.194  1.00  0.00     0.036 A 
ENDBRANCH  21  22
ENDBRANCH  19  21
ENDBRANCH  17  19
ENDBRANCH  15  17
ENDBRANCH  12  15
ENDBRANCH   7  11
BRANCH   1  27
HETATM   27  C   UNL     1     -41.897  54.523 -52.313  1.00  0.00    -0.035 A 
HETATM   28  C   UNL     1     -42.024  54.043 -53.626  1.00  0.00     0.012 A 
HETATM   29  C   UNL     1     -41.211  53.010 -54.099  1.00  0.00     0.037 A 
HETATM   30  C   UNL     1     -40.250  52.424 -53.277  1.00  0.00     0.068 A 
HETATM   31  C   UNL     1     -40.137  52.856 -51.959  1.00  0.00     0.037 A 
HETATM   32  C   UNL     1     -40.957  53.888 -51.480  1.00  0.00     0.012 A 
BRANCH  30  33
HETATM   33  O   UNL     1     -39.508  51.441 -53.868  1.00  0.00    -0.356 OA
HETATM   34  C   UNL     1     -40.210  50.274 -54.279  1.00  0.00     0.210 C 
ENDBRANCH  30  33
ENDBRANCH   1  27
BRANCH   8  35
HETATM   35  C   UNL     1     -40.508  58.758 -51.240  1.00  0.00     0.409 C 
HETATM   36  F   UNL     1     -39.294  59.137 -51.699  1.00  0.00    -0.169 F 
HETATM   37  F   UNL     1     -41.338  59.821 -51.433  1.00  0.00    -0.169 F 
HETATM   38  F   UNL     1     -40.425  58.594 -49.903  1.00  0.00    -0.169 F 
ENDBRANCH   8  35
TORSDOF 9
ENDMDL
MODEL 3
REMARK VINA RESULT:      -7.6      2.112      2.813
REMARK  9 active torsions:
REMARK  status: ('A' for Active; 'I' for Inactive)
REMARK    1  A    between atoms: O_2  and  C_3 
REMARK    2  A    between atoms: C_6  and  C_7 
REMARK    3  A    between atoms: C_13  and  C_14 
REMARK       I    between atoms: C_14  and  N_15 
REMARK    4  A    between atoms: N_15  and  N_16 
REMARK    5  A    between atoms: N_16  and  C_17 
REMARK    6  A    between atoms: C_17  and  N_18 
REMARK    7  A    between atoms: N_18  and  C_19 
REMARK    8  A    between atoms: C_19  and  C_20 
REMARK    9  A    between atoms: C_27  and  C_28 
ROOT
HETATM    1  C   UNL     1     -42.972  55.166 -52.090  1.00  0.00     0.118 C 
HETATM    2  N   UNL     1     -43.554  55.891 -53.218  1.00  0.00    -0.365 N 
HETATM    3  C   UNL     1     -42.890  56.929 -53.787  1.00  0.00     0.138 A 
HETATM    4  N   UNL     1     -41.866  57.553 -53.121  1.00  0.00    -0.240 N 
HETATM    5  N   UNL     1     -41.272  58.517 -53.841  1.00  0.00    -0.181 NA
HETATM    6  C   UNL     1     -41.988  58.537 -54.970  1.00  0.00     0.160 A 
HETATM    7  C   UNL     1     -43.003  57.553 -55.016  1.00  0.00     0.098 A 
HETATM    8  C   UNL     1     -41.362  57.125 -51.828  1.00  0.00     0.221 C 
HETATM    9  C   UNL     1     -42.392  56.216 -51.124  1.00  0.00     0.066 C 
HETATM   10  H   UNL     1     -44.233  55.371 -53.780  1.00  0.00     0.161 HD
ENDROOT
BRANCH   7  11
HETATM   11  C   UNL     1     -43.976  57.228 -56.044  1.00  0.00     0.275 C 
HETATM   12  N   UNL     1     -45.288  57.661 -55.913  1.00  0.00    -0.263 N 
HETATM   13  H   UNL     1     -45.815  57.491 -56.767  1.00  0.00     0.190 HD
HETATM   14  O   UNL     1     -43.680  56.563 -57.039  1.00  0.00    -0.266 OA
BRANCH  12  15
HETATM   15  N   UNL     1     -45.629  58.861 -55.255  1.00  0.00    -0.274 N 
HETATM   16  H   UNL     1     -46.111  58.772 -54.365  1.00  0.00     0.189 HD
BRANCH  15  17
HETATM   17  C   UNL     1     -45.526  60.076 -55.884  1.00  0.00     0.186 C 
HETATM   18  S   UNL     1     -44.594  61.366 -55.366  1.00  0.00    -0.040 SA
BRANCH  17  19
HETATM   19  N   UNL     1     -46.235  60.236 -57.035  1.00  0.00    -0.360 N 
HETATM   20  H   UNL     1     -47.224  60.400 -56.892  1.00  0.00     0.162 HD
BRANCH  19  21
HETATM   21  C   UNL     1     -45.739  60.385 -58.390  1.00  0.00     0.187 C 
BRANCH  21  22
HETATM   22  C   UNL     1     -45.636  59.057 -59.033  1.00  0.00     0.070 A 
HETATM   23  O   UNL     1     -46.609  58.151 -58.718  1.00  0.00    -0.325 OA
HETATM   24  C   UNL     1     -46.327  57.015 -59.409  1.00  0.00     0.142 A 
HETATM   25  C   UNL     1     -45.191  57.180 -60.166  1.00  0.00     0.027 A 
HETATM   26  C   UNL     1     -44.741  58.498 -59.923  1.00  0.00     0.036 A 
ENDBRANCH  21  22
ENDBRANCH  19  21
ENDBRANCH  17  19
ENDBRANCH  15  17
ENDBRANCH  12  15
ENDBRANCH   7  11
BRANCH   1  27
HETATM   27  C   UNL     1     -41.968  54.098 -52.512  1.00  0.00    -0.035 A 
HETATM   28  C   UNL     1     -41.023  53.552 -51.629  1.00  0.00     0.012 A 
HETATM   29  C   UNL     1     -40.129  52.563 -52.049  1.00  0.00     0.037 A 
HETATM   30  C   UNL     1     -40.150  52.093 -53.361  1.00  0.00     0.068 A 
HETATM   31  C   UNL     1     -41.050  52.651 -54.263  1.00  0.00     0.037 A 
HETATM   32  C   UNL     1     -41.942  53.649 -53.845  1.00  0.00     0.012 A 
BRANCH  30  33
HETATM   33  O   UNL     1     -39.239  51.112 -53.636  1.00  0.00    -0.356 OA
HETATM   34  C   UNL     1     -39.705  50.009 -54.404  1.00  0.00     0.210 C 
ENDBRANCH  30  33
ENDBRANCH   1  27
BRANCH   8  35
HETATM   35  C   UNL     1     -41.032  58.298 -50.932  1.00  0.00     0.409 C 
HETATM   36  F   UNL     1     -41.945  59.292 -51.014  1.00  0.00    -0.169 F 
HETATM   37  F   UNL     1     -41.028  57.889 -49.633  1.00  0.00    -0.169 F 
HETATM   38  F   UNL     1     -39.809  58.825 -51.155  1.00  0.00    -0.169 F 
ENDBRANCH   8  35
TORSDOF 9
ENDMDL
MODEL 4
REMARK VINA RESULT:      -7.4      2.456      4.238
REMARK  9 active torsions:
REMARK  status: ('A' for Active; 'I' for Inactive)
REMARK    1  A    between atoms: O_2  and  C_3 
REMARK    2  A    between atoms: C_6  and  C_7 
REMARK    3  A    between atoms: C_13  and  C_14 
REMARK       I    between atoms: C_14  and  N_15 
REMARK    4  A    between atoms: N_15  and  N_16 
REMARK    5  A    between atoms: N_16  and  C_17 
REMARK    6  A    between atoms: C_17  and  N_18 
REMARK    7  A    between atoms: N_18  and  C_19 
REMARK    8  A    between atoms: C_19  and  C_20 
REMARK    9  A    between atoms: C_27  and  C_28 
ROOT
HETATM    1  C   UNL     1     -42.747  55.461 -52.018  1.00  0.00     0.118 C 
HETATM    2  N   UNL     1     -43.380  56.161 -53.132  1.00  0.00    -0.365 N 
HETATM    3  C   UNL     1     -42.728  57.162 -53.778  1.00  0.00     0.138 A 
HETATM    4  N   UNL     1     -41.650  57.782 -53.198  1.00  0.00    -0.240 N 
HETATM    5  N   UNL     1     -41.080  58.705 -53.986  1.00  0.00    -0.181 NA
HETATM    6  C   UNL     1     -41.863  58.706 -55.069  1.00  0.00     0.160 A 
HETATM    7  C   UNL     1     -42.902  57.747 -55.018  1.00  0.00     0.098 A 
HETATM    8  C   UNL     1     -41.078  57.385 -51.923  1.00  0.00     0.221 C 
HETATM    9  C   UNL     1     -42.083  56.527 -51.126  1.00  0.00     0.066 C 
HETATM   10  H   UNL     1     -44.105  55.640 -53.633  1.00  0.00     0.161 HD
ENDROOT
BRANCH   7  11
HETATM   11  C   UNL     1     -43.944  57.413 -55.973  1.00  0.00     0.275 C 
HETATM   12  N   UNL     1     -45.261  57.762 -55.707  1.00  0.00    -0.263 N 
HETATM   13  H   UNL     1     -45.852  57.600 -56.519  1.00  0.00     0.190 HD
HETATM   14  O   UNL     1     -43.703  56.812 -57.022  1.00  0.00    -0.266 OA
BRANCH  12  15
HETATM   15  N   UNL     1     -45.606  58.909 -54.962  1.00  0.00    -0.274 N 
HETATM   16  H   UNL     1     -46.102  58.753 -54.089  1.00  0.00     0.189 HD
BRANCH  15  17
HETATM   17  C   UNL     1     -45.487  60.169 -55.492  1.00  0.00     0.186 C 
HETATM   18  S   UNL     1     -45.666  60.568 -57.107  1.00  0.00    -0.040 SA
BRANCH  17  19
HETATM   19  N   UNL     1     -45.215  61.180 -54.621  1.00  0.00    -0.360 N 
HETATM   20  H   UNL     1     -46.027  61.720 -54.348  1.00  0.00     0.162 HD
BRANCH  19  21
HETATM   21  C   UNL     1     -43.980  61.455 -53.912  1.00  0.00     0.187 C 
BRANCH  21  22
HETATM   22  C   UNL     1     -44.105  61.017 -52.505  1.00  0.00     0.070 A 
HETATM   23  O   UNL     1     -44.412  59.702 -52.301  1.00  0.00    -0.325 OA
HETATM   24  C   UNL     1     -44.477  59.516 -50.956  1.00  0.00     0.142 A 
HETATM   25  C   UNL     1     -44.212  60.691 -50.294  1.00  0.00     0.027 A 
HETATM   26  C   UNL     1     -43.972  61.664 -51.293  1.00  0.00     0.036 A 
ENDBRANCH  21  22
ENDBRANCH  19  21
ENDBRANCH  17  19
ENDBRANCH  15  17
ENDBRANCH  12  15
ENDBRANCH   7  11
BRANCH   1  27
HETATM   27  C   UNL     1     -41.796  54.353 -52.462  1.00  0.00    -0.035 A 
HETATM   28  C   UNL     1     -40.913  53.711 -51.580  1.00  0.00     0.012 A 
HETATM   29  C   UNL     1     -40.067  52.689 -52.022  1.00  0.00     0.037 A 
HETATM   30  C   UNL     1     -40.076  52.282 -53.355  1.00  0.00     0.068 A 
HETATM   31  C   UNL     1     -40.914  52.934 -54.254  1.00  0.00     0.037 A 
HETATM   32  C   UNL     1     -41.757  53.965 -53.814  1.00  0.00     0.012 A 
BRANCH  30  33
HETATM   33  O   UNL     1     -39.218  51.260 -53.651  1.00  0.00    -0.356 OA
HETATM   34  C   UNL     1     -39.740  49.941 -53.546  1.00  0.00     0.210 C 
ENDBRANCH  30  33
ENDBRANCH   1  27
BRANCH   8  35
HETATM   35  C   UNL     1     -40.665  58.579 -51.091  1.00  0.00     0.409 C 
HETATM   36  F   UNL     1     -39.336  58.822 -51.148  1.00  0.00    -0.169 F 
HETATM   37  F   UNL     1     -41.279  59.698 -51.570  1.00  0.00    -0.169 F 
HETATM   38  F   UNL     1     -41.026  58.488 -49.794  1.00  0.00    -0.169 F 
ENDBRANCH   8  35
TORSDOF 9
ENDMDL
MODEL 5
REMARK VINA RESULT:      -7.1      3.364      5.735
REMARK  9 active torsions:
REMARK  status: ('A' for Active; 'I' for Inactive)
REMARK    1  A    between atoms: O_2  and  C_3 
REMARK    2  A    between atoms: C_6  and  C_7 
REMARK    3  A    between atoms: C_13  and  C_14 
REMARK       I    between atoms: C_14  and  N_15 
REMARK    4  A    between atoms: N_15  and  N_16 
REMARK    5  A    between atoms: N_16  and  C_17 
REMARK    6  A    between atoms: C_17  and  N_18 
REMARK    7  A    between atoms: N_18  and  C_19 
REMARK    8  A    between atoms: C_19  and  C_20 
REMARK    9  A    between atoms: C_27  and  C_28 
ROOT
HETATM    1  C   UNL     1     -41.533  58.194 -51.699  1.00  0.00     0.118 C 
HETATM    2  N   UNL     1     -41.665  57.420 -52.931  1.00  0.00    -0.365 N 
HETATM    3  C   UNL     1     -42.237  56.188 -52.914  1.00  0.00     0.138 A 
HETATM    4  N   UNL     1     -42.366  55.494 -51.738  1.00  0.00    -0.240 N 
HETATM    5  N   UNL     1     -43.005  54.323 -51.878  1.00  0.00    -0.181 NA
HETATM    6  C   UNL     1     -43.229  54.255 -53.194  1.00  0.00     0.160 A 
HETATM    7  C   UNL     1     -42.795  55.401 -53.903  1.00  0.00     0.098 A 
HETATM    8  C   UNL     1     -41.992  56.026 -50.438  1.00  0.00     0.221 C 
HETATM    9  C   UNL     1     -41.039  57.229 -50.605  1.00  0.00     0.066 C 
HETATM   10  H   UNL     1     -41.686  57.962 -53.799  1.00  0.00     0.161 HD
ENDROOT
BRANCH   7  11
HETATM   11  C   UNL     1     -42.860  55.734 -55.315  1.00  0.00     0.275 C 
HETATM   12  N   UNL     1     -44.036  56.241 -55.851  1.00  0.00    -0.263 N 
HETATM   13  H   UNL     1     -43.892  56.565 -56.804  1.00  0.00     0.190 HD
HETATM   14  O   UNL     1     -41.900  55.573 -56.071  1.00  0.00    -0.266 OA
BRANCH  12  15
HETATM   15  N   UNL     1     -44.931  57.033 -55.101  1.00  0.00    -0.274 N 
HETATM   16  H   UNL     1     -45.221  56.666 -54.200  1.00  0.00     0.189 HD
BRANCH  15  17
HETATM   17  C   UNL     1     -45.557  58.123 -55.653  1.00  0.00     0.186 C 
HETATM   18  S   UNL     1     -45.171  59.723 -55.356  1.00  0.00    -0.040 SA
BRANCH  17  19
HETATM   19  N   UNL     1     -46.570  57.873 -56.528  1.00  0.00    -0.360 N 
HETATM   20  H   UNL     1     -47.353  57.374 -56.122  1.00  0.00     0.162 HD
BRANCH  19  21
HETATM   21  C   UNL     1     -46.748  58.380 -57.876  1.00  0.00     0.187 C 
BRANCH  21  22
HETATM   22  C   UNL     1     -46.306  57.362 -58.854  1.00  0.00     0.070 A 
HETATM   23  O   UNL     1     -44.996  56.982 -58.788  1.00  0.00    -0.325 OA
HETATM   24  C   UNL     1     -44.807  56.052 -59.761  1.00  0.00     0.142 A 
HETATM   25  C   UNL     1     -45.977  55.827 -60.447  1.00  0.00     0.027 A 
HETATM   26  C   UNL     1     -46.948  56.674 -59.864  1.00  0.00     0.036 A 
ENDBRANCH  21  22
ENDBRANCH  19  21
ENDBRANCH  17  19
ENDBRANCH  15  17
ENDBRANCH  12  15
ENDBRANCH   7  11
BRANCH   1  27
HETATM   27  C   UNL     1     -42.802  58.952 -51.322  1.00  0.00    -0.035 A 
HETATM   28  C   UNL     1     -44.078  58.564 -51.761  1.00  0.00     0.012 A 
HETATM   29  C   UNL     1     -45.219  59.276 -51.381  1.00  0.00     0.037 A 
HETATM   30  C   UNL     1     -45.121  60.395 -50.558  1.00  0.00     0.068 A 
HETATM   31  C   UNL     1     -43.862  60.822 -50.147  1.00  0.00     0.037 A 
HETATM   32  C   UNL     1     -42.715  60.113 -50.533  1.00  0.00     0.012 A 
BRANCH  30  33
HETATM   33  O   UNL     1     -46.313  60.987 -50.245  1.00  0.00    -0.356 OA
HETATM   34  C   UNL     1     -46.293  62.397 -50.060  1.00  0.00     0.210 C 
ENDBRANCH  30  33
ENDBRANCH   1  27
BRANCH   8  35
HETATM   35  C   UNL     1     -41.334  54.980 -49.567  1.00  0.00     0.409 C 
HETATM   36  F   UNL     1     -42.036  53.825 -49.515  1.00  0.00    -0.169 F 
HETATM   37  F   UNL     1     -40.114  54.662 -50.083  1.00  0.00    -0.169 F 
HETATM   38  F   UNL     1     -41.103  55.393 -48.303  1.00  0.00    -0.169 F 
ENDBRANCH   8  35
TORSDOF 9
ENDMDL
MODEL 6
REMARK VINA RESULT:      -7.0      3.357      5.222
REMARK  9 active torsions:
REMARK  status: ('A' for Active; 'I' for Inactive)
REMARK    1  A    between atoms: O_2  and  C_3 
REMARK    2  A    between atoms: C_6  and  C_7 
REMARK    3  A    between atoms: C_13  and  C_14 
REMARK       I    between atoms: C_14  and  N_15 
REMARK    4  A    between atoms: N_15  and  N_16 
REMARK    5  A    between atoms: N_16  and  C_17 
REMARK    6  A    between atoms: C_17  and  N_18 
REMARK    7  A    between atoms: N_18  and  C_19 
REMARK    8  A    between atoms: C_19  and  C_20 
REMARK    9  A    between atoms: C_27  and  C_28 
ROOT
HETATM    1  C   UNL     1     -42.878  56.420 -51.787  1.00  0.00     0.118 C 
HETATM    2  N   UNL     1     -43.602  57.311 -52.691  1.00  0.00    -0.365 N 
HETATM    3  C   UNL     1     -42.934  58.234 -53.430  1.00  0.00     0.138 A 
HETATM    4  N   UNL     1     -41.657  58.607 -53.095  1.00  0.00    -0.240 N 
HETATM    5  N   UNL     1     -41.114  59.480 -53.956  1.00  0.00    -0.181 NA
HETATM    6  C   UNL     1     -42.105  59.707 -54.824  1.00  0.00     0.160 A 
HETATM    7  C   UNL     1     -43.268  58.942 -54.570  1.00  0.00     0.098 A 
HETATM    8  C   UNL     1     -40.899  58.011 -52.008  1.00  0.00     0.221 C 
HETATM    9  C   UNL     1     -41.844  57.276 -51.033  1.00  0.00     0.066 C 
HETATM   10  H   UNL     1     -44.505  56.967 -53.029  1.00  0.00     0.161 HD
ENDROOT
BRANCH   7  11
HETATM   11  C   UNL     1     -44.541  58.875 -55.265  1.00  0.00     0.275 C 
HETATM   12  N   UNL     1     -45.591  59.690 -54.863  1.00  0.00    -0.263 N 
HETATM   13  H   UNL     1     -46.362  59.644 -55.525  1.00  0.00     0.190 HD
HETATM   14  O   UNL     1     -44.732  58.104 -56.207  1.00  0.00    -0.266 OA
BRANCH  12  15
HETATM   15  N   UNL     1     -45.387  60.967 -54.302  1.00  0.00    -0.274 N 
HETATM   16  H   UNL     1     -44.507  61.427 -54.520  1.00  0.00     0.189 HD
BRANCH  15  17
HETATM   17  C   UNL     1     -46.221  61.464 -53.332  1.00  0.00     0.186 C 
HETATM   18  S   UNL     1     -46.614  63.076 -53.116  1.00  0.00    -0.040 SA
BRANCH  17  19
HETATM   19  N   UNL     1     -46.787  60.561 -52.484  1.00  0.00    -0.360 N 
HETATM   20  H   UNL     1     -47.775  60.406 -52.645  1.00  0.00     0.162 HD
BRANCH  19  21
HETATM   21  C   UNL     1     -46.134  59.681 -51.533  1.00  0.00     0.187 C 
BRANCH  21  22
HETATM   22  C   UNL     1     -45.346  60.482 -50.571  1.00  0.00     0.070 A 
HETATM   23  O   UNL     1     -43.988  60.424 -50.699  1.00  0.00    -0.325 OA
HETATM   24  C   UNL     1     -43.467  61.222 -49.730  1.00  0.00     0.142 A 
HETATM   25  C   UNL     1     -44.471  61.796 -48.986  1.00  0.00     0.027 A 
HETATM   26  C   UNL     1     -45.687  61.318 -49.527  1.00  0.00     0.036 A 
ENDBRANCH  21  22
ENDBRANCH  19  21
ENDBRANCH  17  19
ENDBRANCH  15  17
ENDBRANCH  12  15
ENDBRANCH   7  11
BRANCH   1  27
HETATM   27  C   UNL     1     -42.277  55.206 -52.488  1.00  0.00    -0.035 A 
HETATM   28  C   UNL     1     -42.690  54.781 -53.761  1.00  0.00     0.012 A 
HETATM   29  C   UNL     1     -42.103  53.672 -54.378  1.00  0.00     0.037 A 
HETATM   30  C   UNL     1     -41.092  52.954 -53.743  1.00  0.00     0.068 A 
HETATM   31  C   UNL     1     -40.698  53.333 -52.463  1.00  0.00     0.037 A 
HETATM   32  C   UNL     1     -41.290  54.440 -51.840  1.00  0.00     0.012 A 
BRANCH  30  33
HETATM   33  O   UNL     1     -40.590  51.906 -54.462  1.00  0.00    -0.356 OA
HETATM   34  C   UNL     1     -39.756  50.994 -53.758  1.00  0.00     0.210 C 
ENDBRANCH  30  33
ENDBRANCH   1  27
BRANCH   8  35
HETATM   35  C   UNL     1     -40.094  59.041 -51.248  1.00  0.00     0.409 C 
HETATM   36  F   UNL     1     -40.755  60.209 -51.089  1.00  0.00    -0.169 F 
HETATM   37  F   UNL     1     -39.833  58.576 -49.994  1.00  0.00    -0.169 F 
HETATM   38  F   UNL     1     -38.891  59.305 -51.799  1.00  0.00    -0.169 F 
ENDBRANCH   8  35
TORSDOF 9
ENDMDL
MODEL 7
REMARK VINA RESULT:      -7.0      3.783      7.015
REMARK  9 active torsions:
REMARK  status: ('A' for Active; 'I' for Inactive)
REMARK    1  A    between atoms: O_2  and  C_3 
REMARK    2  A    between atoms: C_6  and  C_7 
REMARK    3  A    between atoms: C_13  and  C_14 
REMARK       I    between atoms: C_14  and  N_15 
REMARK    4  A    between atoms: N_15  and  N_16 
REMARK    5  A    between atoms: N_16  and  C_17 
REMARK    6  A    between atoms: C_17  and  N_18 
REMARK    7  A    between atoms: N_18  and  C_19 
REMARK    8  A    between atoms: C_19  and  C_20 
REMARK    9  A    between atoms: C_27  and  C_28 
ROOT
HETATM    1  C   UNL     1     -43.522  54.468 -54.900  1.00  0.00     0.118 C 
HETATM    2  N   UNL     1     -43.889  54.610 -53.493  1.00  0.00    -0.365 N 
HETATM    3  C   UNL     1     -42.932  54.635 -52.530  1.00  0.00     0.138 A 
HETATM    4  N   UNL     1     -41.667  54.172 -52.790  1.00  0.00    -0.240 N 
HETATM    5  N   UNL     1     -40.823  54.322 -51.757  1.00  0.00    -0.181 NA
HETATM    6  C   UNL     1     -41.602  54.839 -50.801  1.00  0.00     0.160 A 
HETATM    7  C   UNL     1     -42.930  55.084 -51.222  1.00  0.00     0.098 A 
HETATM    8  C   UNL     1     -41.227  53.706 -54.093  1.00  0.00     0.221 C 
HETATM    9  C   UNL     1     -42.443  53.372 -54.982  1.00  0.00     0.066 C 
HETATM   10  H   UNL     1     -44.787  55.065 -53.310  1.00  0.00     0.161 HD
ENDROOT
BRANCH   7  11
HETATM   11  C   UNL     1     -44.071  55.640 -50.517  1.00  0.00     0.275 C 
HETATM   12  N   UNL     1     -44.278  57.013 -50.516  1.00  0.00    -0.263 N 
HETATM   13  H   UNL     1     -45.184  57.244 -50.114  1.00  0.00     0.190 HD
HETATM   14  O   UNL     1     -44.870  54.932 -49.901  1.00  0.00    -0.266 OA
BRANCH  12  15
HETATM   15  N   UNL     1     -43.897  57.839 -51.594  1.00  0.00    -0.274 N 
HETATM   16  H   UNL     1     -43.207  57.461 -52.236  1.00  0.00     0.189 HD
BRANCH  15  17
HETATM   17  C   UNL     1     -44.260  59.161 -51.645  1.00  0.00     0.186 C 
HETATM   18  S   UNL     1     -45.202  59.868 -52.833  1.00  0.00    -0.040 SA
BRANCH  17  19
HETATM   19  N   UNL     1     -43.823  59.959 -50.632  1.00  0.00    -0.360 N 
HETATM   20  H   UNL     1     -44.291  59.797 -49.748  1.00  0.00     0.162 HD
BRANCH  19  21
HETATM   21  C   UNL     1     -42.681  60.852 -50.612  1.00  0.00     0.187 C 
BRANCH  21  22
HETATM   22  C   UNL     1     -41.446  60.089 -50.896  1.00  0.00     0.070 A 
HETATM   23  O   UNL     1     -41.226  59.751 -52.201  1.00  0.00    -0.325 OA
HETATM   24  C   UNL     1     -40.054  59.065 -52.237  1.00  0.00     0.142 A 
HETATM   25  C   UNL     1     -39.515  58.962 -50.976  1.00  0.00     0.027 A 
HETATM   26  C   UNL     1     -40.414  59.622 -50.107  1.00  0.00     0.036 A 
ENDBRANCH  21  22
ENDBRANCH  19  21
ENDBRANCH  17  19
ENDBRANCH  15  17
ENDBRANCH  12  15
ENDBRANCH   7  11
BRANCH   1  27
HETATM   27  C   UNL     1     -43.110  55.785 -55.553  1.00  0.00    -0.035 A 
HETATM   28  C   UNL     1     -42.941  56.973 -54.825  1.00  0.00     0.012 A 
HETATM   29  C   UNL     1     -42.549  58.157 -55.457  1.00  0.00     0.037 A 
HETATM   30  C   UNL     1     -42.316  58.189 -56.830  1.00  0.00     0.068 A 
HETATM   31  C   UNL     1     -42.519  57.033 -57.576  1.00  0.00     0.037 A 
HETATM   32  C   UNL     1     -42.921  55.846 -56.945  1.00  0.00     0.012 A 
BRANCH  30  33
HETATM   33  O   UNL     1     -41.917  59.402 -57.319  1.00  0.00    -0.356 OA
HETATM   34  C   UNL     1     -42.844  60.473 -57.195  1.00  0.00     0.210 C 
ENDBRANCH  30  33
ENDBRANCH   1  27
BRANCH   8  35
HETATM   35  C   UNL     1     -40.332  52.491 -53.988  1.00  0.00     0.409 C 
HETATM   36  F   UNL     1     -39.036  52.772 -54.250  1.00  0.00    -0.169 F 
HETATM   37  F   UNL     1     -40.368  52.012 -52.712  1.00  0.00    -0.169 F 
HETATM   38  F   UNL     1     -40.713  51.465 -54.777  1.00  0.00    -0.169 F 
ENDBRANCH   8  35
TORSDOF 9
ENDMDL
MODEL 8
REMARK VINA RESULT:      -7.0      4.267      7.723
REMARK  9 active torsions:
REMARK  status: ('A' for Active; 'I' for Inactive)
REMARK    1  A    between atoms: O_2  and  C_3 
REMARK    2  A    between atoms: C_6  and  C_7 
REMARK    3  A    between atoms: C_13  and  C_14 
REMARK       I    between atoms: C_14  and  N_15 
REMARK    4  A    between atoms: N_15  and  N_16 
REMARK    5  A    between atoms: N_16  and  C_17 
REMARK    6  A    between atoms: C_17  and  N_18 
REMARK    7  A    between atoms: N_18  and  C_19 
REMARK    8  A    between atoms: C_19  and  C_20 
REMARK    9  A    between atoms: C_27  and  C_28 
ROOT
HETATM    1  C   UNL     1     -43.638  55.828 -55.300  1.00  0.00     0.118 C 
HETATM    2  N   UNL     1     -44.014  56.027 -53.902  1.00  0.00    -0.365 N 
HETATM    3  C   UNL     1     -43.085  55.926 -52.917  1.00  0.00     0.138 A 
HETATM    4  N   UNL     1     -41.890  55.293 -53.145  1.00  0.00    -0.240 N 
HETATM    5  N   UNL     1     -41.057  55.331 -52.094  1.00  0.00    -0.181 NA
HETATM    6  C   UNL     1     -41.780  55.956 -51.158  1.00  0.00     0.160 A 
HETATM    7  C   UNL     1     -43.052  56.378 -51.611  1.00  0.00     0.098 A 
HETATM    8  C   UNL     1     -41.488  54.763 -54.437  1.00  0.00     0.221 C 
HETATM    9  C   UNL     1     -42.718  54.594 -55.354  1.00  0.00     0.066 C 
HETATM   10  H   UNL     1     -44.845  56.602 -53.741  1.00  0.00     0.161 HD
ENDROOT
BRANCH   7  11
HETATM   11  C   UNL     1     -44.121  57.090 -50.934  1.00  0.00     0.275 C 
HETATM   12  N   UNL     1     -43.964  58.432 -50.617  1.00  0.00    -0.263 N 
HETATM   13  H   UNL     1     -44.838  58.833 -50.285  1.00  0.00     0.190 HD
HETATM   14  O   UNL     1     -45.176  56.538 -50.615  1.00  0.00    -0.266 OA
BRANCH  12  15
HETATM   15  N   UNL     1     -43.188  59.311 -51.402  1.00  0.00    -0.274 N 
HETATM   16  H   UNL     1     -43.304  59.245 -52.409  1.00  0.00     0.189 HD
BRANCH  15  17
HETATM   17  C   UNL     1     -42.168  60.048 -50.855  1.00  0.00     0.186 C 
HETATM   18  S   UNL     1     -40.621  59.491 -50.545  1.00  0.00    -0.040 SA
BRANCH  17  19
HETATM   19  N   UNL     1     -42.440  61.348 -50.554  1.00  0.00    -0.360 N 
HETATM   20  H   UNL     1     -41.616  61.912 -50.378  1.00  0.00     0.162 HD
BRANCH  19  21
HETATM   21  C   UNL     1     -43.706  62.050 -50.636  1.00  0.00     0.187 C 
BRANCH  21  22
HETATM   22  C   UNL     1     -44.417  61.949 -49.343  1.00  0.00     0.070 A 
HETATM   23  O   UNL     1     -45.025  60.756 -49.073  1.00  0.00    -0.325 OA
HETATM   24  C   UNL     1     -45.609  60.880 -47.852  1.00  0.00     0.142 A 
HETATM   25  C   UNL     1     -45.382  62.132 -47.333  1.00  0.00     0.027 A 
HETATM   26  C   UNL     1     -44.613  62.827 -48.295  1.00  0.00     0.036 A 
ENDBRANCH  21  22
ENDBRANCH  19  21
ENDBRANCH  17  19
ENDBRANCH  15  17
ENDBRANCH  12  15
ENDBRANCH   7  11
BRANCH   1  27
HETATM   27  C   UNL     1     -43.035  57.072 -55.946  1.00  0.00    -0.035 A 
HETATM   28  C   UNL     1     -42.768  58.248 -55.227  1.00  0.00     0.012 A 
HETATM   29  C   UNL     1     -42.200  59.363 -55.852  1.00  0.00     0.037 A 
HETATM   30  C   UNL     1     -41.886  59.337 -57.209  1.00  0.00     0.068 A 
HETATM   31  C   UNL     1     -42.182  58.196 -57.948  1.00  0.00     0.037 A 
HETATM   32  C   UNL     1     -42.758  57.080 -57.325  1.00  0.00     0.012 A 
BRANCH  30  33
HETATM   33  O   UNL     1     -41.318  60.483 -57.690  1.00  0.00    -0.356 OA
HETATM   34  C   UNL     1     -42.181  61.601 -57.853  1.00  0.00     0.210 C 
ENDBRANCH  30  33
ENDBRANCH   1  27
BRANCH   8  35
HETATM   35  C   UNL     1     -40.771  53.438 -54.307  1.00  0.00     0.409 C 
HETATM   36  F   UNL     1     -40.118  53.309 -53.130  1.00  0.00    -0.169 F 
HETATM   37  F   UNL     1     -41.681  52.425 -54.352  1.00  0.00    -0.169 F 
HETATM   38  F   UNL     1     -39.898  53.193 -55.307  1.00  0.00    -0.169 F 
ENDBRANCH   8  35
TORSDOF 9
ENDMDL
MODEL 9
REMARK VINA RESULT:      -6.9      3.722      6.012
REMARK  9 active torsions:
REMARK  status: ('A' for Active; 'I' for Inactive)
REMARK    1  A    between atoms: O_2  and  C_3 
REMARK    2  A    between atoms: C_6  and  C_7 
REMARK    3  A    between atoms: C_13  and  C_14 
REMARK       I    between atoms: C_14  and  N_15 
REMARK    4  A    between atoms: N_15  and  N_16 
REMARK    5  A    between atoms: N_16  and  C_17 
REMARK    6  A    between atoms: C_17  and  N_18 
REMARK    7  A    between atoms: N_18  and  C_19 
REMARK    8  A    between atoms: C_19  and  C_20 
REMARK    9  A    between atoms: C_27  and  C_28 
ROOT
HETATM    1  C   UNL     1     -43.734  54.926 -55.096  1.00  0.00     0.118 C 
HETATM    2  N   UNL     1     -43.986  55.414 -53.743  1.00  0.00    -0.365 N 
HETATM    3  C   UNL     1     -42.972  55.511 -52.844  1.00  0.00     0.138 A 
HETATM    4  N   UNL     1     -41.796  54.833 -53.042  1.00  0.00    -0.240 N 
HETATM    5  N   UNL     1     -40.874  55.080 -52.100  1.00  0.00    -0.181 NA
HETATM    6  C   UNL     1     -41.515  55.892 -51.254  1.00  0.00     0.160 A 
HETATM    7  C   UNL     1     -42.826  56.224 -51.669  1.00  0.00     0.098 A 
HETATM    8  C   UNL     1     -41.506  54.042 -54.226  1.00  0.00     0.221 C 
HETATM    9  C   UNL     1     -42.812  53.698 -54.975  1.00  0.00     0.066 C 
HETATM   10  H   UNL     1     -44.804  56.018 -53.631  1.00  0.00     0.161 HD
ENDROOT
BRANCH   7  11
HETATM   11  C   UNL     1     -43.837  57.071 -51.062  1.00  0.00     0.275 C 
HETATM   12  N   UNL     1     -43.630  58.442 -50.980  1.00  0.00    -0.263 N 
HETATM   13  H   UNL     1     -44.474  58.920 -50.672  1.00  0.00     0.190 HD
HETATM   14  O   UNL     1     -44.884  56.613 -50.601  1.00  0.00    -0.266 OA
BRANCH  12  15
HETATM   15  N   UNL     1     -42.881  59.154 -51.939  1.00  0.00    -0.274 N 
HETATM   16  H   UNL     1     -41.895  58.923 -52.012  1.00  0.00     0.189 HD
BRANCH  15  17
HETATM   17  C   UNL     1     -43.397  60.256 -52.576  1.00  0.00     0.186 C 
HETATM   18  S   UNL     1     -43.418  61.813 -51.965  1.00  0.00    -0.040 SA
BRANCH  17  19
HETATM   19  N   UNL     1     -43.923  60.061 -53.817  1.00  0.00    -0.360 N 
HETATM   20  H   UNL     1     -43.327  59.526 -54.438  1.00  0.00     0.162 HD
BRANCH  19  21
HETATM   21  C   UNL     1     -45.264  60.349 -54.287  1.00  0.00     0.187 C 
BRANCH  21  22
HETATM   22  C   UNL     1     -45.418  59.872 -55.679  1.00  0.00     0.070 A 
HETATM   23  O   UNL     1     -45.854  58.588 -55.838  1.00  0.00    -0.325 OA
HETATM   24  C   UNL     1     -45.924  58.359 -57.176  1.00  0.00     0.142 A 
HETATM   25  C   UNL     1     -45.545  59.479 -57.877  1.00  0.00     0.027 A 
HETATM   26  C   UNL     1     -45.215  60.459 -56.912  1.00  0.00     0.036 A 
ENDBRANCH  21  22
ENDBRANCH  19  21
ENDBRANCH  17  19
ENDBRANCH  15  17
ENDBRANCH  12  15
ENDBRANCH   7  11
BRANCH   1  27
HETATM   27  C   UNL     1     -43.202  56.003 -56.038  1.00  0.00    -0.035 A 
HETATM   28  C   UNL     1     -42.734  57.246 -55.584  1.00  0.00     0.012 A 
HETATM   29  C   UNL     1     -42.240  58.201 -56.476  1.00  0.00     0.037 A 
HETATM   30  C   UNL     1     -42.201  57.946 -57.845  1.00  0.00     0.068 A 
HETATM   31  C   UNL     1     -42.700  56.737 -58.320  1.00  0.00     0.037 A 
HETATM   32  C   UNL     1     -43.203  55.780 -57.427  1.00  0.00     0.012 A 
BRANCH  30  33
HETATM   33  O   UNL     1     -41.676  58.953 -58.605  1.00  0.00    -0.356 OA
HETATM   34  C   UNL     1     -41.619  60.240 -58.002  1.00  0.00     0.210 C 
ENDBRANCH  30  33
ENDBRANCH   1  27
BRANCH   8  35
HETATM   35  C   UNL     1     -40.769  52.766 -53.889  1.00  0.00     0.409 C 
HETATM   36  F   UNL     1     -41.304  51.678 -54.486  1.00  0.00    -0.169 F 
HETATM   37  F   UNL     1     -39.484  52.854 -54.336  1.00  0.00    -0.169 F 
HETATM   38  F   UNL     1     -40.680  52.523 -52.564  1.00  0.00    -0.169 F 
ENDBRANCH   8  35
TORSDOF 9
ENDMDL
MODEL 10
REMARK VINA RESULT:      -6.7      2.332      2.905
REMARK  9 active torsions:
REMARK  status: ('A' for Active; 'I' for Inactive)
REMARK    1  A    between atoms: O_2  and  C_3 
REMARK    2  A    between atoms: C_6  and  C_7 
REMARK    3  A    between atoms: C_13  and  C_14 
REMARK       I    between atoms: C_14  and  N_15 
REMARK    4  A    between atoms: N_15  and  N_16 
REMARK    5  A    between atoms: N_16  and  C_17 
REMARK    6  A    between atoms: C_17  and  N_18 
REMARK    7  A    between atoms: N_18  and  C_19 
REMARK    8  A    between atoms: C_19  and  C_20 
REMARK    9  A    between atoms: C_27  and  C_28 
ROOT
HETATM    1  C   UNL     1     -42.759  56.021 -51.691  1.00  0.00     0.118 C 
HETATM    2  N   UNL     1     -43.404  56.668 -52.832  1.00  0.00    -0.365 N 
HETATM    3  C   UNL     1     -42.737  57.593 -53.568  1.00  0.00     0.138 A 
HETATM    4  N   UNL     1     -41.616  58.206 -53.069  1.00  0.00    -0.240 N 
HETATM    5  N   UNL     1     -41.038  59.048 -53.940  1.00  0.00    -0.181 NA
HETATM    6  C   UNL     1     -41.859  59.005 -54.994  1.00  0.00     0.160 A 
HETATM    7  C   UNL     1     -42.933  58.097 -54.840  1.00  0.00     0.098 A 
HETATM    8  C   UNL     1     -41.014  57.876 -51.789  1.00  0.00     0.221 C 
HETATM    9  C   UNL     1     -42.023  57.118 -50.901  1.00  0.00     0.066 C 
HETATM   10  H   UNL     1     -44.167  56.144 -53.270  1.00  0.00     0.161 HD
ENDROOT
BRANCH   7  11
HETATM   11  C   UNL     1     -44.021  57.740 -55.734  1.00  0.00     0.275 C 
HETATM   12  N   UNL     1     -45.261  58.347 -55.587  1.00  0.00    -0.263 N 
HETATM   13  H   UNL     1     -45.874  58.114 -56.365  1.00  0.00     0.190 HD
HETATM   14  O   UNL     1     -43.887  56.899 -56.625  1.00  0.00    -0.266 OA
BRANCH  12  15
HETATM   15  N   UNL     1     -45.407  59.667 -55.112  1.00  0.00    -0.274 N 
HETATM   16  H   UNL     1     -45.667  59.774 -54.136  1.00  0.00     0.189 HD
BRANCH  15  17
HETATM   17  C   UNL     1     -45.429  60.738 -55.970  1.00  0.00     0.186 C 
HETATM   18  S   UNL     1     -46.729  61.761 -56.219  1.00  0.00    -0.040 SA
BRANCH  17  19
HETATM   19  N   UNL     1     -44.286  60.994 -56.665  1.00  0.00    -0.360 N 
HETATM   20  H   UNL     1     -43.508  61.288 -56.086  1.00  0.00     0.162 HD
BRANCH  19  21
HETATM   21  C   UNL     1     -43.996  60.725 -58.060  1.00  0.00     0.187 C 
BRANCH  21  22
HETATM   22  C   UNL     1     -42.703  61.342 -58.429  1.00  0.00     0.070 A 
HETATM   23  O   UNL     1     -42.716  62.190 -59.499  1.00  0.00    -0.325 OA
HETATM   24  C   UNL     1     -41.443  62.638 -59.662  1.00  0.00     0.142 A 
HETATM   25  C   UNL     1     -40.615  62.094 -58.708  1.00  0.00     0.027 A 
HETATM   26  C   UNL     1     -41.427  61.254 -57.911  1.00  0.00     0.036 A 
ENDBRANCH  21  22
ENDBRANCH  19  21
ENDBRANCH  17  19
ENDBRANCH  15  17
ENDBRANCH  12  15
ENDBRANCH   7  11
BRANCH   1  27
HETATM   27  C   UNL     1     -41.869  54.847 -52.087  1.00  0.00    -0.035 A 
HETATM   28  C   UNL     1     -40.876  54.327 -51.242  1.00  0.00     0.012 A 
HETATM   29  C   UNL     1     -40.091  53.239 -51.634  1.00  0.00     0.037 A 
HETATM   30  C   UNL     1     -40.270  52.642 -52.880  1.00  0.00     0.068 A 
HETATM   31  C   UNL     1     -41.220  53.169 -53.750  1.00  0.00     0.037 A 
HETATM   32  C   UNL     1     -42.004  54.264 -53.361  1.00  0.00     0.012 A 
BRANCH  30  33
HETATM   33  O   UNL     1     -39.453  51.576 -53.131  1.00  0.00    -0.356 OA
HETATM   34  C   UNL     1     -39.885  50.667 -54.137  1.00  0.00     0.210 C 
ENDBRANCH  30  33
ENDBRANCH   1  27
BRANCH   8  35
HETATM   35  C   UNL     1     -40.525  59.107 -51.059  1.00  0.00     0.409 C 
HETATM   36  F   UNL     1     -41.285  60.198 -51.305  1.00  0.00    -0.169 F 
HETATM   37  F   UNL     1     -40.591  58.892 -49.715  1.00  0.00    -0.169 F 
HETATM   38  F   UNL     1     -39.238  59.418 -51.318  1.00  0.00    -0.169 F 
ENDBRANCH   8  35
TORSDOF 9
ENDMDL
