MODEL 1
REMARK VINA RESULT:      -8.3      0.000      0.000
REMARK  5 active torsions:
REMARK  status: ('A' for Active; 'I' for Inactive)
REMARK    1  A    between atoms: C_2  and  C_3 
REMARK    2  A    between atoms: C_8  and  C_9 
REMARK       I    between atoms: C_9  and  N_10 
REMARK    3  A    between atoms: N_10  and  C_11 
REMARK    4  A    between atoms: C_11  and  C_12 
REMARK    5  A    between atoms: C_19  and  C_20 
ROOT
HETATM    1  C   UNL     1     -43.510  55.694 -53.419  1.00  0.00     0.118 C 
HETATM    2  N   UNL     1     -44.274  56.349 -52.365  1.00  0.00    -0.366 N 
HETATM    3  C   UNL     1     -44.099  57.644 -52.030  1.00  0.00     0.123 A 
HETATM    4  N   UNL     1     -43.188  58.437 -52.667  1.00  0.00    -0.240 N 
HETATM    5  N   UNL     1     -43.197  59.718 -52.259  1.00  0.00    -0.165 NA
HETATM    6  C   UNL     1     -44.112  59.727 -51.263  1.00  0.00     0.148 A 
HETATM    7  C   UNL     1     -44.700  58.442 -51.094  1.00  0.00     0.088 A 
HETATM    8  C   UNL     1     -42.332  57.985 -53.745  1.00  0.00     0.221 C 
HETATM    9  C   UNL     1     -42.927  56.726 -54.403  1.00  0.00     0.066 C 
HETATM   10  H   UNL     1     -44.922  55.754 -51.850  1.00  0.00     0.161 HD
ENDROOT
BRANCH   6  11
HETATM   11  C   UNL     1     -44.439  60.941 -50.499  1.00  0.00     0.272 C 
HETATM   12  N   UNL     1     -44.645  60.713 -49.157  1.00  0.00    -0.353 N 
HETATM   13  H   UNL     1     -44.410  59.779 -48.827  1.00  0.00     0.162 HD
HETATM   14  O   UNL     1     -44.508  62.052 -51.018  1.00  0.00    -0.266 OA
BRANCH  12  15
HETATM   15  C   UNL     1     -44.741  61.792 -48.198  1.00  0.00     0.155 C 
BRANCH  15  16
HETATM   16  C   UNL     1     -45.563  61.389 -46.976  1.00  0.00     0.139 C 
HETATM   17  O   UNL     1     -46.429  60.279 -47.293  1.00  0.00    -0.384 OA
HETATM   18  C   UNL     1     -46.453  59.389 -46.165  1.00  0.00     0.168 C 
HETATM   19  C   UNL     1     -45.680  60.060 -45.049  1.00  0.00     0.029 C 
HETATM   20  C   UNL     1     -44.707  60.923 -45.811  1.00  0.00     0.035 C 
ENDBRANCH  15  16
ENDBRANCH  12  15
ENDBRANCH   6  11
BRANCH   8  21
HETATM   21  C   UNL     1     -40.916  57.808 -53.248  1.00  0.00     0.409 C 
HETATM   22  F   UNL     1     -40.833  57.474 -51.947  1.00  0.00    -0.169 F 
HETATM   23  F   UNL     1     -40.297  56.823 -53.950  1.00  0.00    -0.169 F 
HETATM   24  F   UNL     1     -40.172  58.923 -53.428  1.00  0.00    -0.169 F 
ENDBRANCH   8  21
BRANCH   1  25
HETATM   25  C   UNL     1     -42.512  54.686 -52.872  1.00  0.00    -0.034 A 
HETATM   26  C   UNL     1     -42.259  54.525 -51.501  1.00  0.00     0.011 A 
HETATM   27  C   UNL     1     -41.345  53.571 -51.042  1.00  0.00     0.026 A 
HETATM   28  C   UNL     1     -40.672  52.748 -51.945  1.00  0.00     0.055 A 
HETATM   29  C   UNL     1     -40.916  52.884 -53.313  1.00  0.00     0.056 A 
HETATM   30 CL   UNL     1     -39.563  51.588 -51.309  1.00  0.00    -0.083 Cl
HETATM   31  C   UNL     1     -41.827  53.845 -53.770  1.00  0.00     0.034 A 
HETATM   32 CL   UNL     1     -40.137  51.894 -54.498  1.00  0.00    -0.083 Cl
ENDBRANCH   1  25
TORSDOF 5
ENDMDL
MODEL 2
REMARK VINA RESULT:      -8.1     18.231     20.052
REMARK  5 active torsions:
REMARK  status: ('A' for Active; 'I' for Inactive)
REMARK    1  A    between atoms: C_2  and  C_3 
REMARK    2  A    between atoms: C_8  and  C_9 
REMARK       I    between atoms: C_9  and  N_10 
REMARK    3  A    between atoms: N_10  and  C_11 
REMARK    4  A    between atoms: C_11  and  C_12 
REMARK    5  A    between atoms: C_19  and  C_20 
ROOT
HETATM    1  C   UNL     1     -37.232  42.234 -56.109  1.00  0.00     0.118 C 
HETATM    2  N   UNL     1     -37.732  41.419 -55.009  1.00  0.00    -0.366 N 
HETATM    3  C   UNL     1     -36.922  40.841 -54.099  1.00  0.00     0.123 A 
HETATM    4  N   UNL     1     -35.564  40.987 -54.145  1.00  0.00    -0.240 N 
HETATM    5  N   UNL     1     -34.916  40.407 -53.121  1.00  0.00    -0.165 NA
HETATM    6  C   UNL     1     -35.904  39.802 -52.422  1.00  0.00     0.148 A 
HETATM    7  C   UNL     1     -37.176  40.056 -53.007  1.00  0.00     0.088 A 
HETATM    8  C   UNL     1     -34.866  41.760 -55.152  1.00  0.00     0.221 C 
HETATM    9  C   UNL     1     -35.823  42.776 -55.802  1.00  0.00     0.066 C 
HETATM   10  H   UNL     1     -38.739  41.263 -54.993  1.00  0.00     0.161 HD
ENDROOT
BRANCH   6  11
HETATM   11  C   UNL     1     -35.646  39.014 -51.207  1.00  0.00     0.272 C 
HETATM   12  N   UNL     1     -34.737  37.997 -51.388  1.00  0.00    -0.353 N 
HETATM   13  H   UNL     1     -34.248  37.995 -52.281  1.00  0.00     0.162 HD
HETATM   14  O   UNL     1     -36.188  39.258 -50.132  1.00  0.00    -0.266 OA
BRANCH  12  15
HETATM   15  C   UNL     1     -34.169  37.263 -50.277  1.00  0.00     0.155 C 
BRANCH  15  16
HETATM   16  C   UNL     1     -32.846  37.871 -49.817  1.00  0.00     0.139 C 
HETATM   17  O   UNL     1     -32.261  38.667 -50.869  1.00  0.00    -0.384 OA
HETATM   18  C   UNL     1     -31.678  39.839 -50.278  1.00  0.00     0.168 C 
HETATM   19  C   UNL     1     -31.783  39.682 -48.775  1.00  0.00     0.029 C 
HETATM   20  C   UNL     1     -33.004  38.809 -48.632  1.00  0.00     0.035 C 
ENDBRANCH  15  16
ENDBRANCH  12  15
ENDBRANCH   6  11
BRANCH   8  21
HETATM   21  C   UNL     1     -34.186  40.838 -56.140  1.00  0.00     0.409 C 
HETATM   22  F   UNL     1     -34.815  39.659 -56.306  1.00  0.00    -0.169 F 
HETATM   23  F   UNL     1     -34.124  41.430 -57.360  1.00  0.00    -0.169 F 
HETATM   24  F   UNL     1     -32.909  40.568 -55.786  1.00  0.00    -0.169 F 
ENDBRANCH   8  21
BRANCH   1  25
HETATM   25  C   UNL     1     -37.380  41.545 -57.457  1.00  0.00    -0.034 A 
HETATM   26  C   UNL     1     -37.047  42.162 -58.673  1.00  0.00     0.011 A 
HETATM   27  C   UNL     1     -37.183  41.482 -59.888  1.00  0.00     0.026 A 
HETATM   28  C   UNL     1     -37.643  40.166 -59.913  1.00  0.00     0.055 A 
HETATM   29  C   UNL     1     -37.970  39.529 -58.713  1.00  0.00     0.056 A 
HETATM   30 CL   UNL     1     -37.777  39.386 -61.447  1.00  0.00    -0.083 Cl
HETATM   31  C   UNL     1     -37.839  40.215 -57.499  1.00  0.00     0.034 A 
HETATM   32 CL   UNL     1     -38.532  37.896 -58.653  1.00  0.00    -0.083 Cl
ENDBRANCH   1  25
TORSDOF 5
ENDMDL
MODEL 3
REMARK VINA RESULT:      -8.1      4.704      7.844
REMARK  5 active torsions:
REMARK  status: ('A' for Active; 'I' for Inactive)
REMARK    1  A    between atoms: C_2  and  C_3 
REMARK    2  A    between atoms: C_8  and  C_9 
REMARK       I    between atoms: C_9  and  N_10 
REMARK    3  A    between atoms: N_10  and  C_11 
REMARK    4  A    between atoms: C_11  and  C_12 
REMARK    5  A    between atoms: C_19  and  C_20 
ROOT
HETATM    1  C   UNL     1     -44.976  57.700 -54.937  1.00  0.00     0.118 C 
HETATM    2  N   UNL     1     -44.542  56.384 -54.485  1.00  0.00    -0.366 N 
HETATM    3  C   UNL     1     -43.568  56.208 -53.569  1.00  0.00     0.123 A 
HETATM    4  N   UNL     1     -42.919  57.264 -52.995  1.00  0.00    -0.240 N 
HETATM    5  N   UNL     1     -42.030  56.911 -52.050  1.00  0.00    -0.165 NA
HETATM    6  C   UNL     1     -42.064  55.559 -52.071  1.00  0.00     0.148 A 
HETATM    7  C   UNL     1     -43.021  55.084 -53.012  1.00  0.00     0.088 A 
HETATM    8  C   UNL     1     -43.200  58.652 -53.299  1.00  0.00     0.221 C 
HETATM    9  C   UNL     1     -44.607  58.788 -53.910  1.00  0.00     0.066 C 
HETATM   10  H   UNL     1     -44.986  55.588 -54.942  1.00  0.00     0.161 HD
ENDROOT
BRANCH   6  11
HETATM   11  C   UNL     1     -41.218  54.732 -51.197  1.00  0.00     0.272 C 
HETATM   12  N   UNL     1     -41.182  53.404 -51.556  1.00  0.00    -0.353 N 
HETATM   13  H   UNL     1     -41.616  53.175 -52.448  1.00  0.00     0.162 HD
HETATM   14  O   UNL     1     -40.596  55.195 -50.245  1.00  0.00    -0.266 OA
BRANCH  12  15
HETATM   15  C   UNL     1     -40.233  52.475 -50.980  1.00  0.00     0.155 C 
BRANCH  15  16
HETATM   16  C   UNL     1     -39.482  51.696 -52.057  1.00  0.00     0.139 C 
HETATM   17  O   UNL     1     -39.488  50.284 -51.758  1.00  0.00    -0.384 OA
HETATM   18  C   UNL     1     -39.662  49.562 -52.988  1.00  0.00     0.168 C 
HETATM   19  C   UNL     1     -39.614  50.576 -54.112  1.00  0.00     0.029 C 
HETATM   20  C   UNL     1     -40.112  51.827 -53.433  1.00  0.00     0.035 C 
ENDBRANCH  15  16
ENDBRANCH  12  15
ENDBRANCH   6  11
BRANCH   8  21
HETATM   21  C   UNL     1     -42.099  59.232 -54.158  1.00  0.00     0.409 C 
HETATM   22  F   UNL     1     -42.475  60.311 -54.869  1.00  0.00    -0.169 F 
HETATM   23  F   UNL     1     -41.056  59.615 -53.378  1.00  0.00    -0.169 F 
HETATM   24  F   UNL     1     -41.605  58.324 -55.030  1.00  0.00    -0.169 F 
ENDBRANCH   8  21
BRANCH   1  25
HETATM   25  C   UNL     1     -44.552  57.992 -56.368  1.00  0.00    -0.034 A 
HETATM   26  C   UNL     1     -44.726  59.244 -56.978  1.00  0.00     0.011 A 
HETATM   27  C   UNL     1     -44.303  59.472 -58.291  1.00  0.00     0.026 A 
HETATM   28  C   UNL     1     -43.685  58.455 -59.020  1.00  0.00     0.055 A 
HETATM   29  C   UNL     1     -43.493  57.205 -58.429  1.00  0.00     0.056 A 
HETATM   30 CL   UNL     1     -43.182  58.809 -60.633  1.00  0.00    -0.083 Cl
HETATM   31  C   UNL     1     -43.923  56.978 -57.116  1.00  0.00     0.034 A 
HETATM   32 CL   UNL     1     -42.723  55.897 -59.256  1.00  0.00    -0.083 Cl
ENDBRANCH   1  25
TORSDOF 5
ENDMDL
MODEL 4
REMARK VINA RESULT:      -8.0      2.478      3.778
REMARK  5 active torsions:
REMARK  status: ('A' for Active; 'I' for Inactive)
REMARK    1  A    between atoms: C_2  and  C_3 
REMARK    2  A    between atoms: C_8  and  C_9 
REMARK       I    between atoms: C_9  and  N_10 
REMARK    3  A    between atoms: N_10  and  C_11 
REMARK    4  A    between atoms: C_11  and  C_12 
REMARK    5  A    between atoms: C_19  and  C_20 
ROOT
HETATM    1  C   UNL     1     -40.533  54.844 -50.742  1.00  0.00     0.118 C 
HETATM    2  N   UNL     1     -40.684  56.110 -51.448  1.00  0.00    -0.366 N 
HETATM    3  C   UNL     1     -41.857  56.770 -51.526  1.00  0.00     0.123 A 
HETATM    4  N   UNL     1     -42.994  56.293 -50.937  1.00  0.00    -0.240 N 
HETATM    5  N   UNL     1     -44.054  57.112 -51.050  1.00  0.00    -0.165 NA
HETATM    6  C   UNL     1     -43.588  58.132 -51.807  1.00  0.00     0.148 A 
HETATM    7  C   UNL     1     -42.212  57.950 -52.122  1.00  0.00     0.088 A 
HETATM    8  C   UNL     1     -43.060  55.058 -50.184  1.00  0.00     0.221 C 
HETATM    9  C   UNL     1     -41.655  54.652 -49.703  1.00  0.00     0.066 C 
HETATM   10  H   UNL     1     -39.854  56.451 -51.932  1.00  0.00     0.161 HD
ENDROOT
BRANCH   6  11
HETATM   11  C   UNL     1     -44.429  59.270 -52.207  1.00  0.00     0.272 C 
HETATM   12  N   UNL     1     -45.466  59.526 -51.338  1.00  0.00    -0.353 N 
HETATM   13  H   UNL     1     -45.448  59.005 -50.464  1.00  0.00     0.162 HD
HETATM   14  O   UNL     1     -44.211  59.933 -53.218  1.00  0.00    -0.266 OA
BRANCH  12  15
HETATM   15  C   UNL     1     -46.259  60.734 -51.417  1.00  0.00     0.155 C 
BRANCH  15  16
HETATM   16  C   UNL     1     -46.070  61.614 -50.184  1.00  0.00     0.139 C 
HETATM   17  O   UNL     1     -46.053  60.810 -48.986  1.00  0.00    -0.384 OA
HETATM   18  C   UNL     1     -45.061  61.346 -48.096  1.00  0.00     0.168 C 
HETATM   19  C   UNL     1     -44.546  62.627 -48.718  1.00  0.00     0.029 C 
HETATM   20  C   UNL     1     -44.752  62.370 -50.190  1.00  0.00     0.035 C 
ENDBRANCH  15  16
ENDBRANCH  12  15
ENDBRANCH   6  11
BRANCH   8  21
HETATM   21  C   UNL     1     -43.764  53.991 -50.992  1.00  0.00     0.409 C 
HETATM   22  F   UNL     1     -43.903  54.297 -52.296  1.00  0.00    -0.169 F 
HETATM   23  F   UNL     1     -43.068  52.827 -50.931  1.00  0.00    -0.169 F 
HETATM   24  F   UNL     1     -44.997  53.719 -50.508  1.00  0.00    -0.169 F 
ENDBRANCH   8  21
BRANCH   1  25
HETATM   25  C   UNL     1     -40.322  53.673 -51.688  1.00  0.00    -0.034 A 
HETATM   26  C   UNL     1     -40.473  53.776 -53.080  1.00  0.00     0.011 A 
HETATM   27  C   UNL     1     -40.250  52.675 -53.914  1.00  0.00     0.026 A 
HETATM   28  C   UNL     1     -39.858  51.450 -53.375  1.00  0.00     0.055 A 
HETATM   29  C   UNL     1     -39.692  51.328 -51.994  1.00  0.00     0.056 A 
HETATM   30 CL   UNL     1     -39.593  50.137 -54.464  1.00  0.00    -0.083 Cl
HETATM   31  C   UNL     1     -39.923  52.430 -51.161  1.00  0.00     0.034 A 
HETATM   32 CL   UNL     1     -39.194  49.851 -51.246  1.00  0.00    -0.083 Cl
ENDBRANCH   1  25
TORSDOF 5
ENDMDL
MODEL 5
REMARK VINA RESULT:      -8.0      1.648      2.912
REMARK  5 active torsions:
REMARK  status: ('A' for Active; 'I' for Inactive)
REMARK    1  A    between atoms: C_2  and  C_3 
REMARK    2  A    between atoms: C_8  and  C_9 
REMARK       I    between atoms: C_9  and  N_10 
REMARK    3  A    between atoms: N_10  and  C_11 
REMARK    4  A    between atoms: C_11  and  C_12 
REMARK    5  A    between atoms: C_19  and  C_20 
ROOT
HETATM    1  C   UNL     1     -43.274  55.617 -54.198  1.00  0.00     0.118 C 
HETATM    2  N   UNL     1     -44.208  55.969 -53.136  1.00  0.00    -0.366 N 
HETATM    3  C   UNL     1     -44.189  57.163 -52.510  1.00  0.00     0.123 A 
HETATM    4  N   UNL     1     -43.286  58.135 -52.836  1.00  0.00    -0.240 N 
HETATM    5  N   UNL     1     -43.456  59.287 -52.166  1.00  0.00    -0.165 NA
HETATM    6  C   UNL     1     -44.475  59.015 -51.320  1.00  0.00     0.148 A 
HETATM    7  C   UNL     1     -44.961  57.691 -51.510  1.00  0.00     0.088 A 
HETATM    8  C   UNL     1     -42.277  57.991 -53.866  1.00  0.00     0.221 C 
HETATM    9  C   UNL     1     -42.677  56.878 -54.851  1.00  0.00     0.066 C 
HETATM   10  H   UNL     1     -44.854  55.234 -52.850  1.00  0.00     0.161 HD
ENDROOT
BRANCH   6  11
HETATM   11  C   UNL     1     -44.994  60.003 -50.361  1.00  0.00     0.272 C 
HETATM   12  N   UNL     1     -44.013  60.647 -49.642  1.00  0.00    -0.353 N 
HETATM   13  H   UNL     1     -43.057  60.478 -49.950  1.00  0.00     0.162 HD
HETATM   14  O   UNL     1     -46.193  60.233 -50.230  1.00  0.00    -0.266 OA
BRANCH  12  15
HETATM   15  C   UNL     1     -44.291  61.811 -48.829  1.00  0.00     0.155 C 
BRANCH  15  16
HETATM   16  C   UNL     1     -43.909  63.104 -49.545  1.00  0.00     0.139 C 
HETATM   17  O   UNL     1     -42.926  62.845 -50.568  1.00  0.00    -0.384 OA
HETATM   18  C   UNL     1     -43.233  63.662 -51.709  1.00  0.00     0.168 C 
HETATM   19  C   UNL     1     -44.376  64.573 -51.311  1.00  0.00     0.029 C 
HETATM   20  C   UNL     1     -45.082  63.756 -50.258  1.00  0.00     0.035 C 
ENDBRANCH  15  16
ENDBRANCH  12  15
ENDBRANCH   6  11
BRANCH   8  21
HETATM   21  C   UNL     1     -40.915  57.795 -53.238  1.00  0.00     0.409 C 
HETATM   22  F   UNL     1     -40.960  57.371 -51.961  1.00  0.00    -0.169 F 
HETATM   23  F   UNL     1     -40.211  56.870 -53.939  1.00  0.00    -0.169 F 
HETATM   24  F   UNL     1     -40.178  58.928 -53.263  1.00  0.00    -0.169 F 
ENDBRANCH   8  21
BRANCH   1  25
HETATM   25  C   UNL     1     -42.257  54.575 -53.756  1.00  0.00    -0.034 A 
HETATM   26  C   UNL     1     -41.496  53.818 -54.660  1.00  0.00     0.011 A 
HETATM   27  C   UNL     1     -40.559  52.883 -54.208  1.00  0.00     0.026 A 
HETATM   28  C   UNL     1     -40.353  52.694 -52.841  1.00  0.00     0.055 A 
HETATM   29  C   UNL     1     -41.093  53.445 -51.925  1.00  0.00     0.056 A 
HETATM   30 CL   UNL     1     -39.175  51.530 -52.355  1.00  0.00    -0.083 Cl
HETATM   31  C   UNL     1     -42.036  54.375 -52.381  1.00  0.00     0.034 A 
HETATM   32 CL   UNL     1     -40.890  53.285 -50.216  1.00  0.00    -0.083 Cl
ENDBRANCH   1  25
TORSDOF 5
ENDMDL
MODEL 6
REMARK VINA RESULT:      -7.9      4.659      8.026
REMARK  5 active torsions:
REMARK  status: ('A' for Active; 'I' for Inactive)
REMARK    1  A    between atoms: C_2  and  C_3 
REMARK    2  A    between atoms: C_8  and  C_9 
REMARK       I    between atoms: C_9  and  N_10 
REMARK    3  A    between atoms: N_10  and  C_11 
REMARK    4  A    between atoms: C_11  and  C_12 
REMARK    5  A    between atoms: C_19  and  C_20 
ROOT
HETATM    1  C   UNL     1     -44.732  58.309 -52.038  1.00  0.00     0.118 C 
HETATM    2  N   UNL     1     -44.486  56.890 -51.813  1.00  0.00    -0.366 N 
HETATM    3  C   UNL     1     -43.295  56.409 -51.403  1.00  0.00     0.123 A 
HETATM    4  N   UNL     1     -42.229  57.229 -51.165  1.00  0.00    -0.240 N 
HETATM    5  N   UNL     1     -41.144  56.593 -50.692  1.00  0.00    -0.165 NA
HETATM    6  C   UNL     1     -41.513  55.292 -50.694  1.00  0.00     0.148 A 
HETATM    7  C   UNL     1     -42.858  55.141 -51.132  1.00  0.00     0.088 A 
HETATM    8  C   UNL     1     -42.263  58.669 -51.322  1.00  0.00     0.221 C 
HETATM    9  C   UNL     1     -43.716  59.176 -51.271  1.00  0.00     0.066 C 
HETATM   10  H   UNL     1     -45.260  56.264 -52.035  1.00  0.00     0.161 HD
ENDROOT
BRANCH   6  11
HETATM   11  C   UNL     1     -40.611  54.212 -50.265  1.00  0.00     0.272 C 
HETATM   12  N   UNL     1     -41.013  52.960 -50.671  1.00  0.00    -0.353 N 
HETATM   13  H   UNL     1     -41.790  52.937 -51.328  1.00  0.00     0.162 HD
HETATM   14  O   UNL     1     -39.589  54.420 -49.616  1.00  0.00    -0.266 OA
BRANCH  12  15
HETATM   15  C   UNL     1     -40.153  51.800 -50.561  1.00  0.00     0.155 C 
BRANCH  15  16
HETATM   16  C   UNL     1     -39.477  51.472 -51.890  1.00  0.00     0.139 C 
HETATM   17  O   UNL     1     -39.523  50.052 -52.144  1.00  0.00    -0.384 OA
HETATM   18  C   UNL     1     -39.775  49.851 -53.544  1.00  0.00     0.168 C 
HETATM   19  C   UNL     1     -39.737  51.213 -54.205  1.00  0.00     0.029 C 
HETATM   20  C   UNL     1     -40.160  52.124 -53.080  1.00  0.00     0.035 C 
ENDBRANCH  15  16
ENDBRANCH  12  15
ENDBRANCH   6  11
BRANCH   8  21
HETATM   21  C   UNL     1     -41.514  59.076 -52.571  1.00  0.00     0.409 C 
HETATM   22  F   UNL     1     -41.908  60.258 -53.081  1.00  0.00    -0.169 F 
HETATM   23  F   UNL     1     -40.187  59.184 -52.302  1.00  0.00    -0.169 F 
HETATM   24  F   UNL     1     -41.627  58.153 -53.553  1.00  0.00    -0.169 F 
ENDBRANCH   8  21
BRANCH   1  25
HETATM   25  C   UNL     1     -44.885  58.645 -53.514  1.00  0.00    -0.034 A 
HETATM   26  C   UNL     1     -44.856  57.675 -54.527  1.00  0.00     0.011 A 
HETATM   27  C   UNL     1     -45.019  58.029 -55.870  1.00  0.00     0.026 A 
HETATM   28  C   UNL     1     -45.227  59.361 -56.229  1.00  0.00     0.055 A 
HETATM   29  C   UNL     1     -45.269  60.341 -55.235  1.00  0.00     0.056 A 
HETATM   30 CL   UNL     1     -45.427  59.724 -57.905  1.00  0.00    -0.083 Cl
HETATM   31  C   UNL     1     -45.099  59.984 -53.892  1.00  0.00     0.034 A 
HETATM   32 CL   UNL     1     -45.538  62.011 -55.592  1.00  0.00    -0.083 Cl
ENDBRANCH   1  25
TORSDOF 5
ENDMDL
MODEL 7
REMARK VINA RESULT:      -7.9      4.348      7.202
REMARK  5 active torsions:
REMARK  status: ('A' for Active; 'I' for Inactive)
REMARK    1  A    between atoms: C_2  and  C_3 
REMARK    2  A    between atoms: C_8  and  C_9 
REMARK       I    between atoms: C_9  and  N_10 
REMARK    3  A    between atoms: N_10  and  C_11 
REMARK    4  A    between atoms: C_11  and  C_12 
REMARK    5  A    between atoms: C_19  and  C_20 
ROOT
HETATM    1  C   UNL     1     -40.468  55.473 -51.721  1.00  0.00     0.118 C 
HETATM    2  N   UNL     1     -40.757  55.834 -53.103  1.00  0.00    -0.366 N 
HETATM    3  C   UNL     1     -41.960  56.294 -53.503  1.00  0.00     0.123 A 
HETATM    4  N   UNL     1     -42.997  56.460 -52.630  1.00  0.00    -0.240 N 
HETATM    5  N   UNL     1     -44.098  56.997 -53.182  1.00  0.00    -0.165 NA
HETATM    6  C   UNL     1     -43.771  57.118 -54.489  1.00  0.00     0.148 A 
HETATM    7  C   UNL     1     -42.435  56.688 -54.725  1.00  0.00     0.088 A 
HETATM    8  C   UNL     1     -42.918  56.166 -51.213  1.00  0.00     0.221 C 
HETATM    9  C   UNL     1     -41.449  56.160 -50.752  1.00  0.00     0.066 C 
HETATM   10  H   UNL     1     -40.006  55.668 -53.773  1.00  0.00     0.161 HD
ENDROOT
BRANCH   6  11
HETATM   11  C   UNL     1     -44.703  57.653 -55.493  1.00  0.00     0.272 C 
HETATM   12  N   UNL     1     -44.379  57.315 -56.787  1.00  0.00    -0.353 N 
HETATM   13  H   UNL     1     -43.633  56.630 -56.891  1.00  0.00     0.162 HD
HETATM   14  O   UNL     1     -45.685  58.327 -55.193  1.00  0.00    -0.266 OA
BRANCH  12  15
HETATM   15  C   UNL     1     -45.286  57.535 -57.893  1.00  0.00     0.155 C 
BRANCH  15  16
HETATM   16  C   UNL     1     -44.790  56.865 -59.172  1.00  0.00     0.139 C 
HETATM   17  O   UNL     1     -43.972  55.719 -58.858  1.00  0.00    -0.384 OA
HETATM   18  C   UNL     1     -44.272  54.678 -59.802  1.00  0.00     0.168 C 
HETATM   19  C   UNL     1     -45.213  55.266 -60.833  1.00  0.00     0.029 C 
HETATM   20  C   UNL     1     -45.919  56.339 -60.042  1.00  0.00     0.035 C 
ENDBRANCH  15  16
ENDBRANCH  12  15
ENDBRANCH   6  11
BRANCH   8  21
HETATM   21  C   UNL     1     -43.664  54.888 -50.903  1.00  0.00     0.409 C 
HETATM   22  F   UNL     1     -43.647  53.990 -51.905  1.00  0.00    -0.169 F 
HETATM   23  F   UNL     1     -43.116  54.283 -49.818  1.00  0.00    -0.169 F 
HETATM   24  F   UNL     1     -44.960  55.120 -50.591  1.00  0.00    -0.169 F 
ENDBRANCH   8  21
BRANCH   1  25
HETATM   25  C   UNL     1     -40.318  53.971 -51.532  1.00  0.00    -0.034 A 
HETATM   26  C   UNL     1     -40.371  53.349 -50.275  1.00  0.00     0.011 A 
HETATM   27  C   UNL     1     -40.246  51.962 -50.151  1.00  0.00     0.026 A 
HETATM   28  C   UNL     1     -40.077  51.164 -51.283  1.00  0.00     0.055 A 
HETATM   29  C   UNL     1     -40.032  51.762 -52.544  1.00  0.00     0.056 A 
HETATM   30 CL   UNL     1     -39.938  49.458 -51.055  1.00  0.00    -0.083 Cl
HETATM   31  C   UNL     1     -40.151  53.152 -52.664  1.00  0.00     0.034 A 
HETATM   32 CL   UNL     1     -39.841  50.846 -53.998  1.00  0.00    -0.083 Cl
ENDBRANCH   1  25
TORSDOF 5
ENDMDL
MODEL 8
REMARK VINA RESULT:      -7.6     18.186     19.366
REMARK  5 active torsions:
REMARK  status: ('A' for Active; 'I' for Inactive)
REMARK    1  A    between atoms: C_2  and  C_3 
REMARK    2  A    between atoms: C_8  and  C_9 
REMARK       I    between atoms: C_9  and  N_10 
REMARK    3  A    between atoms: N_10  and  C_11 
REMARK    4  A    between atoms: C_11  and  C_12 
REMARK    5  A    between atoms: C_19  and  C_20 
ROOT
HETATM    1  C   UNL     1     -37.103  42.319 -56.108  1.00  0.00     0.118 C 
HETATM    2  N   UNL     1     -37.819  41.682 -55.010  1.00  0.00    -0.366 N 
HETATM    3  C   UNL     1     -37.194  41.017 -54.017  1.00  0.00     0.123 A 
HETATM    4  N   UNL     1     -35.834  40.899 -53.971  1.00  0.00    -0.240 N 
HETATM    5  N   UNL     1     -35.376  40.270 -52.876  1.00  0.00    -0.165 NA
HETATM    6  C   UNL     1     -36.504  39.908 -52.223  1.00  0.00     0.148 A 
HETATM    7  C   UNL     1     -37.664  40.363 -52.910  1.00  0.00     0.088 A 
HETATM    8  C   UNL     1     -34.938  41.462 -54.960  1.00  0.00     0.221 C 
HETATM    9  C   UNL     1     -35.637  42.600 -55.726  1.00  0.00     0.066 C 
HETATM   10  H   UNL     1     -38.836  41.723 -55.059  1.00  0.00     0.161 HD
ENDROOT
BRANCH   6  11
HETATM   11  C   UNL     1     -36.480  39.161 -50.956  1.00  0.00     0.272 C 
HETATM   12  N   UNL     1     -37.540  39.446 -50.124  1.00  0.00    -0.353 N 
HETATM   13  H   UNL     1     -38.278  40.017 -50.530  1.00  0.00     0.162 HD
HETATM   14  O   UNL     1     -35.599  38.351 -50.680  1.00  0.00    -0.266 OA
BRANCH  12  15
HETATM   15  C   UNL     1     -37.832  38.654 -48.948  1.00  0.00     0.155 C 
BRANCH  15  16
HETATM   16  C   UNL     1     -39.183  37.953 -49.061  1.00  0.00     0.139 C 
HETATM   17  O   UNL     1     -40.079  38.409 -48.026  1.00  0.00    -0.384 OA
HETATM   18  C   UNL     1     -41.395  38.532 -48.589  1.00  0.00     0.168 C 
HETATM   19  C   UNL     1     -41.331  37.985 -50.000  1.00  0.00     0.029 C 
HETATM   20  C   UNL     1     -39.892  38.240 -50.374  1.00  0.00     0.035 C 
ENDBRANCH  15  16
ENDBRANCH  12  15
ENDBRANCH   6  11
BRANCH   8  21
HETATM   21  C   UNL     1     -34.390  40.369 -55.851  1.00  0.00     0.409 C 
HETATM   22  F   UNL     1     -34.203  40.750 -57.128  1.00  0.00    -0.169 F 
HETATM   23  F   UNL     1     -33.187  39.948 -55.382  1.00  0.00    -0.169 F 
HETATM   24  F   UNL     1     -35.191  39.279 -55.867  1.00  0.00    -0.169 F 
ENDBRANCH   8  21
BRANCH   1  25
HETATM   25  C   UNL     1     -37.298  41.590 -57.429  1.00  0.00    -0.034 A 
HETATM   26  C   UNL     1     -36.999  42.167 -58.673  1.00  0.00     0.011 A 
HETATM   27  C   UNL     1     -37.177  41.452 -59.862  1.00  0.00     0.026 A 
HETATM   28  C   UNL     1     -37.647  40.139 -59.831  1.00  0.00     0.055 A 
HETATM   29  C   UNL     1     -37.941  39.542 -58.603  1.00  0.00     0.056 A 
HETATM   30 CL   UNL     1     -37.835  39.313 -61.336  1.00  0.00    -0.083 Cl
HETATM   31  C   UNL     1     -37.768  40.263 -57.415  1.00  0.00     0.034 A 
HETATM   32 CL   UNL     1     -38.512  37.915 -58.475  1.00  0.00    -0.083 Cl
ENDBRANCH   1  25
TORSDOF 5
ENDMDL
MODEL 9
REMARK VINA RESULT:      -7.5      3.712      5.805
REMARK  5 active torsions:
REMARK  status: ('A' for Active; 'I' for Inactive)
REMARK    1  A    between atoms: C_2  and  C_3 
REMARK    2  A    between atoms: C_8  and  C_9 
REMARK       I    between atoms: C_9  and  N_10 
REMARK    3  A    between atoms: N_10  and  C_11 
REMARK    4  A    between atoms: C_11  and  C_12 
REMARK    5  A    between atoms: C_19  and  C_20 
ROOT
HETATM    1  C   UNL     1     -40.588  55.045 -51.056  1.00  0.00     0.118 C 
HETATM    2  N   UNL     1     -40.831  56.224 -51.877  1.00  0.00    -0.366 N 
HETATM    3  C   UNL     1     -42.039  56.817 -51.967  1.00  0.00     0.123 A 
HETATM    4  N   UNL     1     -43.125  56.349 -51.283  1.00  0.00    -0.240 N 
HETATM    5  N   UNL     1     -44.229  57.102 -51.429  1.00  0.00    -0.165 NA
HETATM    6  C   UNL     1     -43.847  58.059 -52.305  1.00  0.00     0.148 A 
HETATM    7  C   UNL     1     -42.478  57.912 -52.661  1.00  0.00     0.088 A 
HETATM    8  C   UNL     1     -43.098  55.195 -50.408  1.00  0.00     0.221 C 
HETATM    9  C   UNL     1     -41.655  54.907 -49.953  1.00  0.00     0.066 C 
HETATM   10  H   UNL     1     -40.040  56.552 -52.430  1.00  0.00     0.161 HD
ENDROOT
BRANCH   6  11
HETATM   11  C   UNL     1     -44.761  59.110 -52.778  1.00  0.00     0.272 C 
HETATM   12  N   UNL     1     -44.468  59.574 -54.040  1.00  0.00    -0.353 N 
HETATM   13  H   UNL     1     -43.759  59.049 -54.549  1.00  0.00     0.162 HD
HETATM   14  O   UNL     1     -45.704  59.521 -52.106  1.00  0.00    -0.266 OA
BRANCH  12  15
HETATM   15  C   UNL     1     -45.374  60.427 -54.779  1.00  0.00     0.155 C 
BRANCH  15  16
HETATM   16  C   UNL     1     -45.653  59.877 -56.176  1.00  0.00     0.139 C 
HETATM   17  O   UNL     1     -44.735  60.443 -57.135  1.00  0.00    -0.384 OA
HETATM   18  C   UNL     1     -44.357  59.413 -58.063  1.00  0.00     0.168 C 
HETATM   19  C   UNL     1     -45.197  58.194 -57.743  1.00  0.00     0.029 C 
HETATM   20  C   UNL     1     -45.468  58.372 -56.270  1.00  0.00     0.035 C 
ENDBRANCH  15  16
ENDBRANCH  12  15
ENDBRANCH   6  11
BRANCH   8  21
HETATM   21  C   UNL     1     -43.778  54.020 -51.073  1.00  0.00     0.409 C 
HETATM   22  F   UNL     1     -45.018  53.775 -50.610  1.00  0.00    -0.169 F 
HETATM   23  F   UNL     1     -43.890  54.242 -52.408  1.00  0.00    -0.169 F 
HETATM   24  F   UNL     1     -43.064  52.879 -50.939  1.00  0.00    -0.169 F 
ENDBRANCH   8  21
BRANCH   1  25
HETATM   25  C   UNL     1     -40.355  53.794 -51.889  1.00  0.00    -0.034 A 
HETATM   26  C   UNL     1     -40.476  53.772 -53.287  1.00  0.00     0.011 A 
HETATM   27  C   UNL     1     -40.235  52.602 -54.014  1.00  0.00     0.026 A 
HETATM   28  C   UNL     1     -39.853  51.431 -53.360  1.00  0.00     0.055 A 
HETATM   29  C   UNL     1     -39.715  51.433 -51.970  1.00  0.00     0.056 A 
HETATM   30 CL   UNL     1     -39.563  50.027 -54.321  1.00  0.00    -0.083 Cl
HETATM   31  C   UNL     1     -39.965  52.605 -51.244  1.00  0.00     0.034 A 
HETATM   32 CL   UNL     1     -39.232  50.030 -51.083  1.00  0.00    -0.083 Cl
ENDBRANCH   1  25
TORSDOF 5
ENDMDL
MODEL 10
REMARK VINA RESULT:      -7.4      4.339      7.060
REMARK  5 active torsions:
REMARK  status: ('A' for Active; 'I' for Inactive)
REMARK    1  A    between atoms: C_2  and  C_3 
REMARK    2  A    between atoms: C_8  and  C_9 
REMARK       I    between atoms: C_9  and  N_10 
REMARK    3  A    between atoms: N_10  and  C_11 
REMARK    4  A    between atoms: C_11  and  C_12 
REMARK    5  A    between atoms: C_19  and  C_20 
ROOT
HETATM    1  C   UNL     1     -41.637  55.914 -50.914  1.00  0.00     0.118 C 
HETATM    2  N   UNL     1     -40.931  56.835 -51.795  1.00  0.00    -0.366 N 
HETATM    3  C   UNL     1     -41.472  57.322 -52.931  1.00  0.00     0.123 A 
HETATM    4  N   UNL     1     -42.732  56.983 -53.334  1.00  0.00    -0.240 N 
HETATM    5  N   UNL     1     -43.140  57.614 -54.447  1.00  0.00    -0.165 NA
HETATM    6  C   UNL     1     -42.059  58.342 -54.813  1.00  0.00     0.148 A 
HETATM    7  C   UNL     1     -40.995  58.184 -53.882  1.00  0.00     0.088 A 
HETATM    8  C   UNL     1     -43.604  56.086 -52.601  1.00  0.00     0.221 C 
HETATM    9  C   UNL     1     -43.161  55.999 -51.129  1.00  0.00     0.066 C 
HETATM   10  H   UNL     1     -39.972  57.057 -51.530  1.00  0.00     0.161 HD
ENDROOT
BRANCH   6  11
HETATM   11  C   UNL     1     -42.046  59.191 -56.014  1.00  0.00     0.272 C 
HETATM   12  N   UNL     1     -42.429  58.534 -57.162  1.00  0.00    -0.353 N 
HETATM   13  H   UNL     1     -42.809  57.599 -57.029  1.00  0.00     0.162 HD
HETATM   14  O   UNL     1     -41.732  60.378 -55.984  1.00  0.00    -0.266 OA
BRANCH  12  15
HETATM   15  C   UNL     1     -42.711  59.237 -58.395  1.00  0.00     0.155 C 
BRANCH  15  16
HETATM   16  C   UNL     1     -42.935  58.271 -59.556  1.00  0.00     0.139 C 
HETATM   17  O   UNL     1     -42.175  57.060 -59.361  1.00  0.00    -0.384 OA
HETATM   18  C   UNL     1     -42.975  55.949 -59.795  1.00  0.00     0.168 C 
HETATM   19  C   UNL     1     -44.230  56.520 -60.421  1.00  0.00     0.029 C 
HETATM   20  C   UNL     1     -44.382  57.830 -59.691  1.00  0.00     0.035 C 
ENDBRANCH  15  16
ENDBRANCH  12  15
ENDBRANCH   6  11
BRANCH   8  21
HETATM   21  C   UNL     1     -43.682  54.747 -53.299  1.00  0.00     0.409 C 
HETATM   22  F   UNL     1     -44.706  54.644 -54.166  1.00  0.00    -0.169 F 
HETATM   23  F   UNL     1     -42.542  54.524 -54.003  1.00  0.00    -0.169 F 
HETATM   24  F   UNL     1     -43.790  53.724 -52.422  1.00  0.00    -0.169 F 
ENDBRANCH   8  21
BRANCH   1  25
HETATM   25  C   UNL     1     -41.056  54.509 -50.957  1.00  0.00    -0.034 A 
HETATM   26  C   UNL     1     -40.952  53.689 -49.823  1.00  0.00     0.011 A 
HETATM   27  C   UNL     1     -40.427  52.396 -49.913  1.00  0.00     0.026 A 
HETATM   28  C   UNL     1     -40.006  51.889 -51.142  1.00  0.00     0.055 A 
HETATM   29  C   UNL     1     -40.111  52.685 -52.285  1.00  0.00     0.056 A 
HETATM   30 CL   UNL     1     -39.376  50.282 -51.181  1.00  0.00    -0.083 Cl
HETATM   31  C   UNL     1     -40.630  53.982 -52.190  1.00  0.00     0.034 A 
HETATM   32 CL   UNL     1     -39.627  52.129 -53.849  1.00  0.00    -0.083 Cl
ENDBRANCH   1  25
TORSDOF 5
ENDMDL
