MODEL 1
REMARK VINA RESULT:      -9.4      0.000      0.000
REMARK  4 active torsions:
REMARK  status: ('A' for Active; 'I' for Inactive)
REMARK    1  A    between atoms: C_3  and  C_4 
REMARK    2  A    between atoms: C_9  and  N_10 
REMARK       I    between atoms: N_10  and  C_11 
REMARK    3  A    between atoms: C_11  and  C_12 
REMARK    4  A    between atoms: C_12  and  C_13 
ROOT
HETATM    1  N   UNL     1     -41.852  55.509 -56.571  1.00  0.00    -0.327 N 
HETATM    2  C   UNL     1     -41.935  54.528 -55.613  1.00  0.00     0.227 C 
HETATM    3  O   UNL     1     -42.980  54.004 -55.224  1.00  0.00    -0.273 OA
HETATM    4  H   UNL     1     -40.913  55.865 -56.755  1.00  0.00     0.169 HD
ENDROOT
BRANCH   2   5
HETATM    5  C   UNL     1     -40.631  54.069 -54.987  1.00  0.00     0.165 C 
BRANCH   5   6
HETATM    6  C   UNL     1     -40.532  53.708 -53.516  1.00  0.00     0.074 A 
HETATM    7  N   UNL     1     -40.766  54.618 -52.615  1.00  0.00    -0.175 NA
HETATM    8  N   UNL     1     -40.666  54.277 -51.303  1.00  0.00    -0.243 N 
HETATM    9  C   UNL     1     -40.331  53.041 -50.808  1.00  0.00     0.272 A 
HETATM   10  H   UNL     1     -40.849  55.006 -50.618  1.00  0.00     0.192 HD
HETATM   11  O   UNL     1     -40.249  52.818 -49.606  1.00  0.00    -0.266 OA
HETATM   12  C   UNL     1     -40.081  51.991 -51.807  1.00  0.00     0.046 A 
HETATM   13  C   UNL     1     -40.188  52.303 -53.160  1.00  0.00     0.006 A 
HETATM   14  C   UNL     1     -39.753  50.694 -51.395  1.00  0.00     0.018 A 
HETATM   15  C   UNL     1     -39.977  51.298 -54.113  1.00  0.00     0.014 A 
HETATM   16  C   UNL     1     -39.649  50.002 -53.703  1.00  0.00     0.001 A 
HETATM   17  C   UNL     1     -39.534  49.700 -52.347  1.00  0.00     0.001 A 
ENDBRANCH   5   6
ENDBRANCH   2   5
BRANCH   1  18
HETATM   18  C   UNL     1     -42.891  56.094 -57.320  1.00  0.00     0.035 A 
HETATM   19  C   UNL     1     -43.574  55.451 -58.352  1.00  0.00     0.046 A 
HETATM   20  C   UNL     1     -44.604  56.100 -59.067  1.00  0.00     0.056 A 
HETATM   21  C   UNL     1     -44.963  57.419 -58.716  1.00  0.00    -0.047 A 
HETATM   22  C   UNL     1     -46.050  58.164 -59.442  1.00  0.00     0.049 C 
HETATM   23  C   UNL     1     -44.263  58.064 -57.688  1.00  0.00     0.010 A 
HETATM   24  C   UNL     1     -43.241  57.408 -56.998  1.00  0.00     0.030 A 
BRANCH  20  25
HETATM   25  C   UNL     1     -45.313  55.354 -60.178  1.00  0.00     0.418 C 
HETATM   26  F   UNL     1     -45.161  54.002 -60.090  1.00  0.00    -0.166 F 
HETATM   27  F   UNL     1     -46.659  55.563 -60.214  1.00  0.00    -0.166 F 
HETATM   28  F   UNL     1     -44.854  55.700 -61.413  1.00  0.00    -0.166 F 
ENDBRANCH  20  25
ENDBRANCH   1  18
TORSDOF 4
ENDMDL
MODEL 2
REMARK VINA RESULT:      -9.2      3.733      8.735
REMARK  4 active torsions:
REMARK  status: ('A' for Active; 'I' for Inactive)
REMARK    1  A    between atoms: C_3  and  C_4 
REMARK    2  A    between atoms: C_9  and  N_10 
REMARK       I    between atoms: N_10  and  C_11 
REMARK    3  A    between atoms: C_11  and  C_12 
REMARK    4  A    between atoms: C_12  and  C_13 
ROOT
HETATM    1  N   UNL     1     -41.035  54.947 -54.640  1.00  0.00    -0.327 N 
HETATM    2  C   UNL     1     -42.151  55.744 -54.557  1.00  0.00     0.227 C 
HETATM    3  O   UNL     1     -43.051  55.618 -53.726  1.00  0.00    -0.273 OA
HETATM    4  H   UNL     1     -40.399  55.160 -55.409  1.00  0.00     0.169 HD
ENDROOT
BRANCH   2   5
HETATM    5  C   UNL     1     -42.276  56.856 -55.582  1.00  0.00     0.165 C 
BRANCH   5   6
HETATM    6  C   UNL     1     -42.698  56.583 -57.014  1.00  0.00     0.074 A 
HETATM    7  N   UNL     1     -43.243  55.440 -57.315  1.00  0.00    -0.175 NA
HETATM    8  N   UNL     1     -43.609  55.210 -58.604  1.00  0.00    -0.243 N 
HETATM    9  C   UNL     1     -43.458  56.078 -59.657  1.00  0.00     0.272 A 
HETATM   10  H   UNL     1     -44.029  54.309 -58.815  1.00  0.00     0.192 HD
HETATM   11  O   UNL     1     -43.802  55.788 -60.797  1.00  0.00    -0.266 OA
HETATM   12  C   UNL     1     -42.862  57.384 -59.339  1.00  0.00     0.046 A 
HETATM   13  C   UNL     1     -42.488  57.656 -58.025  1.00  0.00     0.006 A 
HETATM   14  C   UNL     1     -42.687  58.340 -60.346  1.00  0.00     0.018 A 
HETATM   15  C   UNL     1     -41.945  58.910 -57.714  1.00  0.00     0.014 A 
HETATM   16  C   UNL     1     -41.770  59.866 -58.719  1.00  0.00     0.001 A 
HETATM   17  C   UNL     1     -42.137  59.582 -60.033  1.00  0.00     0.001 A 
ENDBRANCH   5   6
ENDBRANCH   2   5
BRANCH   1  18
HETATM   18  C   UNL     1     -40.661  53.872 -53.811  1.00  0.00     0.035 A 
HETATM   19  C   UNL     1     -40.487  52.561 -54.254  1.00  0.00     0.046 A 
HETATM   20  C   UNL     1     -40.117  51.528 -53.366  1.00  0.00     0.056 A 
HETATM   21  C   UNL     1     -39.898  51.834 -52.005  1.00  0.00    -0.047 A 
HETATM   22  C   UNL     1     -39.504  50.777 -51.009  1.00  0.00     0.049 C 
HETATM   23  C   UNL     1     -40.088  53.150 -51.564  1.00  0.00     0.010 A 
HETATM   24  C   UNL     1     -40.463  54.156 -52.457  1.00  0.00     0.030 A 
BRANCH  20  25
HETATM   25  C   UNL     1     -39.941  50.123 -53.901  1.00  0.00     0.418 C 
HETATM   26  F   UNL     1     -38.797  49.971 -54.627  1.00  0.00    -0.166 F 
HETATM   27  F   UNL     1     -39.884  49.165 -52.934  1.00  0.00    -0.166 F 
HETATM   28  F   UNL     1     -40.958  49.750 -54.728  1.00  0.00    -0.166 F 
ENDBRANCH  20  25
ENDBRANCH   1  18
TORSDOF 4
ENDMDL
MODEL 3
REMARK VINA RESULT:      -9.0      3.708      8.675
REMARK  4 active torsions:
REMARK  status: ('A' for Active; 'I' for Inactive)
REMARK    1  A    between atoms: C_3  and  C_4 
REMARK    2  A    between atoms: C_9  and  N_10 
REMARK       I    between atoms: N_10  and  C_11 
REMARK    3  A    between atoms: C_11  and  C_12 
REMARK    4  A    between atoms: C_12  and  C_13 
ROOT
HETATM    1  N   UNL     1     -41.107  54.783 -55.622  1.00  0.00    -0.327 N 
HETATM    2  C   UNL     1     -42.351  55.228 -56.000  1.00  0.00     0.227 C 
HETATM    3  O   UNL     1     -43.414  54.881 -55.483  1.00  0.00    -0.273 OA
HETATM    4  H   UNL     1     -40.327  55.139 -56.175  1.00  0.00     0.169 HD
ENDROOT
BRANCH   2   5
HETATM    5  C   UNL     1     -42.406  56.214 -57.152  1.00  0.00     0.165 C 
BRANCH   5   6
HETATM    6  C   UNL     1     -43.692  56.917 -57.545  1.00  0.00     0.074 A 
HETATM    7  N   UNL     1     -44.112  57.928 -56.841  1.00  0.00    -0.175 NA
HETATM    8  N   UNL     1     -45.269  58.541 -57.205  1.00  0.00    -0.243 N 
HETATM    9  C   UNL     1     -46.072  58.196 -58.265  1.00  0.00     0.272 A 
HETATM   10  H   UNL     1     -45.579  59.325 -56.638  1.00  0.00     0.192 HD
HETATM   11  O   UNL     1     -47.112  58.793 -58.519  1.00  0.00    -0.266 OA
HETATM   12  C   UNL     1     -45.608  57.069 -59.087  1.00  0.00     0.046 A 
HETATM   13  C   UNL     1     -44.419  56.427 -58.749  1.00  0.00     0.006 A 
HETATM   14  C   UNL     1     -46.352  56.659 -60.200  1.00  0.00     0.018 A 
HETATM   15  C   UNL     1     -43.961  55.370 -59.547  1.00  0.00     0.014 A 
HETATM   16  C   UNL     1     -44.703  54.960 -60.659  1.00  0.00     0.001 A 
HETATM   17  C   UNL     1     -45.897  55.600 -60.984  1.00  0.00     0.001 A 
ENDBRANCH   5   6
ENDBRANCH   2   5
BRANCH   1  18
HETATM   18  C   UNL     1     -40.772  53.895 -54.582  1.00  0.00     0.035 A 
HETATM   19  C   UNL     1     -40.531  52.532 -54.759  1.00  0.00     0.046 A 
HETATM   20  C   UNL     1     -40.204  51.697 -53.669  1.00  0.00     0.056 A 
HETATM   21  C   UNL     1     -40.098  52.257 -52.378  1.00  0.00    -0.047 A 
HETATM   22  C   UNL     1     -39.756  51.418 -51.176  1.00  0.00     0.049 C 
HETATM   23  C   UNL     1     -40.355  53.623 -52.205  1.00  0.00     0.010 A 
HETATM   24  C   UNL     1     -40.686  54.431 -53.295  1.00  0.00     0.030 A 
BRANCH  20  25
HETATM   25  C   UNL     1     -39.953  50.225 -53.918  1.00  0.00     0.418 C 
HETATM   26  F   UNL     1     -38.728  49.981 -54.466  1.00  0.00    -0.166 F 
HETATM   27  F   UNL     1     -40.004  49.456 -52.794  1.00  0.00    -0.166 F 
HETATM   28  F   UNL     1     -40.859  49.680 -54.778  1.00  0.00    -0.166 F 
ENDBRANCH  20  25
ENDBRANCH   1  18
TORSDOF 4
ENDMDL
MODEL 4
REMARK VINA RESULT:      -8.9      1.808      2.354
REMARK  4 active torsions:
REMARK  status: ('A' for Active; 'I' for Inactive)
REMARK    1  A    between atoms: C_3  and  C_4 
REMARK    2  A    between atoms: C_9  and  N_10 
REMARK       I    between atoms: N_10  and  C_11 
REMARK    3  A    between atoms: C_11  and  C_12 
REMARK    4  A    between atoms: C_12  and  C_13 
ROOT
HETATM    1  N   UNL     1     -41.991  55.594 -56.766  1.00  0.00    -0.327 N 
HETATM    2  C   UNL     1     -42.039  54.684 -55.738  1.00  0.00     0.227 C 
HETATM    3  O   UNL     1     -43.071  54.215 -55.255  1.00  0.00    -0.273 OA
HETATM    4  H   UNL     1     -41.057  55.912 -57.028  1.00  0.00     0.169 HD
ENDROOT
BRANCH   2   5
HETATM    5  C   UNL     1     -40.712  54.237 -55.154  1.00  0.00     0.165 C 
BRANCH   5   6
HETATM    6  C   UNL     1     -40.576  53.811 -53.704  1.00  0.00     0.074 A 
HETATM    7  N   UNL     1     -40.787  54.679 -52.758  1.00  0.00    -0.175 NA
HETATM    8  N   UNL     1     -40.655  54.281 -51.465  1.00  0.00    -0.243 N 
HETATM    9  C   UNL     1     -40.309  53.024 -51.035  1.00  0.00     0.272 A 
HETATM   10  H   UNL     1     -40.820  54.978 -50.744  1.00  0.00     0.192 HD
HETATM   11  O   UNL     1     -40.197  52.748 -49.846  1.00  0.00    -0.266 OA
HETATM   12  C   UNL     1     -40.085  52.019 -52.085  1.00  0.00     0.046 A 
HETATM   13  C   UNL     1     -40.225  52.392 -53.420  1.00  0.00     0.006 A 
HETATM   14  C   UNL     1     -39.748  50.705 -51.740  1.00  0.00     0.018 A 
HETATM   15  C   UNL     1     -40.038  51.430 -54.422  1.00  0.00     0.014 A 
HETATM   16  C   UNL     1     -39.702  50.117 -54.079  1.00  0.00     0.001 A 
HETATM   17  C   UNL     1     -39.553  49.755 -52.741  1.00  0.00     0.001 A 
ENDBRANCH   5   6
ENDBRANCH   2   5
BRANCH   1  18
HETATM   18  C   UNL     1     -43.059  56.151 -57.496  1.00  0.00     0.035 A 
HETATM   19  C   UNL     1     -43.886  57.170 -57.024  1.00  0.00     0.046 A 
HETATM   20  C   UNL     1     -44.945  57.679 -57.807  1.00  0.00     0.056 A 
HETATM   21  C   UNL     1     -45.155  57.160 -59.103  1.00  0.00    -0.047 A 
HETATM   22  C   UNL     1     -46.268  57.659 -59.985  1.00  0.00     0.049 C 
HETATM   23  C   UNL     1     -44.329  56.127 -59.566  1.00  0.00     0.010 A 
HETATM   24  C   UNL     1     -43.293  55.631 -58.771  1.00  0.00     0.030 A 
BRANCH  20  25
HETATM   25  C   UNL     1     -45.812  58.786 -57.245  1.00  0.00     0.418 C 
HETATM   26  F   UNL     1     -45.524  59.076 -55.945  1.00  0.00    -0.166 F 
HETATM   27  F   UNL     1     -45.700  59.969 -57.912  1.00  0.00    -0.166 F 
HETATM   28  F   UNL     1     -47.138  58.472 -57.272  1.00  0.00    -0.166 F 
ENDBRANCH  20  25
ENDBRANCH   1  18
TORSDOF 4
ENDMDL
MODEL 5
REMARK VINA RESULT:      -8.8      4.554      9.104
REMARK  4 active torsions:
REMARK  status: ('A' for Active; 'I' for Inactive)
REMARK    1  A    between atoms: C_3  and  C_4 
REMARK    2  A    between atoms: C_9  and  N_10 
REMARK       I    between atoms: N_10  and  C_11 
REMARK    3  A    between atoms: C_11  and  C_12 
REMARK    4  A    between atoms: C_12  and  C_13 
ROOT
HETATM    1  N   UNL     1     -41.828  55.352 -54.510  1.00  0.00    -0.327 N 
HETATM    2  C   UNL     1     -41.569  56.701 -54.485  1.00  0.00     0.227 C 
HETATM    3  O   UNL     1     -40.757  57.253 -53.742  1.00  0.00    -0.273 OA
HETATM    4  H   UNL     1     -42.557  55.056 -55.160  1.00  0.00     0.169 HD
ENDROOT
BRANCH   2   5
HETATM    5  C   UNL     1     -42.360  57.568 -55.447  1.00  0.00     0.165 C 
BRANCH   5   6
HETATM    6  C   UNL     1     -42.699  57.104 -56.852  1.00  0.00     0.074 A 
HETATM    7  N   UNL     1     -43.189  55.912 -57.033  1.00  0.00    -0.175 NA
HETATM    8  N   UNL     1     -43.480  55.511 -58.298  1.00  0.00    -0.243 N 
HETATM    9  C   UNL     1     -43.305  56.249 -59.444  1.00  0.00     0.272 A 
HETATM   10  H   UNL     1     -43.857  54.575 -58.415  1.00  0.00     0.192 HD
HETATM   11  O   UNL     1     -43.581  55.808 -60.553  1.00  0.00    -0.266 OA
HETATM   12  C   UNL     1     -42.772  57.607 -59.263  1.00  0.00     0.046 A 
HETATM   13  C   UNL     1     -42.475  58.053 -57.977  1.00  0.00     0.006 A 
HETATM   14  C   UNL     1     -42.579  58.439 -60.372  1.00  0.00     0.018 A 
HETATM   15  C   UNL     1     -41.991  59.357 -57.800  1.00  0.00     0.014 A 
HETATM   16  C   UNL     1     -41.798  60.189 -58.906  1.00  0.00     0.001 A 
HETATM   17  C   UNL     1     -42.088  59.731 -60.191  1.00  0.00     0.001 A 
ENDBRANCH   5   6
ENDBRANCH   2   5
BRANCH   1  18
HETATM   18  C   UNL     1     -41.228  54.330 -53.750  1.00  0.00     0.035 A 
HETATM   19  C   UNL     1     -41.149  54.329 -52.357  1.00  0.00     0.046 A 
HETATM   20  C   UNL     1     -40.527  53.272 -51.657  1.00  0.00     0.056 A 
HETATM   21  C   UNL     1     -39.993  52.185 -52.382  1.00  0.00    -0.047 A 
HETATM   22  C   UNL     1     -39.315  51.030 -51.694  1.00  0.00     0.049 C 
HETATM   23  C   UNL     1     -40.063  52.198 -53.781  1.00  0.00     0.010 A 
HETATM   24  C   UNL     1     -40.675  53.258 -54.455  1.00  0.00     0.030 A 
BRANCH  20  25
HETATM   25  C   UNL     1     -40.470  53.322 -50.145  1.00  0.00     0.418 C 
HETATM   26  F   UNL     1     -41.501  54.027 -49.598  1.00  0.00    -0.166 F 
HETATM   27  F   UNL     1     -40.514  52.097 -49.549  1.00  0.00    -0.166 F 
HETATM   28  F   UNL     1     -39.331  53.913 -49.687  1.00  0.00    -0.166 F 
ENDBRANCH  20  25
ENDBRANCH   1  18
TORSDOF 4
ENDMDL
MODEL 6
REMARK VINA RESULT:      -8.7      3.693      8.934
REMARK  4 active torsions:
REMARK  status: ('A' for Active; 'I' for Inactive)
REMARK    1  A    between atoms: C_3  and  C_4 
REMARK    2  A    between atoms: C_9  and  N_10 
REMARK       I    between atoms: N_10  and  C_11 
REMARK    3  A    between atoms: C_11  and  C_12 
REMARK    4  A    between atoms: C_12  and  C_13 
ROOT
HETATM    1  N   UNL     1     -41.193  54.929 -55.519  1.00  0.00    -0.327 N 
HETATM    2  C   UNL     1     -42.442  55.359 -55.898  1.00  0.00     0.227 C 
HETATM    3  O   UNL     1     -43.502  54.985 -55.396  1.00  0.00    -0.273 OA
HETATM    4  H   UNL     1     -40.415  55.309 -56.060  1.00  0.00     0.169 HD
ENDROOT
BRANCH   2   5
HETATM    5  C   UNL     1     -42.506  56.366 -57.032  1.00  0.00     0.165 C 
BRANCH   5   6
HETATM    6  C   UNL     1     -43.477  56.211 -58.188  1.00  0.00     0.074 A 
HETATM    7  N   UNL     1     -43.237  55.327 -59.112  1.00  0.00    -0.175 NA
HETATM    8  N   UNL     1     -44.114  55.206 -60.144  1.00  0.00    -0.243 N 
HETATM    9  C   UNL     1     -45.260  55.941 -60.324  1.00  0.00     0.272 A 
HETATM   10  H   UNL     1     -43.903  54.512 -60.856  1.00  0.00     0.192 HD
HETATM   11  O   UNL     1     -45.994  55.780 -61.292  1.00  0.00    -0.266 OA
HETATM   12  C   UNL     1     -45.563  56.933 -59.282  1.00  0.00     0.046 A 
HETATM   13  C   UNL     1     -44.691  57.073 -58.205  1.00  0.00     0.006 A 
HETATM   14  C   UNL     1     -46.721  57.714 -59.372  1.00  0.00     0.018 A 
HETATM   15  C   UNL     1     -44.992  57.998 -57.197  1.00  0.00     0.014 A 
HETATM   16  C   UNL     1     -46.148  58.779 -57.285  1.00  0.00     0.001 A 
HETATM   17  C   UNL     1     -47.010  58.641 -58.371  1.00  0.00     0.001 A 
ENDBRANCH   5   6
ENDBRANCH   2   5
BRANCH   1  18
HETATM   18  C   UNL     1     -40.849  54.029 -54.494  1.00  0.00     0.035 A 
HETATM   19  C   UNL     1     -40.569  52.677 -54.696  1.00  0.00     0.046 A 
HETATM   20  C   UNL     1     -40.236  51.827 -53.619  1.00  0.00     0.056 A 
HETATM   21  C   UNL     1     -40.165  52.361 -52.314  1.00  0.00    -0.047 A 
HETATM   22  C   UNL     1     -39.818  51.506 -51.125  1.00  0.00     0.049 C 
HETATM   23  C   UNL     1     -40.461  53.716 -52.116  1.00  0.00     0.010 A 
HETATM   24  C   UNL     1     -40.797  54.539 -53.194  1.00  0.00     0.030 A 
BRANCH  20  25
HETATM   25  C   UNL     1     -39.940  50.368 -53.895  1.00  0.00     0.418 C 
HETATM   26  F   UNL     1     -39.914  49.608 -52.763  1.00  0.00    -0.166 F 
HETATM   27  F   UNL     1     -40.848  49.765 -54.714  1.00  0.00    -0.166 F 
HETATM   28  F   UNL     1     -38.729  50.187 -54.492  1.00  0.00    -0.166 F 
ENDBRANCH  20  25
ENDBRANCH   1  18
TORSDOF 4
ENDMDL
MODEL 7
REMARK VINA RESULT:      -8.5      1.890      2.563
REMARK  4 active torsions:
REMARK  status: ('A' for Active; 'I' for Inactive)
REMARK    1  A    between atoms: C_3  and  C_4 
REMARK    2  A    between atoms: C_9  and  N_10 
REMARK       I    between atoms: N_10  and  C_11 
REMARK    3  A    between atoms: C_11  and  C_12 
REMARK    4  A    between atoms: C_12  and  C_13 
ROOT
HETATM    1  N   UNL     1     -41.564  55.594 -55.032  1.00  0.00    -0.327 N 
HETATM    2  C   UNL     1     -41.967  55.334 -53.744  1.00  0.00     0.227 C 
HETATM    3  O   UNL     1     -43.046  55.678 -53.257  1.00  0.00    -0.273 OA
HETATM    4  H   UNL     1     -40.625  55.272 -55.271  1.00  0.00     0.169 HD
ENDROOT
BRANCH   2   5
HETATM    5  C   UNL     1     -40.996  54.573 -52.861  1.00  0.00     0.165 C 
BRANCH   5   6
HETATM    6  C   UNL     1     -40.492  53.190 -53.230  1.00  0.00     0.074 A 
HETATM    7  N   UNL     1     -40.224  52.916 -54.474  1.00  0.00    -0.175 NA
HETATM    8  N   UNL     1     -39.780  51.670 -54.786  1.00  0.00    -0.243 N 
HETATM    9  C   UNL     1     -39.580  50.635 -53.906  1.00  0.00     0.272 A 
HETATM   10  H   UNL     1     -39.582  51.478 -55.765  1.00  0.00     0.192 HD
HETATM   11  O   UNL     1     -39.189  49.532 -54.271  1.00  0.00    -0.266 OA
HETATM   12  C   UNL     1     -39.856  50.927 -52.491  1.00  0.00     0.046 A 
HETATM   13  C   UNL     1     -40.301  52.198 -52.136  1.00  0.00     0.006 A 
HETATM   14  C   UNL     1     -39.662  49.938 -51.519  1.00  0.00     0.018 A 
HETATM   15  C   UNL     1     -40.539  52.487 -50.786  1.00  0.00     0.014 A 
HETATM   16  C   UNL     1     -40.345  51.501 -49.813  1.00  0.00     0.001 A 
HETATM   17  C   UNL     1     -39.910  50.228 -50.179  1.00  0.00     0.001 A 
ENDBRANCH   5   6
ENDBRANCH   2   5
BRANCH   1  18
HETATM   18  C   UNL     1     -42.270  56.252 -56.056  1.00  0.00     0.035 A 
HETATM   19  C   UNL     1     -42.867  55.607 -57.140  1.00  0.00     0.046 A 
HETATM   20  C   UNL     1     -43.556  56.331 -58.136  1.00  0.00     0.056 A 
HETATM   21  C   UNL     1     -43.661  57.734 -58.022  1.00  0.00    -0.047 A 
HETATM   22  C   UNL     1     -44.381  58.562 -59.053  1.00  0.00     0.049 C 
HETATM   23  C   UNL     1     -43.048  58.377 -56.939  1.00  0.00     0.010 A 
HETATM   24  C   UNL     1     -42.363  57.644 -55.968  1.00  0.00     0.030 A 
BRANCH  20  25
HETATM   25  C   UNL     1     -44.186  55.580 -59.291  1.00  0.00     0.418 C 
HETATM   26  F   UNL     1     -43.599  55.859 -60.489  1.00  0.00    -0.166 F 
HETATM   27  F   UNL     1     -44.127  54.224 -59.167  1.00  0.00    -0.166 F 
HETATM   28  F   UNL     1     -45.507  55.878 -59.446  1.00  0.00    -0.166 F 
ENDBRANCH  20  25
ENDBRANCH   1  18
TORSDOF 4
ENDMDL
MODEL 8
REMARK VINA RESULT:      -8.4      2.980      3.547
REMARK  4 active torsions:
REMARK  status: ('A' for Active; 'I' for Inactive)
REMARK    1  A    between atoms: C_3  and  C_4 
REMARK    2  A    between atoms: C_9  and  N_10 
REMARK       I    between atoms: N_10  and  C_11 
REMARK    3  A    between atoms: C_11  and  C_12 
REMARK    4  A    between atoms: C_12  and  C_13 
ROOT
HETATM    1  N   UNL     1     -43.244  55.917 -56.505  1.00  0.00    -0.327 N 
HETATM    2  C   UNL     1     -42.518  55.608 -55.380  1.00  0.00     0.227 C 
HETATM    3  O   UNL     1     -41.400  56.053 -55.114  1.00  0.00    -0.273 OA
HETATM    4  H   UNL     1     -44.139  55.435 -56.596  1.00  0.00     0.169 HD
ENDROOT
BRANCH   2   5
HETATM    5  C   UNL     1     -43.149  54.634 -54.402  1.00  0.00     0.165 C 
BRANCH   5   6
HETATM    6  C   UNL     1     -42.523  54.333 -53.053  1.00  0.00     0.074 A 
HETATM    7  N   UNL     1     -42.971  54.936 -51.990  1.00  0.00    -0.175 NA
HETATM    8  N   UNL     1     -42.394  54.658 -50.791  1.00  0.00    -0.243 N 
HETATM    9  C   UNL     1     -41.354  53.788 -50.572  1.00  0.00     0.272 A 
HETATM   10  H   UNL     1     -42.758  55.144 -49.975  1.00  0.00     0.192 HD
HETATM   11  O   UNL     1     -40.880  53.603 -49.458  1.00  0.00    -0.266 OA
HETATM   12  C   UNL     1     -40.844  53.080 -51.756  1.00  0.00     0.046 A 
HETATM   13  C   UNL     1     -41.422  53.332 -52.998  1.00  0.00     0.006 A 
HETATM   14  C   UNL     1     -39.799  52.158 -51.626  1.00  0.00     0.018 A 
HETATM   15  C   UNL     1     -40.956  52.639 -54.123  1.00  0.00     0.014 A 
HETATM   16  C   UNL     1     -39.912  51.718 -53.995  1.00  0.00     0.001 A 
HETATM   17  C   UNL     1     -39.331  51.480 -52.751  1.00  0.00     0.001 A 
ENDBRANCH   5   6
ENDBRANCH   2   5
BRANCH   1  18
HETATM   18  C   UNL     1     -42.909  56.798 -57.550  1.00  0.00     0.035 A 
HETATM   19  C   UNL     1     -42.683  58.165 -57.384  1.00  0.00     0.046 A 
HETATM   20  C   UNL     1     -42.356  58.994 -58.479  1.00  0.00     0.056 A 
HETATM   21  C   UNL     1     -42.235  58.424 -59.764  1.00  0.00    -0.047 A 
HETATM   22  C   UNL     1     -41.892  59.256 -60.971  1.00  0.00     0.049 C 
HETATM   23  C   UNL     1     -42.477  57.054 -59.927  1.00  0.00     0.010 A 
HETATM   24  C   UNL     1     -42.809  56.252 -58.832  1.00  0.00     0.030 A 
BRANCH  20  25
HETATM   25  C   UNL     1     -42.120  60.471 -58.240  1.00  0.00     0.418 C 
HETATM   26  F   UNL     1     -42.345  60.842 -56.948  1.00  0.00    -0.166 F 
HETATM   27  F   UNL     1     -40.850  60.880 -58.517  1.00  0.00    -0.166 F 
HETATM   28  F   UNL     1     -42.933  61.257 -59.000  1.00  0.00    -0.166 F 
ENDBRANCH  20  25
ENDBRANCH   1  18
TORSDOF 4
ENDMDL
MODEL 9
REMARK VINA RESULT:      -8.4      4.807      8.902
REMARK  4 active torsions:
REMARK  status: ('A' for Active; 'I' for Inactive)
REMARK    1  A    between atoms: C_3  and  C_4 
REMARK    2  A    between atoms: C_9  and  N_10 
REMARK       I    between atoms: N_10  and  C_11 
REMARK    3  A    between atoms: C_11  and  C_12 
REMARK    4  A    between atoms: C_12  and  C_13 
ROOT
HETATM    1  N   UNL     1     -42.218  55.834 -54.389  1.00  0.00    -0.327 N 
HETATM    2  C   UNL     1     -41.862  57.161 -54.343  1.00  0.00     0.227 C 
HETATM    3  O   UNL     1     -40.851  57.604 -53.795  1.00  0.00    -0.273 OA
HETATM    4  H   UNL     1     -43.105  55.634 -54.851  1.00  0.00     0.169 HD
ENDROOT
BRANCH   2   5
HETATM    5  C   UNL     1     -42.800  58.146 -55.014  1.00  0.00     0.165 C 
BRANCH   5   6
HETATM    6  C   UNL     1     -42.346  59.031 -56.161  1.00  0.00     0.074 A 
HETATM    7  N   UNL     1     -41.902  60.229 -55.910  1.00  0.00    -0.175 NA
HETATM    8  N   UNL     1     -41.506  61.009 -56.950  1.00  0.00    -0.243 N 
HETATM    9  C   UNL     1     -41.528  60.663 -58.278  1.00  0.00     0.272 A 
HETATM   10  H   UNL     1     -41.167  61.942 -56.729  1.00  0.00     0.192 HD
HETATM   11  O   UNL     1     -41.165  61.432 -59.161  1.00  0.00    -0.266 OA
HETATM   12  C   UNL     1     -42.007  59.307 -58.586  1.00  0.00     0.046 A 
HETATM   13  C   UNL     1     -42.408  58.477 -57.542  1.00  0.00     0.006 A 
HETATM   14  C   UNL     1     -42.046  58.859 -59.912  1.00  0.00     0.018 A 
HETATM   15  C   UNL     1     -42.840  57.175 -57.829  1.00  0.00     0.014 A 
HETATM   16  C   UNL     1     -42.879  56.727 -59.153  1.00  0.00     0.001 A 
HETATM   17  C   UNL     1     -42.486  57.567 -60.193  1.00  0.00     0.001 A 
ENDBRANCH   5   6
ENDBRANCH   2   5
BRANCH   1  18
HETATM   18  C   UNL     1     -41.525  54.722 -53.874  1.00  0.00     0.035 A 
HETATM   19  C   UNL     1     -41.379  54.447 -52.514  1.00  0.00     0.046 A 
HETATM   20  C   UNL     1     -40.666  53.315 -52.066  1.00  0.00     0.056 A 
HETATM   21  C   UNL     1     -40.107  52.431 -53.015  1.00  0.00    -0.047 A 
HETATM   22  C   UNL     1     -39.334  51.208 -52.600  1.00  0.00     0.049 C 
HETATM   23  C   UNL     1     -40.246  52.720 -54.379  1.00  0.00     0.010 A 
HETATM   24  C   UNL     1     -40.948  53.851 -54.801  1.00  0.00     0.030 A 
BRANCH  20  25
HETATM   25  C   UNL     1     -40.538  53.064 -50.578  1.00  0.00     0.418 C 
HETATM   26  F   UNL     1     -41.489  53.714 -49.848  1.00  0.00    -0.166 F 
HETATM   27  F   UNL     1     -40.648  51.752 -50.226  1.00  0.00    -0.166 F 
HETATM   28  F   UNL     1     -39.340  53.480 -50.081  1.00  0.00    -0.166 F 
ENDBRANCH  20  25
ENDBRANCH   1  18
TORSDOF 4
ENDMDL
MODEL 10
REMARK VINA RESULT:      -8.4      4.474      9.169
REMARK  4 active torsions:
REMARK  status: ('A' for Active; 'I' for Inactive)
REMARK    1  A    between atoms: C_3  and  C_4 
REMARK    2  A    between atoms: C_9  and  N_10 
REMARK       I    between atoms: N_10  and  C_11 
REMARK    3  A    between atoms: C_11  and  C_12 
REMARK    4  A    between atoms: C_12  and  C_13 
ROOT
HETATM    1  N   UNL     1     -42.427  55.259 -54.591  1.00  0.00    -0.327 N 
HETATM    2  C   UNL     1     -42.242  56.615 -54.717  1.00  0.00     0.227 C 
HETATM    3  O   UNL     1     -41.350  57.262 -54.167  1.00  0.00    -0.273 OA
HETATM    4  H   UNL     1     -43.235  54.879 -55.084  1.00  0.00     0.169 HD
ENDROOT
BRANCH   2   5
HETATM    5  C   UNL     1     -43.227  57.362 -55.598  1.00  0.00     0.165 C 
BRANCH   5   6
HETATM    6  C   UNL     1     -43.435  56.997 -57.056  1.00  0.00     0.074 A 
HETATM    7  N   UNL     1     -42.548  56.266 -57.667  1.00  0.00    -0.175 NA
HETATM    8  N   UNL     1     -42.748  55.954 -58.975  1.00  0.00    -0.243 N 
HETATM    9  C   UNL     1     -43.816  56.341 -59.747  1.00  0.00     0.272 A 
HETATM   10  H   UNL     1     -42.040  55.386 -59.432  1.00  0.00     0.192 HD
HETATM   11  O   UNL     1     -43.917  56.028 -60.927  1.00  0.00    -0.266 OA
HETATM   12  C   UNL     1     -44.842  57.150 -59.073  1.00  0.00     0.046 A 
HETATM   13  C   UNL     1     -44.674  57.477 -57.729  1.00  0.00     0.006 A 
HETATM   14  C   UNL     1     -45.977  57.573 -59.776  1.00  0.00     0.018 A 
HETATM   15  C   UNL     1     -45.663  58.225 -57.078  1.00  0.00     0.014 A 
HETATM   16  C   UNL     1     -46.796  58.649 -57.778  1.00  0.00     0.001 A 
HETATM   17  C   UNL     1     -46.952  58.327 -59.125  1.00  0.00     0.001 A 
ENDBRANCH   5   6
ENDBRANCH   2   5
BRANCH   1  18
HETATM   18  C   UNL     1     -41.655  54.333 -53.864  1.00  0.00     0.035 A 
HETATM   19  C   UNL     1     -41.455  54.387 -52.485  1.00  0.00     0.046 A 
HETATM   20  C   UNL     1     -40.663  53.426 -51.819  1.00  0.00     0.056 A 
HETATM   21  C   UNL     1     -40.079  52.378 -52.563  1.00  0.00    -0.047 A 
HETATM   22  C   UNL     1     -39.222  51.326 -51.912  1.00  0.00     0.049 C 
HETATM   23  C   UNL     1     -40.272  52.338 -53.950  1.00  0.00     0.010 A 
HETATM   24  C   UNL     1     -41.052  53.303 -54.591  1.00  0.00     0.030 A 
BRANCH  20  25
HETATM   25  C   UNL     1     -40.480  53.532 -50.320  1.00  0.00     0.418 C 
HETATM   26  F   UNL     1     -39.257  54.023 -49.968  1.00  0.00    -0.166 F 
HETATM   27  F   UNL     1     -41.385  54.347 -49.708  1.00  0.00    -0.166 F 
HETATM   28  F   UNL     1     -40.590  52.326 -49.696  1.00  0.00    -0.166 F 
ENDBRANCH  20  25
ENDBRANCH   1  18
TORSDOF 4
ENDMDL
