MODEL 1
REMARK VINA RESULT:      -8.0      0.000      0.000
REMARK  7 active torsions:
REMARK  status: ('A' for Active; 'I' for Inactive)
REMARK    1  A    between atoms: C_8  and  C_9 
REMARK    2  A    between atoms: C_9  and  N_10 
REMARK    3  A    between atoms: C_9  and  C_14 
REMARK       I    between atoms: C_14  and  N_15 
REMARK    4  A    between atoms: N_15  and  C_16 
REMARK    5  A    between atoms: C_16  and  C_17 
REMARK    6  A    between atoms: C_17  and  C_18 
REMARK    7  A    between atoms: C_20  and  C_21 
ROOT
HETATM    1  C   UNL     1     -42.972  55.824 -51.014  1.00  0.00     0.253 C 
HETATM    2  N   UNL     1     -41.933  55.586 -50.147  1.00  0.00    -0.359 N 
HETATM    3  O   UNL     1     -43.621  54.934 -51.566  1.00  0.00    -0.271 OA
HETATM    4  H   UNL     1     -41.280  56.332 -49.921  1.00  0.00     0.162 HD
ENDROOT
BRANCH   1   5
HETATM    5  C   UNL     1     -43.384  57.298 -51.231  1.00  0.00     0.311 C 
BRANCH   5   6
HETATM    6  C   UNL     1     -42.465  58.019 -52.154  1.00  0.00     0.031 A 
HETATM    7  C   UNL     1     -42.239  57.822 -53.511  1.00  0.00     0.035 A 
HETATM    8  C   UNL     1     -42.795  56.874 -54.508  1.00  0.00     0.070 C 
HETATM    9  N   UNL     1     -41.274  58.730 -53.867  1.00  0.00    -0.282 N 
HETATM   10  H   UNL     1     -40.819  58.853 -54.770  1.00  0.00     0.189 HD
HETATM   11  N   UNL     1     -40.896  59.516 -52.856  1.00  0.00    -0.179 NA
HETATM   12  C   UNL     1     -41.599  59.096 -51.806  1.00  0.00     0.061 A 
HETATM   13  C   UNL     1     -41.407  59.755 -50.487  1.00  0.00     0.073 C 
ENDBRANCH   5   6
BRANCH   5  14
HETATM   14  N   UNL     1     -44.792  57.347 -51.742  1.00  0.00    -0.062 N 
HETATM   15  H   UNL     1     -45.061  58.328 -51.878  1.00  0.00     0.275 HD
HETATM   16  H   UNL     1     -44.833  56.918 -52.675  1.00  0.00     0.275 HD
HETATM   17  H   UNL     1     -45.454  56.896 -51.105  1.00  0.00     0.275 HD
ENDBRANCH   5  14
ENDBRANCH   1   5
BRANCH   2  18
HETATM   18  C   UNL     1     -41.465  54.236 -49.856  1.00  0.00     0.127 C 
BRANCH  18  19
HETATM   19  C   UNL     1     -40.102  53.920 -50.487  1.00  0.00     0.058 C 
BRANCH  19  20
HETATM   20  C   UNL     1     -40.203  53.434 -51.915  1.00  0.00    -0.056 A 
HETATM   21  C   UNL     1     -39.998  52.081 -52.218  1.00  0.00     0.023 A 
HETATM   22  C   UNL     1     -40.091  51.609 -53.540  1.00  0.00     0.048 A 
HETATM   23  C   UNL     1     -40.402  52.514 -54.562  1.00  0.00     0.016 A 
HETATM   24  C   UNL     1     -40.589  53.866 -54.273  1.00  0.00     0.001 A 
HETATM   25  C   UNL     1     -40.487  54.324 -52.959  1.00  0.00     0.007 A 
BRANCH  22  26
HETATM   26  C   UNL     1     -39.900  50.143 -53.838  1.00  0.00     0.417 C 
HETATM   27  F   UNL     1     -39.887  49.371 -52.715  1.00  0.00    -0.166 F 
HETATM   28  F   UNL     1     -40.919  49.642 -54.601  1.00  0.00    -0.166 F 
HETATM   29  F   UNL     1     -38.752  49.860 -54.508  1.00  0.00    -0.166 F 
ENDBRANCH  22  26
ENDBRANCH  19  20
ENDBRANCH  18  19
ENDBRANCH   2  18
TORSDOF 7
ENDMDL
MODEL 2
REMARK VINA RESULT:      -7.9      2.303      3.672
REMARK  7 active torsions:
REMARK  status: ('A' for Active; 'I' for Inactive)
REMARK    1  A    between atoms: C_8  and  C_9 
REMARK    2  A    between atoms: C_9  and  N_10 
REMARK    3  A    between atoms: C_9  and  C_14 
REMARK       I    between atoms: C_14  and  N_15 
REMARK    4  A    between atoms: N_15  and  C_16 
REMARK    5  A    between atoms: C_16  and  C_17 
REMARK    6  A    between atoms: C_17  and  C_18 
REMARK    7  A    between atoms: C_20  and  C_21 
ROOT
HETATM    1  C   UNL     1     -43.545  57.132 -53.275  1.00  0.00     0.253 C 
HETATM    2  N   UNL     1     -44.285  56.592 -52.251  1.00  0.00    -0.359 N 
HETATM    3  O   UNL     1     -42.330  57.328 -53.213  1.00  0.00    -0.271 OA
HETATM    4  H   UNL     1     -45.298  56.682 -52.255  1.00  0.00     0.162 HD
ENDROOT
BRANCH   1   5
HETATM    5  C   UNL     1     -44.286  57.426 -54.600  1.00  0.00     0.311 C 
BRANCH   5   6
HETATM    6  C   UNL     1     -43.434  57.185 -55.797  1.00  0.00     0.031 A 
HETATM    7  C   UNL     1     -42.874  56.001 -56.261  1.00  0.00     0.035 A 
HETATM    8  C   UNL     1     -42.908  54.600 -55.773  1.00  0.00     0.070 C 
HETATM    9  N   UNL     1     -42.156  56.338 -57.380  1.00  0.00    -0.282 N 
HETATM   10  H   UNL     1     -41.571  55.743 -57.964  1.00  0.00     0.189 HD
HETATM   11  N   UNL     1     -42.245  57.635 -57.689  1.00  0.00    -0.179 NA
HETATM   12  C   UNL     1     -43.008  58.168 -56.736  1.00  0.00     0.061 A 
HETATM   13  C   UNL     1     -43.301  59.626 -56.766  1.00  0.00     0.073 C 
ENDBRANCH   5   6
BRANCH   5  14
HETATM   14  N   UNL     1     -45.533  56.598 -54.662  1.00  0.00    -0.062 N 
HETATM   15  H   UNL     1     -45.576  56.001 -53.829  1.00  0.00     0.275 HD
HETATM   16  H   UNL     1     -46.355  57.212 -54.604  1.00  0.00     0.275 HD
HETATM   17  H   UNL     1     -45.573  56.016 -55.503  1.00  0.00     0.275 HD
ENDBRANCH   5  14
ENDBRANCH   1   5
BRANCH   2  18
HETATM   18  C   UNL     1     -43.691  56.263 -50.960  1.00  0.00     0.127 C 
BRANCH  18  19
HETATM   19  C   UNL     1     -43.624  54.753 -50.694  1.00  0.00     0.058 C 
BRANCH  19  20
HETATM   20  C   UNL     1     -42.254  54.162 -50.941  1.00  0.00    -0.056 A 
HETATM   21  C   UNL     1     -41.924  53.643 -52.200  1.00  0.00     0.023 A 
HETATM   22  C   UNL     1     -40.654  53.094 -52.450  1.00  0.00     0.048 A 
HETATM   23  C   UNL     1     -39.708  53.076 -51.418  1.00  0.00     0.016 A 
HETATM   24  C   UNL     1     -40.033  53.572 -50.156  1.00  0.00     0.001 A 
HETATM   25  C   UNL     1     -41.299  54.109 -49.917  1.00  0.00     0.007 A 
BRANCH  22  26
HETATM   26  C   UNL     1     -40.309  52.571 -53.823  1.00  0.00     0.417 C 
HETATM   27  F   UNL     1     -39.874  53.548 -54.667  1.00  0.00    -0.166 F 
HETATM   28  F   UNL     1     -39.289  51.661 -53.778  1.00  0.00    -0.166 F 
HETATM   29  F   UNL     1     -41.340  51.952 -54.454  1.00  0.00    -0.166 F 
ENDBRANCH  22  26
ENDBRANCH  19  20
ENDBRANCH  18  19
ENDBRANCH   2  18
TORSDOF 7
ENDMDL
MODEL 3
REMARK VINA RESULT:      -7.8      4.462      6.215
REMARK  7 active torsions:
REMARK  status: ('A' for Active; 'I' for Inactive)
REMARK    1  A    between atoms: C_8  and  C_9 
REMARK    2  A    between atoms: C_9  and  N_10 
REMARK    3  A    between atoms: C_9  and  C_14 
REMARK       I    between atoms: C_14  and  N_15 
REMARK    4  A    between atoms: N_15  and  C_16 
REMARK    5  A    between atoms: C_16  and  C_17 
REMARK    6  A    between atoms: C_17  and  C_18 
REMARK    7  A    between atoms: C_20  and  C_21 
ROOT
HETATM    1  C   UNL     1     -42.512  56.305 -57.811  1.00  0.00     0.253 C 
HETATM    2  N   UNL     1     -42.390  55.173 -57.043  1.00  0.00    -0.359 N 
HETATM    3  O   UNL     1     -42.482  57.449 -57.354  1.00  0.00    -0.271 OA
HETATM    4  H   UNL     1     -42.668  54.271 -57.422  1.00  0.00     0.162 HD
ENDROOT
BRANCH   1   5
HETATM    5  C   UNL     1     -42.609  56.111 -59.342  1.00  0.00     0.311 C 
BRANCH   5   6
HETATM    6  C   UNL     1     -43.953  56.460 -59.879  1.00  0.00     0.031 A 
HETATM    7  C   UNL     1     -44.471  57.700 -60.234  1.00  0.00     0.035 A 
HETATM    8  C   UNL     1     -43.914  59.077 -60.220  1.00  0.00     0.070 C 
HETATM    9  N   UNL     1     -45.761  57.468 -60.636  1.00  0.00    -0.282 N 
HETATM   10  H   UNL     1     -46.469  58.143 -60.924  1.00  0.00     0.189 HD
HETATM   11  N   UNL     1     -46.096  56.175 -60.604  1.00  0.00    -0.179 NA
HETATM   12  C   UNL     1     -45.017  55.549 -60.139  1.00  0.00     0.061 A 
HETATM   13  C   UNL     1     -45.051  54.072 -59.957  1.00  0.00     0.073 C 
ENDBRANCH   5   6
BRANCH   5  14
HETATM   14  N   UNL     1     -41.545  56.926 -60.011  1.00  0.00    -0.062 N 
HETATM   15  H   UNL     1     -40.783  57.090 -59.343  1.00  0.00     0.275 HD
HETATM   16  H   UNL     1     -41.127  56.383 -60.777  1.00  0.00     0.275 HD
HETATM   17  H   UNL     1     -41.898  57.825 -60.353  1.00  0.00     0.275 HD
ENDBRANCH   5  14
ENDBRANCH   1   5
BRANCH   2  18
HETATM   18  C   UNL     1     -42.279  55.233 -55.590  1.00  0.00     0.127 C 
BRANCH  18  19
HETATM   19  C   UNL     1     -40.829  55.173 -55.093  1.00  0.00     0.058 C 
BRANCH  19  20
HETATM   20  C   UNL     1     -40.597  54.101 -54.052  1.00  0.00    -0.056 A 
HETATM   21  C   UNL     1     -40.414  52.767 -54.439  1.00  0.00     0.023 A 
HETATM   22  C   UNL     1     -40.193  51.757 -53.485  1.00  0.00     0.048 A 
HETATM   23  C   UNL     1     -40.149  52.103 -52.130  1.00  0.00     0.016 A 
HETATM   24  C   UNL     1     -40.349  53.425 -51.733  1.00  0.00     0.001 A 
HETATM   25  C   UNL     1     -40.575  54.418 -52.687  1.00  0.00     0.007 A 
BRANCH  22  26
HETATM   26  C   UNL     1     -39.965  50.332 -53.927  1.00  0.00     0.417 C 
HETATM   27  F   UNL     1     -38.835  50.183 -54.673  1.00  0.00    -0.166 F 
HETATM   28  F   UNL     1     -39.801  49.491 -52.862  1.00  0.00    -0.166 F 
HETATM   29  F   UNL     1     -40.981  49.813 -54.665  1.00  0.00    -0.166 F 
ENDBRANCH  22  26
ENDBRANCH  19  20
ENDBRANCH  18  19
ENDBRANCH   2  18
TORSDOF 7
ENDMDL
MODEL 4
REMARK VINA RESULT:      -7.8      4.001      5.590
REMARK  7 active torsions:
REMARK  status: ('A' for Active; 'I' for Inactive)
REMARK    1  A    between atoms: C_8  and  C_9 
REMARK    2  A    between atoms: C_9  and  N_10 
REMARK    3  A    between atoms: C_9  and  C_14 
REMARK       I    between atoms: C_14  and  N_15 
REMARK    4  A    between atoms: N_15  and  C_16 
REMARK    5  A    between atoms: C_16  and  C_17 
REMARK    6  A    between atoms: C_17  and  C_18 
REMARK    7  A    between atoms: C_20  and  C_21 
ROOT
HETATM    1  C   UNL     1     -42.680  56.758 -57.232  1.00  0.00     0.253 C 
HETATM    2  N   UNL     1     -42.646  55.457 -56.793  1.00  0.00    -0.359 N 
HETATM    3  O   UNL     1     -42.372  57.725 -56.533  1.00  0.00    -0.271 OA
HETATM    4  H   UNL     1     -43.139  54.734 -57.312  1.00  0.00     0.162 HD
ENDROOT
BRANCH   1   5
HETATM    5  C   UNL     1     -43.048  56.992 -58.716  1.00  0.00     0.311 C 
BRANCH   5   6
HETATM    6  C   UNL     1     -44.507  56.843 -58.973  1.00  0.00     0.031 A 
HETATM    7  C   UNL     1     -45.186  55.856 -59.677  1.00  0.00     0.035 A 
HETATM    8  C   UNL     1     -44.746  54.637 -60.400  1.00  0.00     0.070 C 
HETATM    9  N   UNL     1     -46.510  56.211 -59.639  1.00  0.00    -0.282 N 
HETATM   10  H   UNL     1     -47.304  55.754 -60.086  1.00  0.00     0.189 HD
HETATM   11  N   UNL     1     -46.735  57.324 -58.935  1.00  0.00    -0.179 NA
HETATM   12  C   UNL     1     -45.533  57.727 -58.530  1.00  0.00     0.061 A 
HETATM   13  C   UNL     1     -45.414  58.970 -57.720  1.00  0.00     0.073 C 
ENDBRANCH   5   6
BRANCH   5  14
HETATM   14  N   UNL     1     -42.573  58.349 -59.134  1.00  0.00    -0.062 N 
HETATM   15  H   UNL     1     -43.325  59.028 -58.972  1.00  0.00     0.275 HD
HETATM   16  H   UNL     1     -41.800  58.645 -58.526  1.00  0.00     0.275 HD
HETATM   17  H   UNL     1     -42.293  58.379 -60.119  1.00  0.00     0.275 HD
ENDBRANCH   5  14
ENDBRANCH   1   5
BRANCH   2  18
HETATM   18  C   UNL     1     -42.301  55.115 -55.418  1.00  0.00     0.127 C 
BRANCH  18  19
HETATM   19  C   UNL     1     -40.806  54.827 -55.225  1.00  0.00     0.058 C 
BRANCH  19  20
HETATM   20  C   UNL     1     -40.526  53.812 -54.140  1.00  0.00    -0.056 A 
HETATM   21  C   UNL     1     -40.327  52.464 -54.467  1.00  0.00     0.023 A 
HETATM   22  C   UNL     1     -40.061  51.506 -53.473  1.00  0.00     0.048 A 
HETATM   23  C   UNL     1     -39.989  51.919 -52.137  1.00  0.00     0.016 A 
HETATM   24  C   UNL     1     -40.205  53.255 -51.799  1.00  0.00     0.001 A 
HETATM   25  C   UNL     1     -40.475  54.195 -52.793  1.00  0.00     0.007 A 
BRANCH  22  26
HETATM   26  C   UNL     1     -39.817  50.066 -53.850  1.00  0.00     0.417 C 
HETATM   27  F   UNL     1     -38.654  49.889 -54.538  1.00  0.00    -0.166 F 
HETATM   28  F   UNL     1     -39.704  49.264 -52.749  1.00  0.00    -0.166 F 
HETATM   29  F   UNL     1     -40.799  49.521 -54.615  1.00  0.00    -0.166 F 
ENDBRANCH  22  26
ENDBRANCH  19  20
ENDBRANCH  18  19
ENDBRANCH   2  18
TORSDOF 7
ENDMDL
MODEL 5
REMARK VINA RESULT:      -7.7      0.354      1.693
REMARK  7 active torsions:
REMARK  status: ('A' for Active; 'I' for Inactive)
REMARK    1  A    between atoms: C_8  and  C_9 
REMARK    2  A    between atoms: C_9  and  N_10 
REMARK    3  A    between atoms: C_9  and  C_14 
REMARK       I    between atoms: C_14  and  N_15 
REMARK    4  A    between atoms: N_15  and  C_16 
REMARK    5  A    between atoms: C_16  and  C_17 
REMARK    6  A    between atoms: C_17  and  C_18 
REMARK    7  A    between atoms: C_20  and  C_21 
ROOT
HETATM    1  C   UNL     1     -42.922  55.515 -50.706  1.00  0.00     0.253 C 
HETATM    2  N   UNL     1     -41.787  55.355 -49.947  1.00  0.00    -0.359 N 
HETATM    3  O   UNL     1     -43.596  54.577 -51.137  1.00  0.00    -0.271 OA
HETATM    4  H   UNL     1     -41.141  56.131 -49.832  1.00  0.00     0.162 HD
ENDROOT
BRANCH   1   5
HETATM    5  C   UNL     1     -43.407  56.962 -50.951  1.00  0.00     0.311 C 
BRANCH   5   6
HETATM    6  C   UNL     1     -42.535  57.704 -51.903  1.00  0.00     0.031 A 
HETATM    7  C   UNL     1     -41.641  58.740 -51.661  1.00  0.00     0.035 A 
HETATM    8  C   UNL     1     -41.229  59.463 -50.431  1.00  0.00     0.070 C 
HETATM    9  N   UNL     1     -41.124  59.083 -52.884  1.00  0.00    -0.282 N 
HETATM   10  H   UNL     1     -40.471  59.832 -53.111  1.00  0.00     0.189 HD
HETATM   11  N   UNL     1     -41.587  58.324 -53.881  1.00  0.00    -0.179 NA
HETATM   12  C   UNL     1     -42.451  57.488 -53.308  1.00  0.00     0.061 A 
HETATM   13  C   UNL     1     -43.175  56.497 -54.150  1.00  0.00     0.073 C 
ENDBRANCH   5   6
BRANCH   5  14
HETATM   14  N   UNL     1     -44.821  56.932 -51.443  1.00  0.00    -0.062 N 
HETATM   15  H   UNL     1     -45.342  57.699 -51.003  1.00  0.00     0.275 HD
HETATM   16  H   UNL     1     -44.838  57.131 -52.451  1.00  0.00     0.275 HD
HETATM   17  H   UNL     1     -45.287  56.043 -51.241  1.00  0.00     0.275 HD
ENDBRANCH   5  14
ENDBRANCH   1   5
BRANCH   2  18
HETATM   18  C   UNL     1     -41.243  54.037 -49.641  1.00  0.00     0.127 C 
BRANCH  18  19
HETATM   19  C   UNL     1     -39.917  53.749 -50.358  1.00  0.00     0.058 C 
BRANCH  19  20
HETATM   20  C   UNL     1     -40.095  53.322 -51.797  1.00  0.00    -0.056 A 
HETATM   21  C   UNL     1     -39.908  51.983 -52.166  1.00  0.00     0.023 A 
HETATM   22  C   UNL     1     -40.073  51.565 -53.498  1.00  0.00     0.048 A 
HETATM   23  C   UNL     1     -40.438  52.511 -54.464  1.00  0.00     0.016 A 
HETATM   24  C   UNL     1     -40.608  53.850 -54.111  1.00  0.00     0.001 A 
HETATM   25  C   UNL     1     -40.435  54.254 -52.787  1.00  0.00     0.007 A 
BRANCH  22  26
HETATM   26  C   UNL     1     -39.900  50.113 -53.867  1.00  0.00     0.417 C 
HETATM   27  F   UNL     1     -39.849  49.293 -52.779  1.00  0.00    -0.166 F 
HETATM   28  F   UNL     1     -40.948  49.649 -54.612  1.00  0.00    -0.166 F 
HETATM   29  F   UNL     1     -38.779  49.856 -54.591  1.00  0.00    -0.166 F 
ENDBRANCH  22  26
ENDBRANCH  19  20
ENDBRANCH  18  19
ENDBRANCH   2  18
TORSDOF 7
ENDMDL
MODEL 6
REMARK VINA RESULT:      -7.7      3.248      4.639
REMARK  7 active torsions:
REMARK  status: ('A' for Active; 'I' for Inactive)
REMARK    1  A    between atoms: C_8  and  C_9 
REMARK    2  A    between atoms: C_9  and  N_10 
REMARK    3  A    between atoms: C_9  and  C_14 
REMARK       I    between atoms: C_14  and  N_15 
REMARK    4  A    between atoms: N_15  and  C_16 
REMARK    5  A    between atoms: C_16  and  C_17 
REMARK    6  A    between atoms: C_17  and  C_18 
REMARK    7  A    between atoms: C_20  and  C_21 
ROOT
HETATM    1  C   UNL     1     -43.047  56.173 -55.933  1.00  0.00     0.253 C 
HETATM    2  N   UNL     1     -41.738  55.788 -56.098  1.00  0.00    -0.359 N 
HETATM    3  O   UNL     1     -43.826  55.631 -55.147  1.00  0.00    -0.271 OA
HETATM    4  H   UNL     1     -41.220  56.091 -56.920  1.00  0.00     0.162 HD
ENDROOT
BRANCH   1   5
HETATM    5  C   UNL     1     -43.524  57.408 -56.731  1.00  0.00     0.311 C 
BRANCH   5   6
HETATM    6  C   UNL     1     -42.990  57.434 -58.120  1.00  0.00     0.031 A 
HETATM    7  C   UNL     1     -43.149  56.511 -59.147  1.00  0.00     0.035 A 
HETATM    8  C   UNL     1     -43.872  55.219 -59.250  1.00  0.00     0.070 C 
HETATM    9  N   UNL     1     -42.426  56.998 -60.206  1.00  0.00    -0.282 N 
HETATM   10  H   UNL     1     -42.267  56.572 -61.117  1.00  0.00     0.189 HD
HETATM   11  N   UNL     1     -41.852  58.177 -59.950  1.00  0.00    -0.179 NA
HETATM   12  C   UNL     1     -42.174  58.454 -58.688  1.00  0.00     0.061 A 
HETATM   13  C   UNL     1     -41.675  59.710 -58.066  1.00  0.00     0.073 C 
ENDBRANCH   5   6
BRANCH   5  14
HETATM   14  N   UNL     1     -45.022  57.442 -56.739  1.00  0.00    -0.062 N 
HETATM   15  H   UNL     1     -45.338  58.267 -56.217  1.00  0.00     0.275 HD
HETATM   16  H   UNL     1     -45.357  57.580 -57.701  1.00  0.00     0.275 HD
HETATM   17  H   UNL     1     -45.434  56.600 -56.328  1.00  0.00     0.275 HD
ENDBRANCH   5  14
ENDBRANCH   1   5
BRANCH   2  18
HETATM   18  C   UNL     1     -41.174  54.646 -55.390  1.00  0.00     0.127 C 
BRANCH  18  19
HETATM   19  C   UNL     1     -40.864  54.942 -53.916  1.00  0.00     0.058 C 
BRANCH  19  20
HETATM   20  C   UNL     1     -40.479  53.712 -53.126  1.00  0.00    -0.056 A 
HETATM   21  C   UNL     1     -40.322  52.477 -53.771  1.00  0.00     0.023 A 
HETATM   22  C   UNL     1     -39.960  51.323 -53.054  1.00  0.00     0.048 A 
HETATM   23  C   UNL     1     -39.748  51.421 -51.674  1.00  0.00     0.016 A 
HETATM   24  C   UNL     1     -39.920  52.641 -51.020  1.00  0.00     0.001 A 
HETATM   25  C   UNL     1     -40.286  53.779 -51.740  1.00  0.00     0.007 A 
BRANCH  22  26
HETATM   26  C   UNL     1     -39.764  50.012 -53.774  1.00  0.00     0.417 C 
HETATM   27  F   UNL     1     -38.651  50.001 -54.560  1.00  0.00    -0.166 F 
HETATM   28  F   UNL     1     -39.592  48.974 -52.901  1.00  0.00    -0.166 F 
HETATM   29  F   UNL     1     -40.802  49.661 -54.577  1.00  0.00    -0.166 F 
ENDBRANCH  22  26
ENDBRANCH  19  20
ENDBRANCH  18  19
ENDBRANCH   2  18
TORSDOF 7
ENDMDL
MODEL 7
REMARK VINA RESULT:      -7.7      3.577      5.083
REMARK  7 active torsions:
REMARK  status: ('A' for Active; 'I' for Inactive)
REMARK    1  A    between atoms: C_8  and  C_9 
REMARK    2  A    between atoms: C_9  and  N_10 
REMARK    3  A    between atoms: C_9  and  C_14 
REMARK       I    between atoms: C_14  and  N_15 
REMARK    4  A    between atoms: N_15  and  C_16 
REMARK    5  A    between atoms: C_16  and  C_17 
REMARK    6  A    between atoms: C_17  and  C_18 
REMARK    7  A    between atoms: C_20  and  C_21 
ROOT
HETATM    1  C   UNL     1     -43.125  57.195 -56.133  1.00  0.00     0.253 C 
HETATM    2  N   UNL     1     -43.383  55.863 -55.917  1.00  0.00    -0.359 N 
HETATM    3  O   UNL     1     -42.344  57.861 -55.451  1.00  0.00    -0.271 OA
HETATM    4  H   UNL     1     -44.204  55.431 -56.335  1.00  0.00     0.162 HD
ENDROOT
BRANCH   1   5
HETATM    5  C   UNL     1     -43.802  57.854 -57.357  1.00  0.00     0.311 C 
BRANCH   5   6
HETATM    6  C   UNL     1     -43.008  57.694 -58.606  1.00  0.00     0.031 A 
HETATM    7  C   UNL     1     -42.165  58.598 -59.241  1.00  0.00     0.035 A 
HETATM    8  C   UNL     1     -41.751  59.990 -58.936  1.00  0.00     0.070 C 
HETATM    9  N   UNL     1     -41.711  57.961 -60.368  1.00  0.00    -0.282 N 
HETATM   10  H   UNL     1     -41.111  58.325 -61.106  1.00  0.00     0.189 HD
HETATM   11  N   UNL     1     -42.167  56.710 -60.482  1.00  0.00    -0.179 NA
HETATM   12  C   UNL     1     -42.961  56.532 -59.429  1.00  0.00     0.061 A 
HETATM   13  C   UNL     1     -43.658  55.229 -59.252  1.00  0.00     0.073 C 
ENDBRANCH   5   6
BRANCH   5  14
HETATM   14  N   UNL     1     -45.177  57.283 -57.528  1.00  0.00    -0.062 N 
HETATM   15  H   UNL     1     -45.202  56.732 -58.393  1.00  0.00     0.275 HD
HETATM   16  H   UNL     1     -45.367  56.614 -56.771  1.00  0.00     0.275 HD
HETATM   17  H   UNL     1     -45.899  58.007 -57.563  1.00  0.00     0.275 HD
ENDBRANCH   5  14
ENDBRANCH   1   5
BRANCH   2  18
HETATM   18  C   UNL     1     -42.791  55.133 -54.802  1.00  0.00     0.127 C 
BRANCH  18  19
HETATM   19  C   UNL     1     -41.350  54.682 -55.072  1.00  0.00     0.058 C 
BRANCH  19  20
HETATM   20  C   UNL     1     -40.823  53.709 -54.041  1.00  0.00    -0.056 A 
HETATM   21  C   UNL     1     -40.569  52.376 -54.391  1.00  0.00     0.023 A 
HETATM   22  C   UNL     1     -40.074  51.458 -53.447  1.00  0.00     0.048 A 
HETATM   23  C   UNL     1     -39.829  51.897 -52.140  1.00  0.00     0.016 A 
HETATM   24  C   UNL     1     -40.097  53.217 -51.777  1.00  0.00     0.001 A 
HETATM   25  C   UNL     1     -40.594  54.117 -52.720  1.00  0.00     0.007 A 
BRANCH  22  26
HETATM   26  C   UNL     1     -39.776  50.037 -53.853  1.00  0.00     0.417 C 
HETATM   27  F   UNL     1     -39.692  49.189 -52.790  1.00  0.00    -0.166 F 
HETATM   28  F   UNL     1     -40.764  49.517 -54.644  1.00  0.00    -0.166 F 
HETATM   29  F   UNL     1     -38.619  49.892 -54.550  1.00  0.00    -0.166 F 
ENDBRANCH  22  26
ENDBRANCH  19  20
ENDBRANCH  18  19
ENDBRANCH   2  18
TORSDOF 7
ENDMDL
MODEL 8
REMARK VINA RESULT:      -7.5      2.492      3.324
REMARK  7 active torsions:
REMARK  status: ('A' for Active; 'I' for Inactive)
REMARK    1  A    between atoms: C_8  and  C_9 
REMARK    2  A    between atoms: C_9  and  N_10 
REMARK    3  A    between atoms: C_9  and  C_14 
REMARK       I    between atoms: C_14  and  N_15 
REMARK    4  A    between atoms: N_15  and  C_16 
REMARK    5  A    between atoms: C_16  and  C_17 
REMARK    6  A    between atoms: C_17  and  C_18 
REMARK    7  A    between atoms: C_20  and  C_21 
ROOT
HETATM    1  C   UNL     1     -43.159  56.835 -53.242  1.00  0.00     0.253 C 
HETATM    2  N   UNL     1     -43.182  55.503 -52.905  1.00  0.00    -0.359 N 
HETATM    3  O   UNL     1     -42.416  57.663 -52.712  1.00  0.00    -0.271 OA
HETATM    4  H   UNL     1     -43.969  54.922 -53.185  1.00  0.00     0.162 HD
ENDROOT
BRANCH   1   5
HETATM    5  C   UNL     1     -44.067  57.281 -54.411  1.00  0.00     0.311 C 
BRANCH   5   6
HETATM    6  C   UNL     1     -43.327  57.399 -55.697  1.00  0.00     0.031 A 
HETATM    7  C   UNL     1     -42.728  56.411 -56.468  1.00  0.00     0.035 A 
HETATM    8  C   UNL     1     -42.603  54.939 -56.318  1.00  0.00     0.070 C 
HETATM    9  N   UNL     1     -42.156  57.059 -57.533  1.00  0.00    -0.282 N 
HETATM   10  H   UNL     1     -41.590  56.670 -58.285  1.00  0.00     0.189 HD
HETATM   11  N   UNL     1     -42.376  58.377 -57.524  1.00  0.00    -0.179 NA
HETATM   12  C   UNL     1     -43.076  58.605 -56.415  1.00  0.00     0.061 A 
HETATM   13  C   UNL     1     -43.483  59.996 -56.081  1.00  0.00     0.073 C 
ENDBRANCH   5   6
BRANCH   5  14
HETATM   14  N   UNL     1     -45.209  56.320 -54.544  1.00  0.00    -0.062 N 
HETATM   15  H   UNL     1     -44.869  55.462 -54.996  1.00  0.00     0.275 HD
HETATM   16  H   UNL     1     -45.526  56.031 -53.610  1.00  0.00     0.275 HD
HETATM   17  H   UNL     1     -45.984  56.707 -55.088  1.00  0.00     0.275 HD
ENDBRANCH   5  14
ENDBRANCH   1   5
BRANCH   2  18
HETATM   18  C   UNL     1     -42.359  54.965 -51.828  1.00  0.00     0.127 C 
BRANCH  18  19
HETATM   19  C   UNL     1     -40.883  54.807 -52.216  1.00  0.00     0.058 C 
BRANCH  19  20
HETATM   20  C   UNL     1     -40.510  53.390 -52.587  1.00  0.00    -0.056 A 
HETATM   21  C   UNL     1     -40.293  52.431 -51.588  1.00  0.00     0.023 A 
HETATM   22  C   UNL     1     -39.950  51.107 -51.914  1.00  0.00     0.048 A 
HETATM   23  C   UNL     1     -39.833  50.749 -53.262  1.00  0.00     0.016 A 
HETATM   24  C   UNL     1     -40.028  51.701 -54.263  1.00  0.00     0.001 A 
HETATM   25  C   UNL     1     -40.361  53.014 -53.929  1.00  0.00     0.007 A 
BRANCH  22  26
HETATM   26  C   UNL     1     -39.753  50.083 -50.823  1.00  0.00     0.417 C 
HETATM   27  F   UNL     1     -40.395  48.908 -51.078  1.00  0.00    -0.166 F 
HETATM   28  F   UNL     1     -38.437  49.743 -50.677  1.00  0.00    -0.166 F 
HETATM   29  F   UNL     1     -40.176  50.491 -49.599  1.00  0.00    -0.166 F 
ENDBRANCH  22  26
ENDBRANCH  19  20
ENDBRANCH  18  19
ENDBRANCH   2  18
TORSDOF 7
ENDMDL
MODEL 9
REMARK VINA RESULT:      -7.5      4.791      6.562
REMARK  7 active torsions:
REMARK  status: ('A' for Active; 'I' for Inactive)
REMARK    1  A    between atoms: C_8  and  C_9 
REMARK    2  A    between atoms: C_9  and  N_10 
REMARK    3  A    between atoms: C_9  and  C_14 
REMARK       I    between atoms: C_14  and  N_15 
REMARK    4  A    between atoms: N_15  and  C_16 
REMARK    5  A    between atoms: C_16  and  C_17 
REMARK    6  A    between atoms: C_17  and  C_18 
REMARK    7  A    between atoms: C_20  and  C_21 
ROOT
HETATM    1  C   UNL     1     -42.871  56.382 -57.512  1.00  0.00     0.253 C 
HETATM    2  N   UNL     1     -42.172  55.531 -56.690  1.00  0.00    -0.359 N 
HETATM    3  O   UNL     1     -43.527  57.343 -57.105  1.00  0.00    -0.271 OA
HETATM    4  H   UNL     1     -41.862  54.628 -57.040  1.00  0.00     0.162 HD
ENDROOT
BRANCH   1   5
HETATM    5  C   UNL     1     -42.746  56.150 -59.035  1.00  0.00     0.311 C 
BRANCH   5   6
HETATM    6  C   UNL     1     -44.049  56.284 -59.743  1.00  0.00     0.031 A 
HETATM    7  C   UNL     1     -44.660  57.418 -60.266  1.00  0.00     0.035 A 
HETATM    8  C   UNL     1     -44.271  58.849 -60.322  1.00  0.00     0.070 C 
HETATM    9  N   UNL     1     -45.859  56.996 -60.781  1.00  0.00    -0.282 N 
HETATM   10  H   UNL     1     -46.600  57.551 -61.205  1.00  0.00     0.189 HD
HETATM   11  N   UNL     1     -46.044  55.678 -60.663  1.00  0.00    -0.179 NA
HETATM   12  C   UNL     1     -44.963  55.229 -60.029  1.00  0.00     0.061 A 
HETATM   13  C   UNL     1     -44.849  53.780 -59.715  1.00  0.00     0.073 C 
ENDBRANCH   5   6
BRANCH   5  14
HETATM   14  N   UNL     1     -41.738  57.103 -59.599  1.00  0.00    -0.062 N 
HETATM   15  H   UNL     1     -40.901  56.576 -59.874  1.00  0.00     0.275 HD
HETATM   16  H   UNL     1     -42.101  57.514 -60.468  1.00  0.00     0.275 HD
HETATM   17  H   UNL     1     -41.477  57.835 -58.933  1.00  0.00     0.275 HD
ENDBRANCH   5  14
ENDBRANCH   1   5
BRANCH   2  18
HETATM   18  C   UNL     1     -42.205  55.662 -55.238  1.00  0.00     0.127 C 
BRANCH  18  19
HETATM   19  C   UNL     1     -42.778  54.425 -54.533  1.00  0.00     0.058 C 
BRANCH  19  20
HETATM   20  C   UNL     1     -41.740  53.640 -53.763  1.00  0.00    -0.056 A 
HETATM   21  C   UNL     1     -41.596  53.824 -52.381  1.00  0.00     0.023 A 
HETATM   22  C   UNL     1     -40.640  53.100 -51.647  1.00  0.00     0.048 A 
HETATM   23  C   UNL     1     -39.828  52.177 -52.317  1.00  0.00     0.016 A 
HETATM   24  C   UNL     1     -39.951  52.000 -53.695  1.00  0.00     0.001 A 
HETATM   25  C   UNL     1     -40.898  52.729 -54.415  1.00  0.00     0.007 A 
BRANCH  22  26
HETATM   26  C   UNL     1     -40.525  53.290 -50.155  1.00  0.00     0.417 C 
HETATM   27  F   UNL     1     -40.417  52.112 -49.478  1.00  0.00    -0.166 F 
HETATM   28  F   UNL     1     -39.404  53.997 -49.818  1.00  0.00    -0.166 F 
HETATM   29  F   UNL     1     -41.572  53.954 -49.600  1.00  0.00    -0.166 F 
ENDBRANCH  22  26
ENDBRANCH  19  20
ENDBRANCH  18  19
ENDBRANCH   2  18
TORSDOF 7
ENDMDL
MODEL 10
REMARK VINA RESULT:      -7.4      4.118      5.691
REMARK  7 active torsions:
REMARK  status: ('A' for Active; 'I' for Inactive)
REMARK    1  A    between atoms: C_8  and  C_9 
REMARK    2  A    between atoms: C_9  and  N_10 
REMARK    3  A    between atoms: C_9  and  C_14 
REMARK       I    between atoms: C_14  and  N_15 
REMARK    4  A    between atoms: N_15  and  C_16 
REMARK    5  A    between atoms: C_16  and  C_17 
REMARK    6  A    between atoms: C_17  and  C_18 
REMARK    7  A    between atoms: C_20  and  C_21 
ROOT
HETATM    1  C   UNL     1     -43.136  57.058 -56.091  1.00  0.00     0.253 C 
HETATM    2  N   UNL     1     -43.702  55.877 -55.678  1.00  0.00    -0.359 N 
HETATM    3  O   UNL     1     -42.111  57.536 -55.600  1.00  0.00    -0.271 OA
HETATM    4  H   UNL     1     -44.662  55.658 -55.934  1.00  0.00     0.162 HD
ENDROOT
BRANCH   1   5
HETATM    5  C   UNL     1     -43.791  57.770 -57.297  1.00  0.00     0.311 C 
BRANCH   5   6
HETATM    6  C   UNL     1     -43.030  57.573 -58.561  1.00  0.00     0.031 A 
HETATM    7  C   UNL     1     -42.194  58.453 -59.238  1.00  0.00     0.035 A 
HETATM    8  C   UNL     1     -41.759  59.848 -58.976  1.00  0.00     0.070 C 
HETATM    9  N   UNL     1     -41.776  57.786 -60.361  1.00  0.00    -0.282 N 
HETATM   10  H   UNL     1     -41.190  58.126 -61.122  1.00  0.00     0.189 HD
HETATM   11  N   UNL     1     -42.247  56.538 -60.434  1.00  0.00    -0.179 NA
HETATM   12  C   UNL     1     -43.017  56.392 -59.358  1.00  0.00     0.061 A 
HETATM   13  C   UNL     1     -43.722  55.102 -59.134  1.00  0.00     0.073 C 
ENDBRANCH   5   6
BRANCH   5  14
HETATM   14  N   UNL     1     -45.202  57.288 -57.448  1.00  0.00    -0.062 N 
HETATM   15  H   UNL     1     -45.729  57.973 -58.001  1.00  0.00     0.275 HD
HETATM   16  H   UNL     1     -45.210  56.422 -58.002  1.00  0.00     0.275 HD
HETATM   17  H   UNL     1     -45.665  57.147 -56.546  1.00  0.00     0.275 HD
ENDBRANCH   5  14
ENDBRANCH   1   5
BRANCH   2  18
HETATM   18  C   UNL     1     -43.163  55.112 -54.560  1.00  0.00     0.127 C 
BRANCH  18  19
HETATM   19  C   UNL     1     -42.464  53.817 -54.995  1.00  0.00     0.058 C 
BRANCH  19  20
HETATM   20  C   UNL     1     -41.531  53.258 -53.946  1.00  0.00    -0.056 A 
HETATM   21  C   UNL     1     -41.554  53.762 -52.638  1.00  0.00     0.023 A 
HETATM   22  C   UNL     1     -40.697  53.251 -51.646  1.00  0.00     0.048 A 
HETATM   23  C   UNL     1     -39.814  52.218 -51.981  1.00  0.00     0.016 A 
HETATM   24  C   UNL     1     -39.769  51.723 -53.285  1.00  0.00     0.001 A 
HETATM   25  C   UNL     1     -40.620  52.242 -54.262  1.00  0.00     0.007 A 
BRANCH  22  26
HETATM   26  C   UNL     1     -40.763  53.785 -50.237  1.00  0.00     0.417 C 
HETATM   27  F   UNL     1     -42.016  54.181 -49.879  1.00  0.00    -0.166 F 
HETATM   28  F   UNL     1     -40.414  52.835 -49.317  1.00  0.00    -0.166 F 
HETATM   29  F   UNL     1     -39.947  54.848 -50.010  1.00  0.00    -0.166 F 
ENDBRANCH  22  26
ENDBRANCH  19  20
ENDBRANCH  18  19
ENDBRANCH   2  18
TORSDOF 7
ENDMDL
