MODEL 1
REMARK VINA RESULT:      -8.0      0.000      0.000
REMARK  8 active torsions:
REMARK  status: ('A' for Active; 'I' for Inactive)
REMARK    1  A    between atoms: C_4  and  S_5 
REMARK    2  A    between atoms: S_5  and  C_6 
REMARK    3  A    between atoms: C_6  and  C_7 
REMARK       I    between atoms: C_7  and  N_8 
REMARK    4  A    between atoms: N_8  and  C_9 
REMARK    5  A    between atoms: C_20  and  C_21 
REMARK    6  A    between atoms: C_27  and  C_28 
REMARK       I    between atoms: C_28  and  N_29 
REMARK    7  A    between atoms: N_29  and  C_30 
REMARK    8  A    between atoms: C_31  and  O_32 
ROOT
HETATM    1  C   UNL     1     -45.737  59.633 -56.126  1.00  0.00     0.069 C 
HETATM    2  C   UNL     1     -44.436  59.253 -55.458  1.00  0.00     0.019 C 
HETATM    3  N   UNL     1     -44.257  59.749 -54.177  1.00  0.00    -0.353 N 
HETATM    4  C   UNL     1     -43.077  59.696 -53.463  1.00  0.00     0.087 C 
HETATM    5  C   UNL     1     -42.053  58.959 -53.956  1.00  0.00     0.055 C 
HETATM    6  C   UNL     1     -40.675  58.980 -53.315  1.00  0.00     0.019 C 
HETATM    7  N   UNL     1     -39.531  58.999 -52.783  1.00  0.00    -0.096 N 
HETATM    8  C   UNL     1     -42.264  58.060 -55.172  1.00  0.00     0.104 C 
HETATM    9  C   UNL     1     -43.489  58.447 -56.004  1.00  0.00     0.046 C 
HETATM   10  H   UNL     1     -44.981  60.348 -53.790  1.00  0.00     0.166 HD
ENDROOT
BRANCH   4  11
HETATM   11  S   UNL     1     -43.003  60.433 -51.879  1.00  0.00    -0.102 SA
BRANCH  11  12
HETATM   12  C   UNL     1     -44.352  59.606 -50.977  1.00  0.00     0.184 C 
BRANCH  12  13
HETATM   13  C   UNL     1     -44.177  58.081 -50.912  1.00  0.00     0.231 C 
HETATM   14  N   UNL     1     -42.870  57.646 -50.800  1.00  0.00    -0.327 N 
HETATM   15  H   UNL     1     -42.176  58.387 -50.769  1.00  0.00     0.169 HD
HETATM   16  O   UNL     1     -45.165  57.355 -50.997  1.00  0.00    -0.272 OA
BRANCH  14  17
HETATM   17  C   UNL     1     -42.380  56.334 -50.682  1.00  0.00     0.034 A 
HETATM   18  C   UNL     1     -43.180  55.217 -50.436  1.00  0.00     0.031 A 
HETATM   19  C   UNL     1     -42.603  53.946 -50.318  1.00  0.00     0.026 A 
HETATM   20  C   UNL     1     -41.226  53.789 -50.451  1.00  0.00     0.034 A 
HETATM   21 CL   UNL     1     -40.520  52.228 -50.307  1.00  0.00    -0.084 Cl
HETATM   22  C   UNL     1     -40.416  54.894 -50.698  1.00  0.00     0.026 A 
HETATM   23  C   UNL     1     -40.993  56.162 -50.810  1.00  0.00     0.031 A 
ENDBRANCH  14  17
ENDBRANCH  12  13
ENDBRANCH  11  12
ENDBRANCH   4  11
BRANCH   8  24
HETATM   24  C   UNL     1     -42.330  56.605 -54.679  1.00  0.00    -0.044 A 
HETATM   25  C   UNL     1     -41.199  55.765 -54.724  1.00  0.00     0.008 A 
HETATM   26  C   UNL     1     -41.282  54.429 -54.332  1.00  0.00     0.001 A 
HETATM   27  C   UNL     1     -42.497  53.906 -53.901  1.00  0.00     0.000 A 
HETATM   28  C   UNL     1     -43.629  54.718 -53.861  1.00  0.00     0.001 A 
HETATM   29  C   UNL     1     -43.550  56.058 -54.248  1.00  0.00     0.008 A 
ENDBRANCH   8  24
BRANCH   9  30
HETATM   30  C   UNL     1     -43.626  57.977 -57.425  1.00  0.00     0.255 C 
HETATM   31  N   UNL     1     -44.329  56.805 -57.608  1.00  0.00    -0.321 N 
HETATM   32  H   UNL     1     -44.448  56.167 -56.838  1.00  0.00     0.169 HD
HETATM   33  O   UNL     1     -43.029  58.569 -58.323  1.00  0.00    -0.268 OA
BRANCH  31  34
HETATM   34  C   UNL     1     -44.735  56.315 -58.872  1.00  0.00     0.068 A 
HETATM   35  C   UNL     1     -45.889  56.772 -59.543  1.00  0.00     0.095 A 
HETATM   36  C   UNL     1     -46.186  56.253 -60.810  1.00  0.00     0.039 A 
HETATM   37  C   UNL     1     -45.374  55.271 -61.384  1.00  0.00     0.003 A 
HETATM   38  C   UNL     1     -44.274  54.777 -60.689  1.00  0.00     0.002 A 
HETATM   39  C   UNL     1     -43.965  55.286 -59.428  1.00  0.00     0.032 A 
BRANCH  35  40
HETATM   40  O   UNL     1     -46.715  57.619 -58.849  1.00  0.00    -0.354 OA
HETATM   41  C   UNL     1     -47.103  58.830 -59.478  1.00  0.00     0.210 C 
ENDBRANCH  35  40
ENDBRANCH  31  34
ENDBRANCH   9  30
TORSDOF 8
ENDMDL
MODEL 2
REMARK VINA RESULT:      -7.5      2.715      4.627
REMARK  8 active torsions:
REMARK  status: ('A' for Active; 'I' for Inactive)
REMARK    1  A    between atoms: C_4  and  S_5 
REMARK    2  A    between atoms: S_5  and  C_6 
REMARK    3  A    between atoms: C_6  and  C_7 
REMARK       I    between atoms: C_7  and  N_8 
REMARK    4  A    between atoms: N_8  and  C_9 
REMARK    5  A    between atoms: C_20  and  C_21 
REMARK    6  A    between atoms: C_27  and  C_28 
REMARK       I    between atoms: C_28  and  N_29 
REMARK    7  A    between atoms: N_29  and  C_30 
REMARK    8  A    between atoms: C_31  and  O_32 
ROOT
HETATM    1  C   UNL     1     -42.821  56.191 -57.786  1.00  0.00     0.069 C 
HETATM    2  C   UNL     1     -42.993  57.602 -57.275  1.00  0.00     0.019 C 
HETATM    3  N   UNL     1     -42.368  57.879 -56.069  1.00  0.00    -0.353 N 
HETATM    4  C   UNL     1     -42.551  59.027 -55.325  1.00  0.00     0.087 C 
HETATM    5  C   UNL     1     -43.253  60.049 -55.871  1.00  0.00     0.055 C 
HETATM    6  C   UNL     1     -43.635  61.277 -55.060  1.00  0.00     0.019 C 
HETATM    7  N   UNL     1     -43.952  62.295 -54.387  1.00  0.00    -0.096 N 
HETATM    8  C   UNL     1     -43.667  60.003 -57.340  1.00  0.00     0.104 C 
HETATM    9  C   UNL     1     -43.660  58.590 -57.926  1.00  0.00     0.046 C 
HETATM   10  H   UNL     1     -41.873  57.124 -55.603  1.00  0.00     0.166 HD
ENDROOT
BRANCH   4  11
HETATM   11  S   UNL     1     -41.734  59.188 -53.788  1.00  0.00    -0.102 SA
BRANCH  11  12
HETATM   12  C   UNL     1     -42.645  58.032 -52.715  1.00  0.00     0.184 C 
BRANCH  12  13
HETATM   13  C   UNL     1     -42.519  56.571 -53.172  1.00  0.00     0.231 C 
HETATM   14  N   UNL     1     -41.279  55.997 -52.966  1.00  0.00    -0.327 N 
HETATM   15  H   UNL     1     -40.594  56.609 -52.532  1.00  0.00     0.169 HD
HETATM   16  O   UNL     1     -43.478  56.021 -53.710  1.00  0.00    -0.272 OA
BRANCH  14  17
HETATM   17  C   UNL     1     -40.853  54.685 -53.236  1.00  0.00     0.034 A 
HETATM   18  C   UNL     1     -40.689  54.162 -54.519  1.00  0.00     0.031 A 
HETATM   19  C   UNL     1     -40.275  52.836 -54.695  1.00  0.00     0.026 A 
HETATM   20  C   UNL     1     -40.019  52.031 -53.588  1.00  0.00     0.034 A 
HETATM   21 CL   UNL     1     -39.509  50.404 -53.806  1.00  0.00    -0.084 Cl
HETATM   22  C   UNL     1     -40.177  52.540 -52.301  1.00  0.00     0.026 A 
HETATM   23  C   UNL     1     -40.595  53.863 -52.128  1.00  0.00     0.031 A 
ENDBRANCH  14  17
ENDBRANCH  12  13
ENDBRANCH  11  12
ENDBRANCH   4  11
BRANCH   8  24
HETATM   24  C   UNL     1     -42.750  60.961 -58.120  1.00  0.00    -0.044 A 
HETATM   25  C   UNL     1     -41.348  60.877 -58.018  1.00  0.00     0.008 A 
HETATM   26  C   UNL     1     -40.524  61.787 -58.681  1.00  0.00     0.001 A 
HETATM   27  C   UNL     1     -41.088  62.805 -59.444  1.00  0.00     0.000 A 
HETATM   28  C   UNL     1     -42.473  62.912 -59.546  1.00  0.00     0.001 A 
HETATM   29  C   UNL     1     -43.302  62.000 -58.888  1.00  0.00     0.008 A 
ENDBRANCH   8  24
BRANCH   9  30
HETATM   30  C   UNL     1     -44.420  58.282 -59.186  1.00  0.00     0.255 C 
HETATM   31  N   UNL     1     -45.739  57.917 -59.020  1.00  0.00    -0.321 N 
HETATM   32  H   UNL     1     -46.056  57.575 -58.127  1.00  0.00     0.169 HD
HETATM   33  O   UNL     1     -43.829  58.253 -60.263  1.00  0.00    -0.268 OA
BRANCH  31  34
HETATM   34  C   UNL     1     -46.664  57.788 -60.083  1.00  0.00     0.068 A 
HETATM   35  C   UNL     1     -46.962  56.557 -60.704  1.00  0.00     0.095 A 
HETATM   36  C   UNL     1     -47.922  56.526 -61.723  1.00  0.00     0.039 A 
HETATM   37  C   UNL     1     -48.549  57.702 -62.144  1.00  0.00     0.003 A 
HETATM   38  C   UNL     1     -48.204  58.923 -61.573  1.00  0.00     0.002 A 
HETATM   39  C   UNL     1     -47.251  58.969 -60.556  1.00  0.00     0.032 A 
BRANCH  35  40
HETATM   40  O   UNL     1     -46.195  55.479 -60.342  1.00  0.00    -0.354 OA
HETATM   41  C   UNL     1     -45.104  55.129 -61.178  1.00  0.00     0.210 C 
ENDBRANCH  35  40
ENDBRANCH  31  34
ENDBRANCH   9  30
TORSDOF 8
ENDMDL
MODEL 3
REMARK VINA RESULT:      -7.4      4.398      8.132
REMARK  8 active torsions:
REMARK  status: ('A' for Active; 'I' for Inactive)
REMARK    1  A    between atoms: C_4  and  S_5 
REMARK    2  A    between atoms: S_5  and  C_6 
REMARK    3  A    between atoms: C_6  and  C_7 
REMARK       I    between atoms: C_7  and  N_8 
REMARK    4  A    between atoms: N_8  and  C_9 
REMARK    5  A    between atoms: C_20  and  C_21 
REMARK    6  A    between atoms: C_27  and  C_28 
REMARK       I    between atoms: C_28  and  N_29 
REMARK    7  A    between atoms: N_29  and  C_30 
REMARK    8  A    between atoms: C_31  and  O_32 
ROOT
HETATM    1  C   UNL     1     -41.871  57.835 -52.988  1.00  0.00     0.069 C 
HETATM    2  C   UNL     1     -42.823  57.927 -54.158  1.00  0.00     0.019 C 
HETATM    3  N   UNL     1     -43.286  59.200 -54.450  1.00  0.00    -0.353 N 
HETATM    4  C   UNL     1     -44.303  59.491 -55.337  1.00  0.00     0.087 C 
HETATM    5  C   UNL     1     -44.784  58.497 -56.121  1.00  0.00     0.055 C 
HETATM    6  C   UNL     1     -46.006  58.698 -57.002  1.00  0.00     0.019 C 
HETATM    7  N   UNL     1     -47.020  58.865 -57.734  1.00  0.00    -0.096 N 
HETATM    8  C   UNL     1     -44.091  57.137 -56.155  1.00  0.00     0.104 C 
HETATM    9  C   UNL     1     -43.201  56.881 -54.938  1.00  0.00     0.046 C 
HETATM   10  H   UNL     1     -42.987  59.966 -53.853  1.00  0.00     0.166 HD
ENDROOT
BRANCH   4  11
HETATM   11  S   UNL     1     -44.811  61.152 -55.538  1.00  0.00    -0.102 SA
BRANCH  11  12
HETATM   12  C   UNL     1     -43.235  62.064 -55.565  1.00  0.00     0.184 C 
BRANCH  12  13
HETATM   13  C   UNL     1     -42.868  62.575 -56.966  1.00  0.00     0.231 C 
HETATM   14  N   UNL     1     -41.749  61.991 -57.529  1.00  0.00    -0.327 N 
HETATM   15  H   UNL     1     -41.301  61.287 -56.950  1.00  0.00     0.169 HD
HETATM   16  O   UNL     1     -43.539  63.468 -57.480  1.00  0.00    -0.272 OA
BRANCH  14  17
HETATM   17  C   UNL     1     -41.178  62.207 -58.795  1.00  0.00     0.034 A 
HETATM   18  C   UNL     1     -41.666  61.655 -59.981  1.00  0.00     0.031 A 
HETATM   19  C   UNL     1     -41.024  61.911 -61.198  1.00  0.00     0.026 A 
HETATM   20  C   UNL     1     -39.894  62.724 -61.233  1.00  0.00     0.034 A 
HETATM   21 CL   UNL     1     -39.107  63.039 -62.729  1.00  0.00    -0.084 Cl
HETATM   22  C   UNL     1     -39.396  63.283 -60.059  1.00  0.00     0.026 A 
HETATM   23  C   UNL     1     -40.036  63.021 -58.844  1.00  0.00     0.031 A 
ENDBRANCH  14  17
ENDBRANCH  12  13
ENDBRANCH  11  12
ENDBRANCH   4  11
BRANCH   8  24
HETATM   24  C   UNL     1     -43.312  57.036 -57.478  1.00  0.00    -0.044 A 
HETATM   25  C   UNL     1     -42.443  58.064 -57.895  1.00  0.00     0.008 A 
HETATM   26  C   UNL     1     -41.786  57.993 -59.124  1.00  0.00     0.001 A 
HETATM   27  C   UNL     1     -41.997  56.903 -59.962  1.00  0.00     0.000 A 
HETATM   28  C   UNL     1     -42.863  55.883 -59.573  1.00  0.00     0.001 A 
HETATM   29  C   UNL     1     -43.519  55.947 -58.340  1.00  0.00     0.008 A 
ENDBRANCH   8  24
BRANCH   9  30
HETATM   30  C   UNL     1     -42.782  55.483 -54.578  1.00  0.00     0.255 C 
HETATM   31  N   UNL     1     -41.434  55.296 -54.356  1.00  0.00    -0.321 N 
HETATM   32  H   UNL     1     -40.769  55.957 -54.722  1.00  0.00     0.169 HD
HETATM   33  O   UNL     1     -43.607  54.572 -54.611  1.00  0.00    -0.268 OA
BRANCH  31  34
HETATM   34  C   UNL     1     -40.878  54.112 -53.814  1.00  0.00     0.068 A 
HETATM   35  C   UNL     1     -40.753  53.881 -52.429  1.00  0.00     0.095 A 
HETATM   36  C   UNL     1     -40.225  52.660 -51.990  1.00  0.00     0.039 A 
HETATM   37  C   UNL     1     -39.794  51.700 -52.910  1.00  0.00     0.003 A 
HETATM   38  C   UNL     1     -39.859  51.961 -54.276  1.00  0.00     0.002 A 
HETATM   39  C   UNL     1     -40.384  53.171 -54.727  1.00  0.00     0.032 A 
BRANCH  35  40
HETATM   40  O   UNL     1     -41.053  54.929 -51.596  1.00  0.00    -0.354 OA
HETATM   41  C   UNL     1     -42.209  54.820 -50.781  1.00  0.00     0.210 C 
ENDBRANCH  35  40
ENDBRANCH  31  34
ENDBRANCH   9  30
TORSDOF 8
ENDMDL
MODEL 4
REMARK VINA RESULT:      -7.4      3.624      8.034
REMARK  8 active torsions:
REMARK  status: ('A' for Active; 'I' for Inactive)
REMARK    1  A    between atoms: C_4  and  S_5 
REMARK    2  A    between atoms: S_5  and  C_6 
REMARK    3  A    between atoms: C_6  and  C_7 
REMARK       I    between atoms: C_7  and  N_8 
REMARK    4  A    between atoms: N_8  and  C_9 
REMARK    5  A    between atoms: C_20  and  C_21 
REMARK    6  A    between atoms: C_27  and  C_28 
REMARK       I    between atoms: C_28  and  N_29 
REMARK    7  A    between atoms: N_29  and  C_30 
REMARK    8  A    between atoms: C_31  and  O_32 
ROOT
HETATM    1  C   UNL     1     -45.088  61.955 -53.199  1.00  0.00     0.069 C 
HETATM    2  C   UNL     1     -44.547  60.642 -52.684  1.00  0.00     0.019 C 
HETATM    3  N   UNL     1     -44.653  59.571 -53.556  1.00  0.00    -0.353 N 
HETATM    4  C   UNL     1     -44.410  58.252 -53.228  1.00  0.00     0.087 C 
HETATM    5  C   UNL     1     -43.860  57.975 -52.022  1.00  0.00     0.055 C 
HETATM    6  C   UNL     1     -43.712  56.547 -51.523  1.00  0.00     0.019 C 
HETATM    7  N   UNL     1     -43.589  55.362 -51.109  1.00  0.00    -0.096 N 
HETATM    8  C   UNL     1     -43.348  59.103 -51.129  1.00  0.00     0.104 C 
HETATM    9  C   UNL     1     -43.944  60.468 -51.480  1.00  0.00     0.046 C 
HETATM   10  H   UNL     1     -45.106  59.726 -54.453  1.00  0.00     0.166 HD
ENDROOT
BRANCH   4  11
HETATM   11  S   UNL     1     -44.659  57.012 -54.435  1.00  0.00    -0.102 SA
BRANCH  11  12
HETATM   12  C   UNL     1     -42.964  56.609 -54.966  1.00  0.00     0.184 C 
BRANCH  12  13
HETATM   13  C   UNL     1     -42.574  55.155 -54.658  1.00  0.00     0.231 C 
HETATM   14  N   UNL     1     -41.443  55.005 -53.879  1.00  0.00    -0.327 N 
HETATM   15  H   UNL     1     -41.002  55.876 -53.597  1.00  0.00     0.169 HD
HETATM   16  O   UNL     1     -43.241  54.237 -55.131  1.00  0.00    -0.272 OA
BRANCH  14  17
HETATM   17  C   UNL     1     -40.849  53.826 -53.395  1.00  0.00     0.034 A 
HETATM   18  C   UNL     1     -40.379  52.794 -54.209  1.00  0.00     0.031 A 
HETATM   19  C   UNL     1     -39.815  51.645 -53.640  1.00  0.00     0.026 A 
HETATM   20  C   UNL     1     -39.715  51.529 -52.256  1.00  0.00     0.034 A 
HETATM   21 CL   UNL     1     -39.021  50.119 -51.559  1.00  0.00    -0.084 Cl
HETATM   22  C   UNL     1     -40.179  52.551 -51.432  1.00  0.00     0.026 A 
HETATM   23  C   UNL     1     -40.746  53.695 -52.002  1.00  0.00     0.031 A 
ENDBRANCH  14  17
ENDBRANCH  12  13
ENDBRANCH  11  12
ENDBRANCH   4  11
BRANCH   8  24
HETATM   24  C   UNL     1     -41.812  59.102 -51.199  1.00  0.00    -0.044 A 
HETATM   25  C   UNL     1     -41.029  59.474 -50.088  1.00  0.00     0.008 A 
HETATM   26  C   UNL     1     -39.638  59.528 -50.177  1.00  0.00     0.001 A 
HETATM   27  C   UNL     1     -39.006  59.227 -51.380  1.00  0.00     0.000 A 
HETATM   28  C   UNL     1     -39.765  58.869 -52.493  1.00  0.00     0.001 A 
HETATM   29  C   UNL     1     -41.159  58.808 -52.407  1.00  0.00     0.008 A 
ENDBRANCH   8  24
BRANCH   9  30
HETATM   30  C   UNL     1     -43.904  61.596 -50.487  1.00  0.00     0.255 C 
HETATM   31  N   UNL     1     -44.989  61.694 -49.641  1.00  0.00    -0.321 N 
HETATM   32  H   UNL     1     -45.860  61.254 -49.891  1.00  0.00     0.169 HD
HETATM   33  O   UNL     1     -42.999  62.427 -50.543  1.00  0.00    -0.268 OA
BRANCH  31  34
HETATM   34  C   UNL     1     -45.042  62.553 -48.518  1.00  0.00     0.068 A 
HETATM   35  C   UNL     1     -45.665  62.199 -47.304  1.00  0.00     0.095 A 
HETATM   36  C   UNL     1     -45.630  63.104 -46.235  1.00  0.00     0.039 A 
HETATM   37  C   UNL     1     -45.022  64.354 -46.381  1.00  0.00     0.003 A 
HETATM   38  C   UNL     1     -44.467  64.723 -47.603  1.00  0.00     0.002 A 
HETATM   39  C   UNL     1     -44.492  63.832 -48.675  1.00  0.00     0.032 A 
BRANCH  35  40
HETATM   40  O   UNL     1     -46.372  61.023 -47.289  1.00  0.00    -0.354 OA
HETATM   41  C   UNL     1     -46.222  60.173 -46.164  1.00  0.00     0.210 C 
ENDBRANCH  35  40
ENDBRANCH  31  34
ENDBRANCH   9  30
TORSDOF 8
ENDMDL
MODEL 5
REMARK VINA RESULT:      -7.3      3.821      7.815
REMARK  8 active torsions:
REMARK  status: ('A' for Active; 'I' for Inactive)
REMARK    1  A    between atoms: C_4  and  S_5 
REMARK    2  A    between atoms: S_5  and  C_6 
REMARK    3  A    between atoms: C_6  and  C_7 
REMARK       I    between atoms: C_7  and  N_8 
REMARK    4  A    between atoms: N_8  and  C_9 
REMARK    5  A    between atoms: C_20  and  C_21 
REMARK    6  A    between atoms: C_27  and  C_28 
REMARK       I    between atoms: C_28  and  N_29 
REMARK    7  A    between atoms: N_29  and  C_30 
REMARK    8  A    between atoms: C_31  and  O_32 
ROOT
HETATM    1  C   UNL     1     -45.586  60.804 -53.210  1.00  0.00     0.069 C 
HETATM    2  C   UNL     1     -44.760  59.677 -52.636  1.00  0.00     0.019 C 
HETATM    3  N   UNL     1     -44.593  58.579 -53.465  1.00  0.00    -0.353 N 
HETATM    4  C   UNL     1     -44.051  57.369 -53.081  1.00  0.00     0.087 C 
HETATM    5  C   UNL     1     -43.474  57.275 -51.859  1.00  0.00     0.055 C 
HETATM    6  C   UNL     1     -43.002  55.943 -51.300  1.00  0.00     0.019 C 
HETATM    7  N   UNL     1     -42.610  54.837 -50.836  1.00  0.00    -0.096 N 
HETATM    8  C   UNL     1     -43.261  58.526 -51.008  1.00  0.00     0.104 C 
HETATM    9  C   UNL     1     -44.156  59.696 -51.420  1.00  0.00     0.046 C 
HETATM   10  H   UNL     1     -45.053  58.589 -54.371  1.00  0.00     0.166 HD
ENDROOT
BRANCH   4  11
HETATM   11  S   UNL     1     -43.977  56.061 -54.238  1.00  0.00    -0.102 SA
BRANCH  11  12
HETATM   12  C   UNL     1     -42.382  56.340 -55.072  1.00  0.00     0.184 C 
BRANCH  12  13
HETATM   13  C   UNL     1     -41.317  55.305 -54.681  1.00  0.00     0.231 C 
HETATM   14  N   UNL     1     -41.810  54.136 -54.133  1.00  0.00    -0.327 N 
HETATM   15  H   UNL     1     -42.822  54.096 -54.056  1.00  0.00     0.169 HD
HETATM   16  O   UNL     1     -40.127  55.573 -54.836  1.00  0.00    -0.272 OA
BRANCH  14  17
HETATM   17  C   UNL     1     -41.111  52.991 -53.711  1.00  0.00     0.034 A 
HETATM   18  C   UNL     1     -40.408  52.901 -52.508  1.00  0.00     0.031 A 
HETATM   19  C   UNL     1     -39.726  51.725 -52.174  1.00  0.00     0.026 A 
HETATM   20  C   UNL     1     -39.750  50.634 -53.039  1.00  0.00     0.034 A 
HETATM   21 CL   UNL     1     -38.914  49.190 -52.626  1.00  0.00    -0.084 Cl
HETATM   22  C   UNL     1     -40.448  50.709 -54.242  1.00  0.00     0.026 A 
HETATM   23  C   UNL     1     -41.124  51.886 -54.576  1.00  0.00     0.031 A 
ENDBRANCH  14  17
ENDBRANCH  12  13
ENDBRANCH  11  12
ENDBRANCH   4  11
BRANCH   8  24
HETATM   24  C   UNL     1     -41.767  58.886 -51.063  1.00  0.00    -0.044 A 
HETATM   25  C   UNL     1     -41.023  58.744 -52.251  1.00  0.00     0.008 A 
HETATM   26  C   UNL     1     -39.655  59.015 -52.278  1.00  0.00     0.001 A 
HETATM   27  C   UNL     1     -39.005  59.421 -51.117  1.00  0.00     0.000 A 
HETATM   28  C   UNL     1     -39.721  59.556 -49.929  1.00  0.00     0.001 A 
HETATM   29  C   UNL     1     -41.093  59.290 -49.898  1.00  0.00     0.008 A 
ENDBRANCH   8  24
BRANCH   9  30
HETATM   30  C   UNL     1     -44.403  60.838 -50.474  1.00  0.00     0.255 C 
HETATM   31  N   UNL     1     -45.475  60.691 -49.619  1.00  0.00    -0.321 N 
HETATM   32  H   UNL     1     -46.205  60.034 -49.839  1.00  0.00     0.169 HD
HETATM   33  O   UNL     1     -43.740  61.869 -50.575  1.00  0.00    -0.268 OA
BRANCH  31  34
HETATM   34  C   UNL     1     -45.743  61.555 -48.530  1.00  0.00     0.068 A 
HETATM   35  C   UNL     1     -46.649  62.633 -48.604  1.00  0.00     0.095 A 
HETATM   36  C   UNL     1     -46.876  63.407 -47.459  1.00  0.00     0.039 A 
HETATM   37  C   UNL     1     -46.187  63.141 -46.273  1.00  0.00     0.003 A 
HETATM   38  C   UNL     1     -45.246  62.117 -46.224  1.00  0.00     0.002 A 
HETATM   39  C   UNL     1     -45.011  61.337 -47.355  1.00  0.00     0.032 A 
BRANCH  35  40
HETATM   40  O   UNL     1     -47.165  62.925 -49.841  1.00  0.00    -0.354 OA
HETATM   41  C   UNL     1     -46.589  64.000 -50.565  1.00  0.00     0.210 C 
ENDBRANCH  35  40
ENDBRANCH  31  34
ENDBRANCH   9  30
TORSDOF 8
ENDMDL
MODEL 6
REMARK VINA RESULT:      -7.1      2.177      2.902
REMARK  8 active torsions:
REMARK  status: ('A' for Active; 'I' for Inactive)
REMARK    1  A    between atoms: C_4  and  S_5 
REMARK    2  A    between atoms: S_5  and  C_6 
REMARK    3  A    between atoms: C_6  and  C_7 
REMARK       I    between atoms: C_7  and  N_8 
REMARK    4  A    between atoms: N_8  and  C_9 
REMARK    5  A    between atoms: C_20  and  C_21 
REMARK    6  A    between atoms: C_27  and  C_28 
REMARK       I    between atoms: C_28  and  N_29 
REMARK    7  A    between atoms: N_29  and  C_30 
REMARK    8  A    between atoms: C_31  and  O_32 
ROOT
HETATM    1  C   UNL     1     -44.970  61.368 -55.883  1.00  0.00     0.069 C 
HETATM    2  C   UNL     1     -43.957  60.767 -54.936  1.00  0.00     0.019 C 
HETATM    3  N   UNL     1     -44.344  60.715 -53.606  1.00  0.00    -0.353 N 
HETATM    4  C   UNL     1     -43.515  60.394 -52.550  1.00  0.00     0.087 C 
HETATM    5  C   UNL     1     -42.273  59.925 -52.820  1.00  0.00     0.055 C 
HETATM    6  C   UNL     1     -41.248  59.704 -51.719  1.00  0.00     0.019 C 
HETATM    7  N   UNL     1     -40.398  59.521 -50.806  1.00  0.00    -0.096 N 
HETATM    8  C   UNL     1     -41.872  59.581 -54.253  1.00  0.00     0.104 C 
HETATM    9  C   UNL     1     -42.756  60.253 -55.305  1.00  0.00     0.046 C 
HETATM   10  H   UNL     1     -45.249  61.103 -53.355  1.00  0.00     0.166 HD
ENDROOT
BRANCH   4  11
HETATM   11  S   UNL     1     -44.149  60.442 -50.922  1.00  0.00    -0.102 SA
BRANCH  11  12
HETATM   12  C   UNL     1     -45.248  58.991 -50.865  1.00  0.00     0.184 C 
BRANCH  12  13
HETATM   13  C   UNL     1     -44.578  57.716 -51.399  1.00  0.00     0.231 C 
HETATM   14  N   UNL     1     -43.593  57.189 -50.587  1.00  0.00    -0.327 N 
HETATM   15  H   UNL     1     -43.428  57.705 -49.728  1.00  0.00     0.169 HD
HETATM   16  O   UNL     1     -44.915  57.269 -52.493  1.00  0.00    -0.272 OA
BRANCH  14  17
HETATM   17  C   UNL     1     -42.824  56.025 -50.767  1.00  0.00     0.034 A 
HETATM   18  C   UNL     1     -43.310  54.842 -51.324  1.00  0.00     0.031 A 
HETATM   19  C   UNL     1     -42.476  53.724 -51.451  1.00  0.00     0.026 A 
HETATM   20  C   UNL     1     -41.152  53.789 -51.025  1.00  0.00     0.034 A 
HETATM   21 CL   UNL     1     -40.129  52.417 -51.184  1.00  0.00    -0.084 Cl
HETATM   22  C   UNL     1     -40.652  54.964 -50.469  1.00  0.00     0.026 A 
HETATM   23  C   UNL     1     -41.488  56.077 -50.339  1.00  0.00     0.031 A 
ENDBRANCH  14  17
ENDBRANCH  12  13
ENDBRANCH  11  12
ENDBRANCH   4  11
BRANCH   8  24
HETATM   24  C   UNL     1     -41.867  58.049 -54.388  1.00  0.00    -0.044 A 
HETATM   25  C   UNL     1     -40.815  57.272 -53.866  1.00  0.00     0.008 A 
HETATM   26  C   UNL     1     -40.787  55.888 -54.045  1.00  0.00     0.001 A 
HETATM   27  C   UNL     1     -41.803  55.260 -54.760  1.00  0.00     0.000 A 
HETATM   28  C   UNL     1     -42.845  56.014 -55.295  1.00  0.00     0.001 A 
HETATM   29  C   UNL     1     -42.880  57.400 -55.114  1.00  0.00     0.008 A 
ENDBRANCH   8  24
BRANCH   9  30
HETATM   30  C   UNL     1     -42.284  60.387 -56.727  1.00  0.00     0.255 C 
HETATM   31  N   UNL     1     -43.124  59.872 -57.691  1.00  0.00    -0.321 N 
HETATM   32  H   UNL     1     -43.819  59.189 -57.438  1.00  0.00     0.169 HD
HETATM   33  O   UNL     1     -41.158  60.824 -56.957  1.00  0.00    -0.268 OA
BRANCH  31  34
HETATM   34  C   UNL     1     -42.955  60.081 -59.081  1.00  0.00     0.068 A 
HETATM   35  C   UNL     1     -42.388  59.119 -59.943  1.00  0.00     0.095 A 
HETATM   36  C   UNL     1     -42.299  59.404 -61.311  1.00  0.00     0.039 A 
HETATM   37  C   UNL     1     -42.729  60.637 -61.810  1.00  0.00     0.003 A 
HETATM   38  C   UNL     1     -43.226  61.607 -60.945  1.00  0.00     0.002 A 
HETATM   39  C   UNL     1     -43.323  61.336 -59.581  1.00  0.00     0.032 A 
BRANCH  35  40
HETATM   40  O   UNL     1     -41.850  58.002 -59.357  1.00  0.00    -0.354 OA
HETATM   41  C   UNL     1     -42.276  56.734 -59.829  1.00  0.00     0.210 C 
ENDBRANCH  35  40
ENDBRANCH  31  34
ENDBRANCH   9  30
TORSDOF 8
ENDMDL
MODEL 7
REMARK VINA RESULT:      -6.9      4.385      7.786
REMARK  8 active torsions:
REMARK  status: ('A' for Active; 'I' for Inactive)
REMARK    1  A    between atoms: C_4  and  S_5 
REMARK    2  A    between atoms: S_5  and  C_6 
REMARK    3  A    between atoms: C_6  and  C_7 
REMARK       I    between atoms: C_7  and  N_8 
REMARK    4  A    between atoms: N_8  and  C_9 
REMARK    5  A    between atoms: C_20  and  C_21 
REMARK    6  A    between atoms: C_27  and  C_28 
REMARK       I    between atoms: C_28  and  N_29 
REMARK    7  A    between atoms: N_29  and  C_30 
REMARK    8  A    between atoms: C_31  and  O_32 
ROOT
HETATM    1  C   UNL     1     -42.050  58.040 -53.080  1.00  0.00     0.069 C 
HETATM    2  C   UNL     1     -43.004  58.105 -54.249  1.00  0.00     0.019 C 
HETATM    3  N   UNL     1     -43.495  59.365 -54.548  1.00  0.00    -0.353 N 
HETATM    4  C   UNL     1     -44.518  59.629 -55.436  1.00  0.00     0.087 C 
HETATM    5  C   UNL     1     -44.977  58.621 -56.215  1.00  0.00     0.055 C 
HETATM    6  C   UNL     1     -46.203  58.790 -57.097  1.00  0.00     0.019 C 
HETATM    7  N   UNL     1     -47.221  58.930 -57.829  1.00  0.00    -0.096 N 
HETATM    8  C   UNL     1     -44.253  57.276 -56.243  1.00  0.00     0.104 C 
HETATM    9  C   UNL     1     -43.358  57.047 -55.024  1.00  0.00     0.046 C 
HETATM   10  H   UNL     1     -43.213  60.141 -53.955  1.00  0.00     0.166 HD
ENDROOT
BRANCH   4  11
HETATM   11  S   UNL     1     -45.063  61.277 -55.646  1.00  0.00    -0.102 SA
BRANCH  11  12
HETATM   12  C   UNL     1     -45.117  61.913 -53.940  1.00  0.00     0.184 C 
BRANCH  12  13
HETATM   13  C   UNL     1     -46.474  61.676 -53.260  1.00  0.00     0.231 C 
HETATM   14  N   UNL     1     -47.448  62.611 -53.556  1.00  0.00    -0.327 N 
HETATM   15  H   UNL     1     -47.154  63.346 -54.193  1.00  0.00     0.169 HD
HETATM   16  O   UNL     1     -46.608  60.727 -52.491  1.00  0.00    -0.272 OA
BRANCH  14  17
HETATM   17  C   UNL     1     -48.788  62.660 -53.132  1.00  0.00     0.034 A 
HETATM   18  C   UNL     1     -49.851  62.079 -53.824  1.00  0.00     0.031 A 
HETATM   19  C   UNL     1     -51.159  62.191 -53.335  1.00  0.00     0.026 A 
HETATM   20  C   UNL     1     -51.405  62.880 -52.150  1.00  0.00     0.034 A 
HETATM   21 CL   UNL     1     -53.010  63.015 -51.551  1.00  0.00    -0.084 Cl
HETATM   22  C   UNL     1     -50.353  63.464 -51.448  1.00  0.00     0.026 A 
HETATM   23  C   UNL     1     -49.050  63.355 -51.941  1.00  0.00     0.031 A 
ENDBRANCH  14  17
ENDBRANCH  12  13
ENDBRANCH  11  12
ENDBRANCH   4  11
BRANCH   8  24
HETATM   24  C   UNL     1     -43.473  57.186 -57.565  1.00  0.00    -0.044 A 
HETATM   25  C   UNL     1     -43.557  56.046 -58.388  1.00  0.00     0.008 A 
HETATM   26  C   UNL     1     -42.799  55.947 -59.556  1.00  0.00     0.001 A 
HETATM   27  C   UNL     1     -41.936  56.978 -59.913  1.00  0.00     0.000 A 
HETATM   28  C   UNL     1     -41.830  58.108 -59.105  1.00  0.00     0.001 A 
HETATM   29  C   UNL     1     -42.591  58.214 -57.937  1.00  0.00     0.008 A 
ENDBRANCH   8  24
BRANCH   9  30
HETATM   30  C   UNL     1     -42.908  55.660 -54.657  1.00  0.00     0.255 C 
HETATM   31  N   UNL     1     -41.550  55.495 -54.477  1.00  0.00    -0.321 N 
HETATM   32  H   UNL     1     -40.907  56.160 -54.875  1.00  0.00     0.169 HD
HETATM   33  O   UNL     1     -43.720  54.737 -54.649  1.00  0.00    -0.268 OA
BRANCH  31  34
HETATM   34  C   UNL     1     -40.961  54.328 -53.936  1.00  0.00     0.068 A 
HETATM   35  C   UNL     1     -40.797  54.115 -52.552  1.00  0.00     0.095 A 
HETATM   36  C   UNL     1     -40.237  52.908 -52.113  1.00  0.00     0.039 A 
HETATM   37  C   UNL     1     -39.812  51.945 -53.033  1.00  0.00     0.003 A 
HETATM   38  C   UNL     1     -39.916  52.189 -54.399  1.00  0.00     0.002 A 
HETATM   39  C   UNL     1     -40.473  53.384 -54.851  1.00  0.00     0.032 A 
BRANCH  35  40
HETATM   40  O   UNL     1     -41.094  55.167 -51.724  1.00  0.00    -0.354 OA
HETATM   41  C   UNL     1     -42.118  54.984 -50.759  1.00  0.00     0.210 C 
ENDBRANCH  35  40
ENDBRANCH  31  34
ENDBRANCH   9  30
TORSDOF 8
ENDMDL
MODEL 8
REMARK VINA RESULT:      -6.8      3.087      6.662
REMARK  8 active torsions:
REMARK  status: ('A' for Active; 'I' for Inactive)
REMARK    1  A    between atoms: C_4  and  S_5 
REMARK    2  A    between atoms: S_5  and  C_6 
REMARK    3  A    between atoms: C_6  and  C_7 
REMARK       I    between atoms: C_7  and  N_8 
REMARK    4  A    between atoms: N_8  and  C_9 
REMARK    5  A    between atoms: C_20  and  C_21 
REMARK    6  A    between atoms: C_27  and  C_28 
REMARK       I    between atoms: C_28  and  N_29 
REMARK    7  A    between atoms: N_29  and  C_30 
REMARK    8  A    between atoms: C_31  and  O_32 
ROOT
HETATM    1  C   UNL     1     -42.688  58.845 -53.395  1.00  0.00     0.069 C 
HETATM    2  C   UNL     1     -43.494  58.716 -54.667  1.00  0.00     0.019 C 
HETATM    3  N   UNL     1     -43.964  59.907 -55.197  1.00  0.00    -0.353 N 
HETATM    4  C   UNL     1     -44.875  60.013 -56.228  1.00  0.00     0.087 C 
HETATM    5  C   UNL     1     -45.221  58.892 -56.905  1.00  0.00     0.055 C 
HETATM    6  C   UNL     1     -46.334  58.897 -57.941  1.00  0.00     0.019 C 
HETATM    7  N   UNL     1     -47.257  58.902 -58.800  1.00  0.00    -0.096 N 
HETATM    8  C   UNL     1     -44.479  57.580 -56.657  1.00  0.00     0.104 C 
HETATM    9  C   UNL     1     -43.735  57.551 -55.320  1.00  0.00     0.046 C 
HETATM   10  H   UNL     1     -43.768  60.766 -54.691  1.00  0.00     0.166 HD
ENDROOT
BRANCH   4  11
HETATM   11  S   UNL     1     -45.416  61.597 -56.731  1.00  0.00    -0.102 SA
BRANCH  11  12
HETATM   12  C   UNL     1     -46.815  61.929 -55.614  1.00  0.00     0.184 C 
BRANCH  12  13
HETATM   13  C   UNL     1     -46.368  62.248 -54.179  1.00  0.00     0.231 C 
HETATM   14  N   UNL     1     -46.681  61.283 -53.241  1.00  0.00    -0.327 N 
HETATM   15  H   UNL     1     -47.168  60.472 -53.610  1.00  0.00     0.169 HD
HETATM   16  O   UNL     1     -45.810  63.317 -53.943  1.00  0.00    -0.272 OA
BRANCH  14  17
HETATM   17  C   UNL     1     -46.383  61.254 -51.866  1.00  0.00     0.034 A 
HETATM   18  C   UNL     1     -46.695  62.281 -50.975  1.00  0.00     0.031 A 
HETATM   19  C   UNL     1     -46.347  62.174 -49.623  1.00  0.00     0.026 A 
HETATM   20  C   UNL     1     -45.691  61.037 -49.158  1.00  0.00     0.034 A 
HETATM   21 CL   UNL     1     -45.266  60.906 -47.498  1.00  0.00    -0.084 Cl
HETATM   22  C   UNL     1     -45.375  60.003 -50.036  1.00  0.00     0.026 A 
HETATM   23  C   UNL     1     -45.719  60.115 -51.386  1.00  0.00     0.031 A 
ENDBRANCH  14  17
ENDBRANCH  12  13
ENDBRANCH  11  12
ENDBRANCH   4  11
BRANCH   8  24
HETATM   24  C   UNL     1     -43.543  57.333 -57.851  1.00  0.00    -0.044 A 
HETATM   25  C   UNL     1     -42.665  58.334 -58.311  1.00  0.00     0.008 A 
HETATM   26  C   UNL     1     -41.861  58.124 -59.433  1.00  0.00     0.001 A 
HETATM   27  C   UNL     1     -41.931  56.916 -60.121  1.00  0.00     0.000 A 
HETATM   28  C   UNL     1     -42.803  55.919 -59.687  1.00  0.00     0.001 A 
HETATM   29  C   UNL     1     -43.606  56.123 -58.562  1.00  0.00     0.008 A 
ENDBRANCH   8  24
BRANCH   9  30
HETATM   30  C   UNL     1     -43.312  56.243 -54.711  1.00  0.00     0.255 C 
HETATM   31  N   UNL     1     -41.967  55.947 -54.792  1.00  0.00    -0.321 N 
HETATM   32  H   UNL     1     -41.393  56.408 -55.479  1.00  0.00     0.169 HD
HETATM   33  O   UNL     1     -44.163  55.464 -54.286  1.00  0.00    -0.268 OA
BRANCH  31  34
HETATM   34  C   UNL     1     -41.351  54.874 -54.106  1.00  0.00     0.068 A 
HETATM   35  C   UNL     1     -41.188  54.844 -52.706  1.00  0.00     0.095 A 
HETATM   36  C   UNL     1     -40.600  53.717 -52.116  1.00  0.00     0.039 A 
HETATM   37  C   UNL     1     -40.146  52.657 -52.905  1.00  0.00     0.003 A 
HETATM   38  C   UNL     1     -40.250  52.721 -54.291  1.00  0.00     0.002 A 
HETATM   39  C   UNL     1     -40.835  53.835 -54.892  1.00  0.00     0.032 A 
BRANCH  35  40
HETATM   40  O   UNL     1     -41.515  55.985 -52.018  1.00  0.00    -0.354 OA
HETATM   41  C   UNL     1     -41.089  56.093 -50.670  1.00  0.00     0.210 C 
ENDBRANCH  35  40
ENDBRANCH  31  34
ENDBRANCH   9  30
TORSDOF 8
ENDMDL
MODEL 9
REMARK VINA RESULT:      -6.7      4.972      8.553
REMARK  8 active torsions:
REMARK  status: ('A' for Active; 'I' for Inactive)
REMARK    1  A    between atoms: C_4  and  S_5 
REMARK    2  A    between atoms: S_5  and  C_6 
REMARK    3  A    between atoms: C_6  and  C_7 
REMARK       I    between atoms: C_7  and  N_8 
REMARK    4  A    between atoms: N_8  and  C_9 
REMARK    5  A    between atoms: C_20  and  C_21 
REMARK    6  A    between atoms: C_27  and  C_28 
REMARK       I    between atoms: C_28  and  N_29 
REMARK    7  A    between atoms: N_29  and  C_30 
REMARK    8  A    between atoms: C_31  and  O_32 
ROOT
HETATM    1  C   UNL     1     -45.175  60.063 -54.725  1.00  0.00     0.069 C 
HETATM    2  C   UNL     1     -45.434  59.470 -56.091  1.00  0.00     0.019 C 
HETATM    3  N   UNL     1     -46.392  60.122 -56.851  1.00  0.00    -0.353 N 
HETATM    4  C   UNL     1     -46.926  59.647 -58.032  1.00  0.00     0.087 C 
HETATM    5  C   UNL     1     -46.368  58.553 -58.603  1.00  0.00     0.055 C 
HETATM    6  C   UNL     1     -46.996  57.876 -59.810  1.00  0.00     0.019 C 
HETATM    7  N   UNL     1     -47.517  57.314 -60.812  1.00  0.00    -0.096 N 
HETATM    8  C   UNL     1     -45.067  57.973 -58.052  1.00  0.00     0.104 C 
HETATM    9  C   UNL     1     -44.774  58.404 -56.613  1.00  0.00     0.046 C 
HETATM   10  H   UNL     1     -46.869  60.918 -56.439  1.00  0.00     0.166 HD
ENDROOT
BRANCH   4  11
HETATM   11  S   UNL     1     -48.179  60.566 -58.832  1.00  0.00    -0.102 SA
BRANCH  11  12
HETATM   12  C   UNL     1     -49.674  60.137 -57.884  1.00  0.00     0.184 C 
BRANCH  12  13
HETATM   13  C   UNL     1     -49.937  61.104 -56.720  1.00  0.00     0.231 C 
HETATM   14  N   UNL     1     -51.050  60.810 -55.955  1.00  0.00    -0.327 N 
HETATM   15  H   UNL     1     -51.562  59.984 -56.249  1.00  0.00     0.169 HD
HETATM   16  O   UNL     1     -49.197  62.072 -56.558  1.00  0.00    -0.272 OA
BRANCH  14  17
HETATM   17  C   UNL     1     -51.539  61.467 -54.812  1.00  0.00     0.034 A 
HETATM   18  C   UNL     1     -50.818  61.623 -53.628  1.00  0.00     0.031 A 
HETATM   19  C   UNL     1     -51.391  62.280 -52.532  1.00  0.00     0.026 A 
HETATM   20  C   UNL     1     -52.685  62.786 -52.619  1.00  0.00     0.034 A 
HETATM   21 CL   UNL     1     -53.386  63.593 -51.273  1.00  0.00    -0.084 Cl
HETATM   22  C   UNL     1     -53.416  62.639 -53.795  1.00  0.00     0.026 A 
HETATM   23  C   UNL     1     -52.844  61.979 -54.886  1.00  0.00     0.031 A 
ENDBRANCH  14  17
ENDBRANCH  12  13
ENDBRANCH  11  12
ENDBRANCH   4  11
BRANCH   8  24
HETATM   24  C   UNL     1     -43.933  58.358 -59.017  1.00  0.00    -0.044 A 
HETATM   25  C   UNL     1     -43.042  57.389 -59.522  1.00  0.00     0.008 A 
HETATM   26  C   UNL     1     -41.980  57.754 -60.350  1.00  0.00     0.001 A 
HETATM   27  C   UNL     1     -41.780  59.092 -60.675  1.00  0.00     0.000 A 
HETATM   28  C   UNL     1     -42.643  60.065 -60.174  1.00  0.00     0.001 A 
HETATM   29  C   UNL     1     -43.712  59.704 -59.350  1.00  0.00     0.008 A 
ENDBRANCH   8  24
BRANCH   9  30
HETATM   30  C   UNL     1     -43.801  57.631 -55.768  1.00  0.00     0.255 C 
HETATM   31  N   UNL     1     -44.302  56.505 -55.150  1.00  0.00    -0.321 N 
HETATM   32  H   UNL     1     -45.295  56.405 -55.019  1.00  0.00     0.169 HD
HETATM   33  O   UNL     1     -42.673  58.080 -55.571  1.00  0.00    -0.268 OA
BRANCH  31  34
HETATM   34  C   UNL     1     -43.501  55.545 -54.486  1.00  0.00     0.068 A 
HETATM   35  C   UNL     1     -43.279  55.554 -53.094  1.00  0.00     0.095 A 
HETATM   36  C   UNL     1     -42.502  54.536 -52.524  1.00  0.00     0.039 A 
HETATM   37  C   UNL     1     -41.925  53.549 -53.327  1.00  0.00     0.003 A 
HETATM   38  C   UNL     1     -42.094  53.583 -54.708  1.00  0.00     0.002 A 
HETATM   39  C   UNL     1     -42.866  54.588 -55.289  1.00  0.00     0.032 A 
BRANCH  35  40
HETATM   40  O   UNL     1     -43.748  56.639 -52.398  1.00  0.00    -0.354 OA
HETATM   41  C   UNL     1     -42.810  57.617 -51.980  1.00  0.00     0.210 C 
ENDBRANCH  35  40
ENDBRANCH  31  34
ENDBRANCH   9  30
TORSDOF 8
ENDMDL
MODEL 10
REMARK VINA RESULT:      -6.7     17.471     21.220
REMARK  8 active torsions:
REMARK  status: ('A' for Active; 'I' for Inactive)
REMARK    1  A    between atoms: C_4  and  S_5 
REMARK    2  A    between atoms: S_5  and  C_6 
REMARK    3  A    between atoms: C_6  and  C_7 
REMARK       I    between atoms: C_7  and  N_8 
REMARK    4  A    between atoms: N_8  and  C_9 
REMARK    5  A    between atoms: C_20  and  C_21 
REMARK    6  A    between atoms: C_27  and  C_28 
REMARK       I    between atoms: C_28  and  N_29 
REMARK    7  A    between atoms: N_29  and  C_30 
REMARK    8  A    between atoms: C_31  and  O_32 
ROOT
HETATM    1  C   UNL     1     -34.622  42.642 -51.608  1.00  0.00     0.069 C 
HETATM    2  C   UNL     1     -34.782  41.522 -52.609  1.00  0.00     0.019 C 
HETATM    3  N   UNL     1     -35.683  41.763 -53.634  1.00  0.00    -0.353 N 
HETATM    4  C   UNL     1     -36.131  40.820 -54.537  1.00  0.00     0.087 C 
HETATM    5  C   UNL     1     -35.534  39.605 -54.554  1.00  0.00     0.055 C 
HETATM    6  C   UNL     1     -36.073  38.464 -55.402  1.00  0.00     0.019 C 
HETATM    7  N   UNL     1     -36.520  37.517 -56.105  1.00  0.00    -0.096 N 
HETATM    8  C   UNL     1     -34.275  39.351 -53.728  1.00  0.00     0.104 C 
HETATM    9  C   UNL     1     -34.086  40.356 -52.590  1.00  0.00     0.046 C 
HETATM   10  H   UNL     1     -36.189  42.645 -53.628  1.00  0.00     0.166 HD
ENDROOT
BRANCH   4  11
HETATM   11  S   UNL     1     -37.324  41.278 -55.729  1.00  0.00    -0.102 SA
BRANCH  11  12
HETATM   12  C   UNL     1     -36.310  41.870 -57.121  1.00  0.00     0.184 C 
BRANCH  12  13
HETATM   13  C   UNL     1     -36.905  41.502 -58.488  1.00  0.00     0.231 C 
HETATM   14  N   UNL     1     -37.061  40.148 -58.715  1.00  0.00    -0.327 N 
HETATM   15  H   UNL     1     -36.766  39.552 -57.947  1.00  0.00     0.169 HD
HETATM   16  O   UNL     1     -37.168  42.394 -59.293  1.00  0.00    -0.272 OA
BRANCH  14  17
HETATM   17  C   UNL     1     -37.603  39.493 -59.835  1.00  0.00     0.034 A 
HETATM   18  C   UNL     1     -37.012  39.482 -61.099  1.00  0.00     0.031 A 
HETATM   19  C   UNL     1     -37.631  38.816 -62.164  1.00  0.00     0.026 A 
HETATM   20  C   UNL     1     -38.840  38.154 -61.964  1.00  0.00     0.034 A 
HETATM   21 CL   UNL     1     -39.597  37.334 -63.272  1.00  0.00    -0.084 Cl
HETATM   22  C   UNL     1     -39.440  38.154 -60.708  1.00  0.00     0.026 A 
HETATM   23  C   UNL     1     -38.823  38.825 -59.648  1.00  0.00     0.031 A 
ENDBRANCH  14  17
ENDBRANCH  12  13
ENDBRANCH  11  12
ENDBRANCH   4  11
BRANCH   8  24
HETATM   24  C   UNL     1     -33.074  39.328 -54.689  1.00  0.00    -0.044 A 
HETATM   25  C   UNL     1     -32.000  38.436 -54.497  1.00  0.00     0.008 A 
HETATM   26  C   UNL     1     -30.887  38.463 -55.338  1.00  0.00     0.001 A 
HETATM   27  C   UNL     1     -30.822  39.388 -56.376  1.00  0.00     0.000 A 
HETATM   28  C   UNL     1     -31.869  40.286 -56.573  1.00  0.00     0.001 A 
HETATM   29  C   UNL     1     -32.989  40.260 -55.737  1.00  0.00     0.008 A 
ENDBRANCH   8  24
BRANCH   9  30
HETATM   30  C   UNL     1     -33.175  40.041 -51.436  1.00  0.00     0.255 C 
HETATM   31  N   UNL     1     -33.797  39.739 -50.242  1.00  0.00    -0.321 N 
HETATM   32  H   UNL     1     -34.750  40.025 -50.087  1.00  0.00     0.169 HD
HETATM   33  O   UNL     1     -31.960  40.175 -51.563  1.00  0.00    -0.268 OA
BRANCH  31  34
HETATM   34  C   UNL     1     -33.125  39.223 -49.109  1.00  0.00     0.068 A 
HETATM   35  C   UNL     1     -33.593  38.115 -48.372  1.00  0.00     0.095 A 
HETATM   36  C   UNL     1     -32.835  37.653 -47.288  1.00  0.00     0.039 A 
HETATM   37  C   UNL     1     -31.654  38.304 -46.918  1.00  0.00     0.003 A 
HETATM   38  C   UNL     1     -31.233  39.436 -47.608  1.00  0.00     0.002 A 
HETATM   39  C   UNL     1     -31.975  39.905 -48.691  1.00  0.00     0.032 A 
BRANCH  35  40
HETATM   40  O   UNL     1     -34.833  37.630 -48.700  1.00  0.00    -0.354 OA
HETATM   41  C   UNL     1     -35.949  38.112 -47.970  1.00  0.00     0.210 C 
ENDBRANCH  35  40
ENDBRANCH  31  34
ENDBRANCH   9  30
TORSDOF 8
ENDMDL
