MODEL 1
REMARK VINA RESULT:      -8.1      0.000      0.000
REMARK  4 active torsions:
REMARK  status: ('A' for Active; 'I' for Inactive)
REMARK    1  A    between atoms: C_2  and  N_3 
REMARK    2  A    between atoms: N_7  and  C_8 
REMARK    3  A    between atoms: C_11  and  N_12 
REMARK    4  A    between atoms: C_13  and  C_14 
ROOT
HETATM    1  C   UNL     1     -43.948  57.494 -56.665  1.00  0.00     0.030 A 
HETATM    2  C   UNL     1     -43.038  56.528 -57.114  1.00  0.00     0.031 A 
HETATM    3  C   UNL     1     -42.488  55.578 -56.241  1.00  0.00     0.034 A 
HETATM    4  C   UNL     1     -42.833  55.553 -54.892  1.00  0.00     0.056 A 
HETATM    5  C   UNL     1     -43.752  56.495 -54.431  1.00  0.00     0.034 A 
HETATM    6  C   UNL     1     -44.287  57.455 -55.302  1.00  0.00     0.031 A 
ENDROOT
BRANCH   4   7
HETATM    7  N   UNL     1     -42.325  54.517 -54.099  1.00  0.00    -0.260 NA
HETATM    8  C   UNL     1     -41.146  54.639 -53.582  1.00  0.00     0.131 C 
BRANCH   8   9
HETATM    9  C   UNL     1     -40.634  53.585 -52.728  1.00  0.00     0.009 A 
HETATM   10  C   UNL     1     -40.329  52.235 -53.098  1.00  0.00     0.004 A 
HETATM   11  C   UNL     1     -39.847  51.590 -51.957  1.00  0.00     0.043 A 
HETATM   12  C   UNL     1     -40.404  51.499 -54.300  1.00  0.00     0.014 A 
HETATM   13  C   UNL     1     -39.439  50.250 -51.957  1.00  0.00     0.030 A 
HETATM   14  N   UNL     1     -39.864  52.507 -50.933  1.00  0.00    -0.364 N 
HETATM   15  C   UNL     1     -39.521  49.547 -53.161  1.00  0.00     0.002 A 
HETATM   16  C   UNL     1     -39.997  50.160 -54.317  1.00  0.00     0.001 A 
HETATM   17  H   UNL     1     -39.564  52.316 -49.987  1.00  0.00     0.165 HD
HETATM   18  C   UNL     1     -40.331  53.710 -51.385  1.00  0.00     0.102 A 
ENDBRANCH   8   9
ENDBRANCH   4   7
BRANCH   1  19
HETATM   19  N   UNL     1     -44.552  58.423 -57.505  1.00  0.00    -0.378 N 
HETATM   20  C   UNL     1     -45.957  58.812 -57.317  1.00  0.00     0.150 C 
HETATM   21  C   UNL     1     -46.884  58.077 -58.305  1.00  0.00     0.254 C 
HETATM   22  N   UNL     1     -46.397  58.275 -59.746  1.00  0.00    -0.068 N 
HETATM   23  H   UNL     1     -46.388  59.287 -59.927  1.00  0.00     0.280 HD
HETATM   24  C   UNL     1     -44.941  57.799 -59.875  1.00  0.00     0.254 C 
HETATM   25  C   UNL     1     -44.032  58.551 -58.878  1.00  0.00     0.150 C 
BRANCH  22  26
HETATM   26  C   UNL     1     -47.283  57.621 -60.777  1.00  0.00     0.230 C 
HETATM   27  C   UNL     1     -46.926  56.156 -60.942  1.00  0.00     0.034 C 
ENDBRANCH  22  26
ENDBRANCH   1  19
TORSDOF 4
ENDMDL
MODEL 2
REMARK VINA RESULT:      -8.0      1.311      2.191
REMARK  4 active torsions:
REMARK  status: ('A' for Active; 'I' for Inactive)
REMARK    1  A    between atoms: C_2  and  N_3 
REMARK    2  A    between atoms: N_7  and  C_8 
REMARK    3  A    between atoms: C_11  and  N_12 
REMARK    4  A    between atoms: C_13  and  C_14 
ROOT
HETATM    1  C   UNL     1     -43.938  57.351 -56.918  1.00  0.00     0.030 A 
HETATM    2  C   UNL     1     -43.113  56.292 -57.318  1.00  0.00     0.031 A 
HETATM    3  C   UNL     1     -42.570  55.394 -56.386  1.00  0.00     0.034 A 
HETATM    4  C   UNL     1     -42.838  55.517 -55.025  1.00  0.00     0.056 A 
HETATM    5  C   UNL     1     -43.671  56.555 -54.611  1.00  0.00     0.034 A 
HETATM    6  C   UNL     1     -44.200  57.461 -55.542  1.00  0.00     0.031 A 
ENDROOT
BRANCH   4   7
HETATM    7  N   UNL     1     -42.345  54.531 -54.163  1.00  0.00    -0.260 NA
HETATM    8  C   UNL     1     -41.104  54.569 -53.803  1.00  0.00     0.131 C 
BRANCH   8   9
HETATM    9  C   UNL     1     -40.602  53.572 -52.879  1.00  0.00     0.009 A 
HETATM   10  C   UNL     1     -40.304  52.198 -53.158  1.00  0.00     0.004 A 
HETATM   11  C   UNL     1     -39.830  51.627 -51.974  1.00  0.00     0.043 A 
HETATM   12  C   UNL     1     -40.378  51.384 -54.309  1.00  0.00     0.014 A 
HETATM   13  C   UNL     1     -39.431  50.288 -51.884  1.00  0.00     0.030 A 
HETATM   14  N   UNL     1     -39.846  52.610 -51.014  1.00  0.00    -0.364 N 
HETATM   15  C   UNL     1     -39.512  49.507 -53.039  1.00  0.00     0.002 A 
HETATM   16  C   UNL     1     -39.979  50.045 -54.235  1.00  0.00     0.001 A 
HETATM   17  H   UNL     1     -39.551  52.480 -50.055  1.00  0.00     0.165 HD
HETATM   18  C   UNL     1     -40.304  53.783 -51.546  1.00  0.00     0.102 A 
ENDBRANCH   8   9
ENDBRANCH   4   7
BRANCH   1  19
HETATM   19  N   UNL     1     -44.535  58.234 -57.811  1.00  0.00    -0.378 N 
HETATM   20  C   UNL     1     -44.970  57.785 -59.142  1.00  0.00     0.150 C 
HETATM   21  C   UNL     1     -43.950  58.173 -60.231  1.00  0.00     0.254 C 
HETATM   22  N   UNL     1     -43.652  59.676 -60.175  1.00  0.00    -0.068 N 
HETATM   23  H   UNL     1     -44.545  60.169 -60.310  1.00  0.00     0.280 HD
HETATM   24  C   UNL     1     -43.154  60.058 -58.772  1.00  0.00     0.254 C 
HETATM   25  C   UNL     1     -44.193  59.663 -57.700  1.00  0.00     0.150 C 
BRANCH  22  26
HETATM   26  C   UNL     1     -42.694  60.140 -61.244  1.00  0.00     0.230 C 
HETATM   27  C   UNL     1     -41.680  61.114 -60.674  1.00  0.00     0.034 C 
ENDBRANCH  22  26
ENDBRANCH   1  19
TORSDOF 4
ENDMDL
MODEL 3
REMARK VINA RESULT:      -7.6      1.950      3.285
REMARK  4 active torsions:
REMARK  status: ('A' for Active; 'I' for Inactive)
REMARK    1  A    between atoms: C_2  and  N_3 
REMARK    2  A    between atoms: N_7  and  C_8 
REMARK    3  A    between atoms: C_11  and  N_12 
REMARK    4  A    between atoms: C_13  and  C_14 
ROOT
HETATM    1  C   UNL     1     -43.185  57.621 -57.085  1.00  0.00     0.030 A 
HETATM    2  C   UNL     1     -42.951  57.899 -55.732  1.00  0.00     0.031 A 
HETATM    3  C   UNL     1     -42.657  56.878 -54.815  1.00  0.00     0.034 A 
HETATM    4  C   UNL     1     -42.576  55.547 -55.218  1.00  0.00     0.056 A 
HETATM    5  C   UNL     1     -42.787  55.255 -56.565  1.00  0.00     0.034 A 
HETATM    6  C   UNL     1     -43.098  56.275 -57.476  1.00  0.00     0.031 A 
ENDROOT
BRANCH   4   7
HETATM    7  N   UNL     1     -42.180  54.593 -54.273  1.00  0.00    -0.260 NA
HETATM    8  C   UNL     1     -40.925  54.466 -53.992  1.00  0.00     0.131 C 
BRANCH   8   9
HETATM    9  C   UNL     1     -40.518  53.507 -52.985  1.00  0.00     0.009 A 
HETATM   10  C   UNL     1     -40.223  52.117 -53.173  1.00  0.00     0.004 A 
HETATM   11  C   UNL     1     -39.857  51.597 -51.930  1.00  0.00     0.043 A 
HETATM   12  C   UNL     1     -40.218  51.250 -54.288  1.00  0.00     0.014 A 
HETATM   13  C   UNL     1     -39.490  50.258 -51.744  1.00  0.00     0.030 A 
HETATM   14  N   UNL     1     -39.933  52.625 -51.020  1.00  0.00    -0.364 N 
HETATM   15  C   UNL     1     -39.492  49.424 -52.865  1.00  0.00     0.002 A 
HETATM   16  C   UNL     1     -39.850  49.910 -54.119  1.00  0.00     0.001 A 
HETATM   17  H   UNL     1     -39.720  52.537 -50.036  1.00  0.00     0.165 HD
HETATM   18  C   UNL     1     -40.325  53.777 -51.643  1.00  0.00     0.102 A 
ENDBRANCH   8   9
ENDBRANCH   4   7
BRANCH   1  19
HETATM   19  N   UNL     1     -43.433  58.606 -58.034  1.00  0.00    -0.378 N 
HETATM   20  C   UNL     1     -42.422  58.958 -59.042  1.00  0.00     0.150 C 
HETATM   21  C   UNL     1     -41.661  60.241 -58.655  1.00  0.00     0.254 C 
HETATM   22  N   UNL     1     -42.645  61.383 -58.371  1.00  0.00    -0.068 N 
HETATM   23  H   UNL     1     -43.201  61.524 -59.224  1.00  0.00     0.280 HD
HETATM   24  C   UNL     1     -43.635  60.959 -57.274  1.00  0.00     0.254 C 
HETATM   25  C   UNL     1     -44.386  59.675 -57.686  1.00  0.00     0.150 C 
BRANCH  22  26
HETATM   26  C   UNL     1     -41.970  62.689 -58.029  1.00  0.00     0.230 C 
HETATM   27  C   UNL     1     -40.691  62.860 -58.827  1.00  0.00     0.034 C 
ENDBRANCH  22  26
ENDBRANCH   1  19
TORSDOF 4
ENDMDL
MODEL 4
REMARK VINA RESULT:      -7.4      5.001      6.321
REMARK  4 active torsions:
REMARK  status: ('A' for Active; 'I' for Inactive)
REMARK    1  A    between atoms: C_2  and  N_3 
REMARK    2  A    between atoms: N_7  and  C_8 
REMARK    3  A    between atoms: C_11  and  N_12 
REMARK    4  A    between atoms: C_13  and  C_14 
ROOT
HETATM    1  C   UNL     1     -43.180  58.762 -51.597  1.00  0.00     0.030 A 
HETATM    2  C   UNL     1     -44.093  57.721 -51.808  1.00  0.00     0.031 A 
HETATM    3  C   UNL     1     -43.684  56.379 -51.818  1.00  0.00     0.034 A 
HETATM    4  C   UNL     1     -42.352  56.029 -51.608  1.00  0.00     0.056 A 
HETATM    5  C   UNL     1     -41.433  57.052 -51.378  1.00  0.00     0.034 A 
HETATM    6  C   UNL     1     -41.841  58.394 -51.386  1.00  0.00     0.031 A 
ENDROOT
BRANCH   4   7
HETATM    7  N   UNL     1     -42.030  54.669 -51.532  1.00  0.00    -0.260 NA
HETATM    8  C   UNL     1     -40.789  54.317 -51.453  1.00  0.00     0.131 C 
BRANCH   8   9
HETATM    9  C   UNL     1     -40.456  52.912 -51.334  1.00  0.00     0.009 A 
HETATM   10  C   UNL     1     -40.187  51.987 -52.395  1.00  0.00     0.004 A 
HETATM   11  C   UNL     1     -39.897  50.753 -51.808  1.00  0.00     0.043 A 
HETATM   12  C   UNL     1     -40.149  52.082 -53.803  1.00  0.00     0.014 A 
HETATM   13  C   UNL     1     -39.573  49.614 -52.555  1.00  0.00     0.030 A 
HETATM   14  N   UNL     1     -39.991  50.918 -50.447  1.00  0.00    -0.364 N 
HETATM   15  C   UNL     1     -39.541  49.738 -53.945  1.00  0.00     0.002 A 
HETATM   16  C   UNL     1     -39.824  50.953 -54.563  1.00  0.00     0.001 A 
HETATM   17  H   UNL     1     -39.829  50.187 -49.767  1.00  0.00     0.165 HD
HETATM   18  C   UNL     1     -40.323  52.211 -50.150  1.00  0.00     0.102 A 
ENDBRANCH   8   9
ENDBRANCH   4   7
BRANCH   1  19
HETATM   19  N   UNL     1     -43.551  60.101 -51.533  1.00  0.00    -0.378 N 
HETATM   20  C   UNL     1     -42.934  61.011 -50.556  1.00  0.00     0.150 C 
HETATM   21  C   UNL     1     -43.846  61.228 -49.332  1.00  0.00     0.254 C 
HETATM   22  N   UNL     1     -45.241  61.685 -49.777  1.00  0.00    -0.068 N 
HETATM   23  H   UNL     1     -45.120  62.556 -50.310  1.00  0.00     0.280 HD
HETATM   24  C   UNL     1     -45.839  60.660 -50.754  1.00  0.00     0.254 C 
HETATM   25  C   UNL     1     -44.911  60.462 -51.972  1.00  0.00     0.150 C 
BRANCH  22  26
HETATM   26  C   UNL     1     -46.179  61.963 -48.628  1.00  0.00     0.230 C 
HETATM   27  C   UNL     1     -45.714  63.168 -47.833  1.00  0.00     0.034 C 
ENDBRANCH  22  26
ENDBRANCH   1  19
TORSDOF 4
ENDMDL
MODEL 5
REMARK VINA RESULT:      -7.4     15.343     18.744
REMARK  4 active torsions:
REMARK  status: ('A' for Active; 'I' for Inactive)
REMARK    1  A    between atoms: C_2  and  N_3 
REMARK    2  A    between atoms: N_7  and  C_8 
REMARK    3  A    between atoms: C_11  and  N_12 
REMARK    4  A    between atoms: C_13  and  C_14 
ROOT
HETATM    1  C   UNL     1     -35.472  41.159 -57.405  1.00  0.00     0.030 A 
HETATM    2  C   UNL     1     -35.262  39.841 -57.832  1.00  0.00     0.031 A 
HETATM    3  C   UNL     1     -35.941  39.313 -58.940  1.00  0.00     0.034 A 
HETATM    4  C   UNL     1     -36.846  40.084 -59.666  1.00  0.00     0.056 A 
HETATM    5  C   UNL     1     -37.053  41.404 -59.266  1.00  0.00     0.034 A 
HETATM    6  C   UNL     1     -36.386  41.924 -58.148  1.00  0.00     0.031 A 
ENDROOT
BRANCH   4   7
HETATM    7  N   UNL     1     -37.413  39.527 -60.818  1.00  0.00    -0.260 NA
HETATM    8  C   UNL     1     -38.415  38.720 -60.702  1.00  0.00     0.131 C 
BRANCH   8   9
HETATM    9  C   UNL     1     -39.028  38.173 -61.896  1.00  0.00     0.009 A 
HETATM   10  C   UNL     1     -40.414  37.875 -62.105  1.00  0.00     0.004 A 
HETATM   11  C   UNL     1     -40.542  37.385 -63.407  1.00  0.00     0.043 A 
HETATM   12  C   UNL     1     -41.579  37.987 -61.317  1.00  0.00     0.014 A 
HETATM   13  C   UNL     1     -41.771  37.001 -63.957  1.00  0.00     0.030 A 
HETATM   14  N   UNL     1     -39.286  37.378 -63.965  1.00  0.00    -0.364 N 
HETATM   15  C   UNL     1     -42.908  37.125 -63.155  1.00  0.00     0.002 A 
HETATM   16  C   UNL     1     -42.816  37.610 -61.853  1.00  0.00     0.001 A 
HETATM   17  H   UNL     1     -39.077  37.074 -64.906  1.00  0.00     0.165 HD
HETATM   18  C   UNL     1     -38.369  37.853 -63.068  1.00  0.00     0.102 A 
ENDBRANCH   8   9
ENDBRANCH   4   7
BRANCH   1  19
HETATM   19  N   UNL     1     -34.786  41.736 -56.342  1.00  0.00    -0.378 N 
HETATM   20  C   UNL     1     -33.597  41.089 -55.768  1.00  0.00     0.150 C 
HETATM   21  C   UNL     1     -33.938  40.329 -54.470  1.00  0.00     0.254 C 
HETATM   22  N   UNL     1     -34.652  41.257 -53.479  1.00  0.00    -0.068 N 
HETATM   23  H   UNL     1     -34.020  42.046 -53.292  1.00  0.00     0.280 HD
HETATM   24  C   UNL     1     -35.909  41.853 -54.133  1.00  0.00     0.254 C 
HETATM   25  C   UNL     1     -35.541  42.610 -55.427  1.00  0.00     0.150 C 
BRANCH  22  26
HETATM   26  C   UNL     1     -34.978  40.594 -52.162  1.00  0.00     0.230 C 
HETATM   27  C   UNL     1     -34.588  41.485 -50.999  1.00  0.00     0.034 C 
ENDBRANCH  22  26
ENDBRANCH   1  19
TORSDOF 4
ENDMDL
MODEL 6
REMARK VINA RESULT:      -7.2      5.386      7.158
REMARK  4 active torsions:
REMARK  status: ('A' for Active; 'I' for Inactive)
REMARK    1  A    between atoms: C_2  and  N_3 
REMARK    2  A    between atoms: N_7  and  C_8 
REMARK    3  A    between atoms: C_11  and  N_12 
REMARK    4  A    between atoms: C_13  and  C_14 
ROOT
HETATM    1  C   UNL     1     -43.370  60.457 -51.054  1.00  0.00     0.030 A 
HETATM    2  C   UNL     1     -42.052  60.289 -50.610  1.00  0.00     0.031 A 
HETATM    3  C   UNL     1     -41.430  59.031 -50.624  1.00  0.00     0.034 A 
HETATM    4  C   UNL     1     -42.097  57.901 -51.090  1.00  0.00     0.056 A 
HETATM    5  C   UNL     1     -43.403  58.055 -51.553  1.00  0.00     0.034 A 
HETATM    6  C   UNL     1     -44.030  59.309 -51.522  1.00  0.00     0.031 A 
ENDROOT
BRANCH   4   7
HETATM    7  N   UNL     1     -41.384  56.699 -51.170  1.00  0.00    -0.260 NA
HETATM    8  C   UNL     1     -41.945  55.605 -50.771  1.00  0.00     0.131 C 
BRANCH   8   9
HETATM    9  C   UNL     1     -41.223  54.354 -50.889  1.00  0.00     0.009 A 
HETATM   10  C   UNL     1     -40.860  53.668 -52.093  1.00  0.00     0.004 A 
HETATM   11  C   UNL     1     -40.160  52.517 -51.722  1.00  0.00     0.043 A 
HETATM   12  C   UNL     1     -41.046  53.921 -53.469  1.00  0.00     0.014 A 
HETATM   13  C   UNL     1     -39.642  51.610 -52.654  1.00  0.00     0.030 A 
HETATM   14  N   UNL     1     -40.106  52.500 -50.349  1.00  0.00    -0.364 N 
HETATM   15  C   UNL     1     -39.839  51.887 -54.008  1.00  0.00     0.002 A 
HETATM   16  C   UNL     1     -40.531  53.025 -54.413  1.00  0.00     0.001 A 
HETATM   17  H   UNL     1     -39.655  51.779 -49.801  1.00  0.00     0.165 HD
HETATM   18  C   UNL     1     -40.738  53.599 -49.837  1.00  0.00     0.102 A 
ENDBRANCH   8   9
ENDBRANCH   4   7
BRANCH   1  19
HETATM   19  N   UNL     1     -44.008  61.692 -51.100  1.00  0.00    -0.378 N 
HETATM   20  C   UNL     1     -43.388  62.887 -50.511  1.00  0.00     0.150 C 
HETATM   21  C   UNL     1     -43.981  63.206 -49.124  1.00  0.00     0.254 C 
HETATM   22  N   UNL     1     -45.510  63.304 -49.204  1.00  0.00    -0.068 N 
HETATM   23  H   UNL     1     -45.732  64.044 -49.882  1.00  0.00     0.280 HD
HETATM   24  C   UNL     1     -46.087  62.001 -49.780  1.00  0.00     0.254 C 
HETATM   25  C   UNL     1     -45.481  61.705 -51.169  1.00  0.00     0.150 C 
BRANCH  22  26
HETATM   26  C   UNL     1     -46.160  63.660 -47.890  1.00  0.00     0.230 C 
HETATM   27  C   UNL     1     -45.263  63.284 -46.725  1.00  0.00     0.034 C 
ENDBRANCH  22  26
ENDBRANCH   1  19
TORSDOF 4
ENDMDL
MODEL 7
REMARK VINA RESULT:      -7.0      1.934      2.350
REMARK  4 active torsions:
REMARK  status: ('A' for Active; 'I' for Inactive)
REMARK    1  A    between atoms: C_2  and  N_3 
REMARK    2  A    between atoms: N_7  and  C_8 
REMARK    3  A    between atoms: C_11  and  N_12 
REMARK    4  A    between atoms: C_13  and  C_14 
ROOT
HETATM    1  C   UNL     1     -43.133  58.733 -54.429  1.00  0.00     0.030 A 
HETATM    2  C   UNL     1     -41.816  58.265 -54.340  1.00  0.00     0.031 A 
HETATM    3  C   UNL     1     -41.514  57.037 -53.732  1.00  0.00     0.034 A 
HETATM    4  C   UNL     1     -42.517  56.229 -53.201  1.00  0.00     0.056 A 
HETATM    5  C   UNL     1     -43.835  56.671 -53.297  1.00  0.00     0.034 A 
HETATM    6  C   UNL     1     -44.133  57.907 -53.890  1.00  0.00     0.031 A 
ENDROOT
BRANCH   4   7
HETATM    7  N   UNL     1     -42.157  54.973 -52.699  1.00  0.00    -0.260 NA
HETATM    8  C   UNL     1     -40.905  54.679 -52.573  1.00  0.00     0.131 C 
BRANCH   8   9
HETATM    9  C   UNL     1     -40.530  53.394 -52.017  1.00  0.00     0.009 A 
HETATM   10  C   UNL     1     -40.248  52.184 -52.730  1.00  0.00     0.004 A 
HETATM   11  C   UNL     1     -39.915  51.211 -51.785  1.00  0.00     0.043 A 
HETATM   12  C   UNL     1     -40.231  51.823 -54.095  1.00  0.00     0.014 A 
HETATM   13  C   UNL     1     -39.569  49.900 -52.134  1.00  0.00     0.030 A 
HETATM   14  N   UNL     1     -39.997  51.802 -50.547  1.00  0.00    -0.364 N 
HETATM   15  C   UNL     1     -39.557  49.572 -53.492  1.00  0.00     0.002 A 
HETATM   16  C   UNL     1     -39.883  50.517 -54.460  1.00  0.00     0.001 A 
HETATM   17  H   UNL     1     -39.806  51.331 -49.673  1.00  0.00     0.165 HD
HETATM   18  C   UNL     1     -40.362  53.114 -50.674  1.00  0.00     0.102 A 
ENDBRANCH   8   9
ENDBRANCH   4   7
BRANCH   1  19
HETATM   19  N   UNL     1     -43.480  59.920 -55.063  1.00  0.00    -0.378 N 
HETATM   20  C   UNL     1     -44.887  60.330 -55.184  1.00  0.00     0.150 C 
HETATM   21  C   UNL     1     -45.450  60.013 -56.584  1.00  0.00     0.254 C 
HETATM   22  N   UNL     1     -44.555  60.619 -57.672  1.00  0.00    -0.068 N 
HETATM   23  H   UNL     1     -44.520  61.634 -57.507  1.00  0.00     0.280 HD
HETATM   24  C   UNL     1     -43.115  60.105 -57.511  1.00  0.00     0.254 C 
HETATM   25  C   UNL     1     -42.573  60.437 -56.104  1.00  0.00     0.150 C 
BRANCH  22  26
HETATM   26  C   UNL     1     -45.069  60.389 -59.072  1.00  0.00     0.230 C 
HETATM   27  C   UNL     1     -46.054  59.236 -59.101  1.00  0.00     0.034 C 
ENDBRANCH  22  26
ENDBRANCH   1  19
TORSDOF 4
ENDMDL
MODEL 8
REMARK VINA RESULT:      -7.0      1.693      2.354
REMARK  4 active torsions:
REMARK  status: ('A' for Active; 'I' for Inactive)
REMARK    1  A    between atoms: C_2  and  N_3 
REMARK    2  A    between atoms: N_7  and  C_8 
REMARK    3  A    between atoms: C_11  and  N_12 
REMARK    4  A    between atoms: C_13  and  C_14 
ROOT
HETATM    1  C   UNL     1     -42.712  57.457 -56.405  1.00  0.00     0.030 A 
HETATM    2  C   UNL     1     -43.057  56.227 -56.981  1.00  0.00     0.031 A 
HETATM    3  C   UNL     1     -42.648  55.012 -56.411  1.00  0.00     0.034 A 
HETATM    4  C   UNL     1     -41.889  54.981 -55.243  1.00  0.00     0.056 A 
HETATM    5  C   UNL     1     -41.552  56.196 -54.648  1.00  0.00     0.034 A 
HETATM    6  C   UNL     1     -41.948  57.410 -55.227  1.00  0.00     0.031 A 
ENDROOT
BRANCH   4   7
HETATM    7  N   UNL     1     -41.601  53.735 -54.676  1.00  0.00    -0.260 NA
HETATM    8  C   UNL     1     -40.374  53.329 -54.632  1.00  0.00     0.131 C 
BRANCH   8   9
HETATM    9  C   UNL     1     -40.069  52.057 -54.009  1.00  0.00     0.009 A 
HETATM   10  C   UNL     1     -40.093  51.743 -52.612  1.00  0.00     0.004 A 
HETATM   11  C   UNL     1     -39.747  50.396 -52.481  1.00  0.00     0.043 A 
HETATM   12  C   UNL     1     -40.388  52.473 -51.440  1.00  0.00     0.014 A 
HETATM   13  C   UNL     1     -39.681  49.744 -51.244  1.00  0.00     0.030 A 
HETATM   14  N   UNL     1     -39.517  49.911 -53.747  1.00  0.00    -0.364 N 
HETATM   15  C   UNL     1     -39.980  50.490 -50.101  1.00  0.00     0.002 A 
HETATM   16  C   UNL     1     -40.329  51.835 -50.195  1.00  0.00     0.001 A 
HETATM   17  H   UNL     1     -39.251  48.958 -53.957  1.00  0.00     0.165 HD
HETATM   18  C   UNL     1     -39.711  50.898 -54.673  1.00  0.00     0.102 A 
ENDBRANCH   8   9
ENDBRANCH   4   7
BRANCH   1  19
HETATM   19  N   UNL     1     -43.135  58.682 -56.910  1.00  0.00    -0.378 N 
HETATM   20  C   UNL     1     -44.477  59.200 -56.611  1.00  0.00     0.150 C 
HETATM   21  C   UNL     1     -45.451  58.959 -57.781  1.00  0.00     0.254 C 
HETATM   22  N   UNL     1     -44.870  59.520 -59.085  1.00  0.00    -0.068 N 
HETATM   23  H   UNL     1     -44.707  60.525 -58.939  1.00  0.00     0.280 HD
HETATM   24  C   UNL     1     -43.493  58.893 -59.356  1.00  0.00     0.254 C 
HETATM   25  C   UNL     1     -42.536  59.151 -58.172  1.00  0.00     0.150 C 
BRANCH  22  26
HETATM   26  C   UNL     1     -45.790  59.361 -60.271  1.00  0.00     0.230 C 
HETATM   27  C   UNL     1     -47.205  59.772 -59.914  1.00  0.00     0.034 C 
ENDBRANCH  22  26
ENDBRANCH   1  19
TORSDOF 4
ENDMDL
MODEL 9
REMARK VINA RESULT:      -7.0      3.802      4.229
REMARK  4 active torsions:
REMARK  status: ('A' for Active; 'I' for Inactive)
REMARK    1  A    between atoms: C_2  and  N_3 
REMARK    2  A    between atoms: N_7  and  C_8 
REMARK    3  A    between atoms: C_11  and  N_12 
REMARK    4  A    between atoms: C_13  and  C_14 
ROOT
HETATM    1  C   UNL     1     -42.492  58.940 -52.524  1.00  0.00     0.030 A 
HETATM    2  C   UNL     1     -41.689  58.269 -53.455  1.00  0.00     0.031 A 
HETATM    3  C   UNL     1     -41.365  56.912 -53.299  1.00  0.00     0.034 A 
HETATM    4  C   UNL     1     -41.839  56.177 -52.215  1.00  0.00     0.056 A 
HETATM    5  C   UNL     1     -42.655  56.826 -51.289  1.00  0.00     0.034 A 
HETATM    6  C   UNL     1     -42.964  58.185 -51.437  1.00  0.00     0.031 A 
ENDROOT
BRANCH   4   7
HETATM    7  N   UNL     1     -41.560  54.806 -52.174  1.00  0.00    -0.260 NA
HETATM    8  C   UNL     1     -40.627  54.375 -51.391  1.00  0.00     0.131 C 
BRANCH   8   9
HETATM    9  C   UNL     1     -40.363  52.952 -51.317  1.00  0.00     0.009 A 
HETATM   10  C   UNL     1     -40.117  52.054 -52.406  1.00  0.00     0.004 A 
HETATM   11  C   UNL     1     -39.898  50.787 -51.860  1.00  0.00     0.043 A 
HETATM   12  C   UNL     1     -40.046  52.198 -53.809  1.00  0.00     0.014 A 
HETATM   13  C   UNL     1     -39.613  49.661 -52.642  1.00  0.00     0.030 A 
HETATM   14  N   UNL     1     -40.012  50.907 -50.496  1.00  0.00    -0.364 N 
HETATM   15  C   UNL     1     -39.547  49.833 -54.027  1.00  0.00     0.002 A 
HETATM   16  C   UNL     1     -39.760  51.082 -54.604  1.00  0.00     0.001 A 
HETATM   17  H   UNL     1     -39.898  50.145 -49.841  1.00  0.00     0.165 HD
HETATM   18  C   UNL     1     -40.288  52.203 -50.158  1.00  0.00     0.102 A 
ENDBRANCH   8   9
ENDBRANCH   4   7
BRANCH   1  19
HETATM   19  N   UNL     1     -42.876  60.269 -52.665  1.00  0.00    -0.378 N 
HETATM   20  C   UNL     1     -44.046  60.799 -51.950  1.00  0.00     0.150 C 
HETATM   21  C   UNL     1     -45.282  60.878 -52.869  1.00  0.00     0.254 C 
HETATM   22  N   UNL     1     -44.952  61.665 -54.144  1.00  0.00    -0.068 N 
HETATM   23  H   UNL     1     -44.646  62.603 -53.852  1.00  0.00     0.280 HD
HETATM   24  C   UNL     1     -43.754  61.022 -54.860  1.00  0.00     0.254 C 
HETATM   25  C   UNL     1     -42.530  60.957 -53.922  1.00  0.00     0.150 C 
BRANCH  22  26
HETATM   26  C   UNL     1     -46.130  61.824 -55.075  1.00  0.00     0.230 C 
HETATM   27  C   UNL     1     -45.721  62.554 -56.340  1.00  0.00     0.034 C 
ENDBRANCH  22  26
ENDBRANCH   1  19
TORSDOF 4
ENDMDL
MODEL 10
REMARK VINA RESULT:      -6.9      4.916      6.912
REMARK  4 active torsions:
REMARK  status: ('A' for Active; 'I' for Inactive)
REMARK    1  A    between atoms: C_2  and  N_3 
REMARK    2  A    between atoms: N_7  and  C_8 
REMARK    3  A    between atoms: C_11  and  N_12 
REMARK    4  A    between atoms: C_13  and  C_14 
ROOT
HETATM    1  C   UNL     1     -43.950  59.978 -51.844  1.00  0.00     0.030 A 
HETATM    2  C   UNL     1     -44.427  58.672 -51.670  1.00  0.00     0.031 A 
HETATM    3  C   UNL     1     -43.640  57.556 -51.992  1.00  0.00     0.034 A 
HETATM    4  C   UNL     1     -42.348  57.704 -52.489  1.00  0.00     0.056 A 
HETATM    5  C   UNL     1     -41.851  58.996 -52.652  1.00  0.00     0.034 A 
HETATM    6  C   UNL     1     -42.645  60.111 -52.345  1.00  0.00     0.031 A 
ENDROOT
BRANCH   4   7
HETATM    7  N   UNL     1     -41.583  56.550 -52.695  1.00  0.00    -0.260 NA
HETATM    8  C   UNL     1     -42.107  55.549 -53.323  1.00  0.00     0.131 C 
BRANCH   8   9
HETATM    9  C   UNL     1     -41.304  54.368 -53.572  1.00  0.00     0.009 A 
HETATM   10  C   UNL     1     -40.826  53.421 -52.609  1.00  0.00     0.004 A 
HETATM   11  C   UNL     1     -40.113  52.443 -53.306  1.00  0.00     0.043 A 
HETATM   12  C   UNL     1     -40.942  53.292 -51.208  1.00  0.00     0.014 A 
HETATM   13  C   UNL     1     -39.511  51.347 -52.675  1.00  0.00     0.030 A 
HETATM   14  N   UNL     1     -40.150  52.784 -54.637  1.00  0.00    -0.364 N 
HETATM   15  C   UNL     1     -39.644  51.243 -51.289  1.00  0.00     0.002 A 
HETATM   16  C   UNL     1     -40.349  52.200 -50.563  1.00  0.00     0.001 A 
HETATM   17  H   UNL     1     -39.716  52.250 -55.378  1.00  0.00     0.165 HD
HETATM   18  C   UNL     1     -40.865  53.936 -54.809  1.00  0.00     0.102 A 
ENDBRANCH   8   9
ENDBRANCH   4   7
BRANCH   1  19
HETATM   19  N   UNL     1     -44.678  61.110 -51.494  1.00  0.00    -0.378 N 
HETATM   20  C   UNL     1     -44.022  62.418 -51.355  1.00  0.00     0.150 C 
HETATM   21  C   UNL     1     -43.752  62.760 -49.876  1.00  0.00     0.254 C 
HETATM   22  N   UNL     1     -45.043  62.648 -49.055  1.00  0.00    -0.068 N 
HETATM   23  H   UNL     1     -45.724  63.299 -49.468  1.00  0.00     0.280 HD
HETATM   24  C   UNL     1     -45.640  61.240 -49.211  1.00  0.00     0.254 C 
HETATM   25  C   UNL     1     -45.904  60.922 -50.698  1.00  0.00     0.150 C 
BRANCH  22  26
HETATM   26  C   UNL     1     -44.866  63.013 -47.602  1.00  0.00     0.230 C 
HETATM   27  C   UNL     1     -45.553  62.002 -46.704  1.00  0.00     0.034 C 
ENDBRANCH  22  26
ENDBRANCH   1  19
TORSDOF 4
ENDMDL
