MODEL 1
REMARK VINA RESULT:      -8.4      0.000      0.000
REMARK  7 active torsions:
REMARK  status: ('A' for Active; 'I' for Inactive)
REMARK    1  A    between atoms: C_2  and  O_3 
REMARK    2  A    between atoms: O_3  and  C_4 
REMARK    3  A    between atoms: C_5  and  N_6 
REMARK    4  A    between atoms: N_9  and  C_11 
REMARK    5  A    between atoms: C_11  and  C_12 
REMARK       I    between atoms: C_12  and  N_13 
REMARK    6  A    between atoms: N_13  and  C_14 
REMARK    7  A    between atoms: C_15  and  C_16 
ROOT
HETATM    1  C   UNL     1     -42.953  55.059 -55.746  1.00  0.00     0.275 C 
HETATM    2  C   UNL     1     -42.783  55.252 -57.247  1.00  0.00     0.050 C 
ENDROOT
BRANCH   1   3
HETATM    3  N   UNL     1     -43.310  56.392 -55.057  1.00  0.00    -0.056 N 
HETATM    4  C   UNL     1     -43.693  56.283 -53.575  1.00  0.00     0.255 C 
HETATM    5  C   UNL     1     -44.232  57.642 -53.080  1.00  0.00     0.150 C 
HETATM    6  N   UNL     1     -43.239  58.706 -53.307  1.00  0.00    -0.375 N 
HETATM    7  C   UNL     1     -42.822  58.852 -54.719  1.00  0.00     0.150 C 
HETATM    8  C   UNL     1     -42.303  57.511 -55.284  1.00  0.00     0.255 C 
HETATM    9  H   UNL     1     -44.193  56.673 -55.514  1.00  0.00     0.281 HD
BRANCH   6  10
HETATM   10  C   UNL     1     -42.341  59.082 -52.295  1.00  0.00     0.064 A 
HETATM   11  C   UNL     1     -42.648  60.087 -51.334  1.00  0.00     0.095 A 
HETATM   12  C   UNL     1     -41.727  60.420 -50.325  1.00  0.00     0.039 A 
HETATM   13  C   UNL     1     -40.497  59.774 -50.239  1.00  0.00     0.003 A 
HETATM   14  C   UNL     1     -40.182  58.780 -51.150  1.00  0.00     0.002 A 
HETATM   15  C   UNL     1     -41.093  58.438 -52.152  1.00  0.00     0.032 A 
BRANCH  11  16
HETATM   16  O   UNL     1     -43.901  60.654 -51.401  1.00  0.00    -0.349 OA
BRANCH  16  17
HETATM   17  C   UNL     1     -44.691  60.672 -50.213  1.00  0.00     0.171 C 
HETATM   18  C   UNL     1     -45.604  59.459 -50.241  1.00  0.00     0.034 C 
ENDBRANCH  16  17
ENDBRANCH  11  16
ENDBRANCH   6  10
ENDBRANCH   1   3
BRANCH   1  19
HETATM   19  C   UNL     1     -41.701  54.442 -55.070  1.00  0.00     0.253 C 
HETATM   20  N   UNL     1     -41.941  53.350 -54.268  1.00  0.00    -0.325 N 
HETATM   21  H   UNL     1     -42.888  53.184 -53.940  1.00  0.00     0.169 HD
HETATM   22  O   UNL     1     -40.611  54.981 -55.262  1.00  0.00    -0.271 OA
BRANCH  20  23
HETATM   23  C   UNL     1     -40.977  52.437 -53.763  1.00  0.00     0.045 A 
HETATM   24  C   UNL     1     -40.619  52.513 -52.393  1.00  0.00     0.001 A 
HETATM   25  C   UNL     1     -39.740  51.548 -51.867  1.00  0.00     0.014 A 
HETATM   26  C   UNL     1     -39.220  50.533 -52.670  1.00  0.00     0.001 A 
HETATM   27  C   UNL     1     -39.564  50.474 -54.015  1.00  0.00     0.002 A 
HETATM   28  C   UNL     1     -40.436  51.419 -54.560  1.00  0.00     0.030 A 
BRANCH  24  29
HETATM   29  C   UNL     1     -41.100  53.585 -51.504  1.00  0.00    -0.024 A 
HETATM   30  C   UNL     1     -42.471  53.780 -51.283  1.00  0.00     0.012 A 
HETATM   31  C   UNL     1     -42.919  54.796 -50.436  1.00  0.00     0.001 A 
HETATM   32  C   UNL     1     -42.001  55.630 -49.800  1.00  0.00     0.000 A 
HETATM   33  C   UNL     1     -40.635  55.447 -50.005  1.00  0.00     0.001 A 
HETATM   34  C   UNL     1     -40.188  54.430 -50.850  1.00  0.00     0.012 A 
ENDBRANCH  24  29
ENDBRANCH  20  23
ENDBRANCH   1  19
TORSDOF 7
ENDMDL
MODEL 2
REMARK VINA RESULT:      -8.1      2.986      8.159
REMARK  7 active torsions:
REMARK  status: ('A' for Active; 'I' for Inactive)
REMARK    1  A    between atoms: C_2  and  O_3 
REMARK    2  A    between atoms: O_3  and  C_4 
REMARK    3  A    between atoms: C_5  and  N_6 
REMARK    4  A    between atoms: N_9  and  C_11 
REMARK    5  A    between atoms: C_11  and  C_12 
REMARK       I    between atoms: C_12  and  N_13 
REMARK    6  A    between atoms: N_13  and  C_14 
REMARK    7  A    between atoms: C_15  and  C_16 
ROOT
HETATM    1  C   UNL     1     -44.165  57.300 -55.242  1.00  0.00     0.275 C 
HETATM    2  C   UNL     1     -44.647  57.768 -53.875  1.00  0.00     0.050 C 
ENDROOT
BRANCH   1   3
HETATM    3  N   UNL     1     -42.980  56.321 -55.102  1.00  0.00    -0.056 N 
HETATM    4  C   UNL     1     -41.817  56.820 -54.234  1.00  0.00     0.255 C 
HETATM    5  C   UNL     1     -40.625  55.849 -54.362  1.00  0.00     0.150 C 
HETATM    6  N   UNL     1     -41.031  54.481 -53.992  1.00  0.00    -0.375 N 
HETATM    7  C   UNL     1     -42.157  53.950 -54.790  1.00  0.00     0.150 C 
HETATM    8  C   UNL     1     -43.374  54.899 -54.730  1.00  0.00     0.255 C 
HETATM    9  H   UNL     1     -42.576  56.293 -56.053  1.00  0.00     0.281 HD
BRANCH   6  10
HETATM   10  C   UNL     1     -40.840  54.000 -52.687  1.00  0.00     0.064 A 
HETATM   11  C   UNL     1     -40.236  52.739 -52.415  1.00  0.00     0.095 A 
HETATM   12  C   UNL     1     -40.048  52.305 -51.092  1.00  0.00     0.039 A 
HETATM   13  C   UNL     1     -40.442  53.095 -50.017  1.00  0.00     0.003 A 
HETATM   14  C   UNL     1     -41.014  54.335 -50.253  1.00  0.00     0.002 A 
HETATM   15  C   UNL     1     -41.200  54.778 -51.565  1.00  0.00     0.032 A 
BRANCH  11  16
HETATM   16  O   UNL     1     -39.790  52.014 -53.498  1.00  0.00    -0.349 OA
BRANCH  16  17
HETATM   17  C   UNL     1     -39.539  50.622 -53.312  1.00  0.00     0.171 C 
HETATM   18  C   UNL     1     -39.939  49.901 -54.586  1.00  0.00     0.034 C 
ENDBRANCH  16  17
ENDBRANCH  11  16
ENDBRANCH   6  10
ENDBRANCH   1   3
BRANCH   1  19
HETATM   19  C   UNL     1     -43.766  58.472 -56.176  1.00  0.00     0.253 C 
HETATM   20  N   UNL     1     -42.851  58.160 -57.155  1.00  0.00    -0.325 N 
HETATM   21  H   UNL     1     -42.294  57.317 -57.053  1.00  0.00     0.169 HD
HETATM   22  O   UNL     1     -44.252  59.581 -55.958  1.00  0.00    -0.271 OA
BRANCH  20  23
HETATM   23  C   UNL     1     -42.526  58.942 -58.296  1.00  0.00     0.045 A 
HETATM   24  C   UNL     1     -43.088  58.586 -59.548  1.00  0.00     0.001 A 
HETATM   25  C   UNL     1     -42.848  59.416 -60.659  1.00  0.00     0.014 A 
HETATM   26  C   UNL     1     -42.070  60.567 -60.545  1.00  0.00     0.001 A 
HETATM   27  C   UNL     1     -41.511  60.902 -59.318  1.00  0.00     0.002 A 
HETATM   28  C   UNL     1     -41.736  60.096 -58.200  1.00  0.00     0.030 A 
BRANCH  24  29
HETATM   29  C   UNL     1     -43.882  57.361 -59.743  1.00  0.00    -0.024 A 
HETATM   30  C   UNL     1     -45.280  57.414 -59.841  1.00  0.00     0.012 A 
HETATM   31  C   UNL     1     -46.026  56.248 -60.030  1.00  0.00     0.001 A 
HETATM   32  C   UNL     1     -45.383  55.015 -60.123  1.00  0.00     0.000 A 
HETATM   33  C   UNL     1     -43.994  54.945 -60.032  1.00  0.00     0.001 A 
HETATM   34  C   UNL     1     -43.249  56.111 -59.846  1.00  0.00     0.012 A 
ENDBRANCH  24  29
ENDBRANCH  20  23
ENDBRANCH   1  19
TORSDOF 7
ENDMDL
MODEL 3
REMARK VINA RESULT:      -8.0      3.082      5.323
REMARK  7 active torsions:
REMARK  status: ('A' for Active; 'I' for Inactive)
REMARK    1  A    between atoms: C_2  and  O_3 
REMARK    2  A    between atoms: O_3  and  C_4 
REMARK    3  A    between atoms: C_5  and  N_6 
REMARK    4  A    between atoms: N_9  and  C_11 
REMARK    5  A    between atoms: C_11  and  C_12 
REMARK       I    between atoms: C_12  and  N_13 
REMARK    6  A    between atoms: N_13  and  C_14 
REMARK    7  A    between atoms: C_15  and  C_16 
ROOT
HETATM    1  C   UNL     1     -41.509  55.634 -54.627  1.00  0.00     0.275 C 
HETATM    2  C   UNL     1     -41.657  56.356 -53.294  1.00  0.00     0.050 C 
ENDROOT
BRANCH   1   3
HETATM    3  N   UNL     1     -42.646  56.026 -55.593  1.00  0.00    -0.056 N 
HETATM    4  C   UNL     1     -43.079  57.498 -55.533  1.00  0.00     0.255 C 
HETATM    5  C   UNL     1     -44.354  57.695 -56.380  1.00  0.00     0.150 C 
HETATM    6  N   UNL     1     -44.127  57.253 -57.767  1.00  0.00    -0.375 N 
HETATM    7  C   UNL     1     -43.695  55.843 -57.888  1.00  0.00     0.150 C 
HETATM    8  C   UNL     1     -42.439  55.573 -57.032  1.00  0.00     0.255 C 
HETATM    9  H   UNL     1     -43.465  55.518 -55.223  1.00  0.00     0.281 HD
BRANCH   6  10
HETATM   10  C   UNL     1     -43.739  58.166 -58.760  1.00  0.00     0.064 A 
HETATM   11  C   UNL     1     -44.677  58.809 -59.618  1.00  0.00     0.095 A 
HETATM   12  C   UNL     1     -44.247  59.731 -60.587  1.00  0.00     0.039 A 
HETATM   13  C   UNL     1     -42.898  60.042 -60.730  1.00  0.00     0.003 A 
HETATM   14  C   UNL     1     -41.967  59.446 -59.896  1.00  0.00     0.002 A 
HETATM   15  C   UNL     1     -42.386  58.532 -58.925  1.00  0.00     0.032 A 
BRANCH  11  16
HETATM   16  O   UNL     1     -46.010  58.536 -59.402  1.00  0.00    -0.349 OA
BRANCH  16  17
HETATM   17  C   UNL     1     -46.756  57.960 -60.473  1.00  0.00     0.171 C 
HETATM   18  C   UNL     1     -46.895  56.473 -60.198  1.00  0.00     0.034 C 
ENDBRANCH  16  17
ENDBRANCH  11  16
ENDBRANCH   6  10
ENDBRANCH   1   3
BRANCH   1  19
HETATM   19  C   UNL     1     -41.463  54.091 -54.476  1.00  0.00     0.253 C 
HETATM   20  N   UNL     1     -40.242  53.570 -54.114  1.00  0.00    -0.325 N 
HETATM   21  H   UNL     1     -39.412  54.141 -54.238  1.00  0.00     0.169 HD
HETATM   22  O   UNL     1     -42.486  53.451 -54.723  1.00  0.00    -0.271 OA
BRANCH  20  23
HETATM   23  C   UNL     1     -39.985  52.255 -53.642  1.00  0.00     0.045 A 
HETATM   24  C   UNL     1     -40.152  51.983 -52.260  1.00  0.00     0.001 A 
HETATM   25  C   UNL     1     -39.995  50.660 -51.805  1.00  0.00     0.014 A 
HETATM   26  C   UNL     1     -39.675  49.628 -52.686  1.00  0.00     0.001 A 
HETATM   27  C   UNL     1     -39.498  49.904 -54.036  1.00  0.00     0.002 A 
HETATM   28  C   UNL     1     -39.651  51.209 -54.513  1.00  0.00     0.030 A 
BRANCH  24  29
HETATM   29  C   UNL     1     -40.447  53.036 -51.273  1.00  0.00    -0.024 A 
HETATM   30  C   UNL     1     -39.418  53.661 -50.554  1.00  0.00     0.012 A 
HETATM   31  C   UNL     1     -39.705  54.661 -49.622  1.00  0.00     0.001 A 
HETATM   32  C   UNL     1     -41.024  55.049 -49.397  1.00  0.00     0.000 A 
HETATM   33  C   UNL     1     -42.058  54.441 -50.106  1.00  0.00     0.001 A 
HETATM   34  C   UNL     1     -41.771  53.444 -51.040  1.00  0.00     0.012 A 
ENDBRANCH  24  29
ENDBRANCH  20  23
ENDBRANCH   1  19
TORSDOF 7
ENDMDL
MODEL 4
REMARK VINA RESULT:      -7.8      3.482      8.529
REMARK  7 active torsions:
REMARK  status: ('A' for Active; 'I' for Inactive)
REMARK    1  A    between atoms: C_2  and  O_3 
REMARK    2  A    between atoms: O_3  and  C_4 
REMARK    3  A    between atoms: C_5  and  N_6 
REMARK    4  A    between atoms: N_9  and  C_11 
REMARK    5  A    between atoms: C_11  and  C_12 
REMARK       I    between atoms: C_12  and  N_13 
REMARK    6  A    between atoms: N_13  and  C_14 
REMARK    7  A    between atoms: C_15  and  C_16 
ROOT
HETATM    1  C   UNL     1     -44.967  57.509 -54.699  1.00  0.00     0.275 C 
HETATM    2  C   UNL     1     -44.825  58.421 -53.488  1.00  0.00     0.050 C 
ENDROOT
BRANCH   1   3
HETATM    3  N   UNL     1     -43.750  56.568 -54.825  1.00  0.00    -0.056 N 
HETATM    4  C   UNL     1     -42.451  57.090 -54.195  1.00  0.00     0.255 C 
HETATM    5  C   UNL     1     -41.281  56.162 -54.585  1.00  0.00     0.150 C 
HETATM    6  N   UNL     1     -41.564  54.774 -54.176  1.00  0.00    -0.375 N 
HETATM    7  C   UNL     1     -42.812  54.220 -54.743  1.00  0.00     0.150 C 
HETATM    8  C   UNL     1     -44.019  55.127 -54.417  1.00  0.00     0.255 C 
HETATM    9  H   UNL     1     -43.546  56.571 -55.838  1.00  0.00     0.281 HD
BRANCH   6  10
HETATM   10  C   UNL     1     -41.100  54.276 -52.947  1.00  0.00     0.064 A 
HETATM   11  C   UNL     1     -40.324  53.086 -52.847  1.00  0.00     0.095 A 
HETATM   12  C   UNL     1     -39.864  52.632 -51.599  1.00  0.00     0.039 A 
HETATM   13  C   UNL     1     -40.151  53.336 -50.433  1.00  0.00     0.003 A 
HETATM   14  C   UNL     1     -40.888  54.507 -50.504  1.00  0.00     0.002 A 
HETATM   15  C   UNL     1     -41.344  54.969 -51.742  1.00  0.00     0.032 A 
BRANCH  11  16
HETATM   16  O   UNL     1     -39.995  52.454 -54.025  1.00  0.00    -0.349 OA
BRANCH  16  17
HETATM   17  C   UNL     1     -40.605  51.194 -54.302  1.00  0.00     0.171 C 
HETATM   18  C   UNL     1     -39.514  50.139 -54.317  1.00  0.00     0.034 C 
ENDBRANCH  16  17
ENDBRANCH  11  16
ENDBRANCH   6  10
ENDBRANCH   1   3
BRANCH   1  19
HETATM   19  C   UNL     1     -45.160  58.290 -56.025  1.00  0.00     0.253 C 
HETATM   20  N   UNL     1     -46.244  57.908 -56.782  1.00  0.00    -0.325 N 
HETATM   21  H   UNL     1     -46.671  57.004 -56.603  1.00  0.00     0.169 HD
HETATM   22  O   UNL     1     -44.331  59.149 -56.320  1.00  0.00    -0.271 OA
BRANCH  20  23
HETATM   23  C   UNL     1     -46.812  58.618 -57.873  1.00  0.00     0.045 A 
HETATM   24  C   UNL     1     -46.560  58.157 -59.190  1.00  0.00     0.001 A 
HETATM   25  C   UNL     1     -47.201  58.798 -60.267  1.00  0.00     0.014 A 
HETATM   26  C   UNL     1     -48.067  59.871 -60.056  1.00  0.00     0.001 A 
HETATM   27  C   UNL     1     -48.298  60.326 -58.764  1.00  0.00     0.002 A 
HETATM   28  C   UNL     1     -47.675  59.705 -57.678  1.00  0.00     0.030 A 
BRANCH  24  29
HETATM   29  C   UNL     1     -45.624  57.059 -59.482  1.00  0.00    -0.024 A 
HETATM   30  C   UNL     1     -44.243  57.215 -59.289  1.00  0.00     0.012 A 
HETATM   31  C   UNL     1     -43.362  56.167 -59.565  1.00  0.00     0.001 A 
HETATM   32  C   UNL     1     -43.849  54.950 -60.039  1.00  0.00     0.000 A 
HETATM   33  C   UNL     1     -45.218  54.777 -60.232  1.00  0.00     0.001 A 
HETATM   34  C   UNL     1     -46.099  55.823 -59.953  1.00  0.00     0.012 A 
ENDBRANCH  24  29
ENDBRANCH  20  23
ENDBRANCH   1  19
TORSDOF 7
ENDMDL
MODEL 5
REMARK VINA RESULT:      -7.7      3.041      7.551
REMARK  7 active torsions:
REMARK  status: ('A' for Active; 'I' for Inactive)
REMARK    1  A    between atoms: C_2  and  O_3 
REMARK    2  A    between atoms: O_3  and  C_4 
REMARK    3  A    between atoms: C_5  and  N_6 
REMARK    4  A    between atoms: N_9  and  C_11 
REMARK    5  A    between atoms: C_11  and  C_12 
REMARK       I    between atoms: C_12  and  N_13 
REMARK    6  A    between atoms: N_13  and  C_14 
REMARK    7  A    between atoms: C_15  and  C_16 
ROOT
HETATM    1  C   UNL     1     -43.555  59.590 -54.116  1.00  0.00     0.275 C 
HETATM    2  C   UNL     1     -42.522  60.710 -54.109  1.00  0.00     0.050 C 
ENDROOT
BRANCH   1   3
HETATM    3  N   UNL     1     -43.100  58.418 -53.221  1.00  0.00    -0.056 N 
HETATM    4  C   UNL     1     -43.802  57.079 -53.487  1.00  0.00     0.255 C 
HETATM    5  C   UNL     1     -43.416  56.067 -52.387  1.00  0.00     0.150 C 
HETATM    6  N   UNL     1     -41.952  55.909 -52.322  1.00  0.00    -0.375 N 
HETATM    7  C   UNL     1     -41.219  57.170 -52.079  1.00  0.00     0.150 C 
HETATM    8  C   UNL     1     -41.592  58.240 -53.129  1.00  0.00     0.255 C 
HETATM    9  H   UNL     1     -43.438  58.686 -52.282  1.00  0.00     0.281 HD
BRANCH   6  10
HETATM   10  C   UNL     1     -41.307  54.876 -53.021  1.00  0.00     0.064 A 
HETATM   11  C   UNL     1     -41.017  53.615 -52.427  1.00  0.00     0.095 A 
HETATM   12  C   UNL     1     -40.385  52.601 -53.168  1.00  0.00     0.039 A 
HETATM   13  C   UNL     1     -40.033  52.803 -54.499  1.00  0.00     0.003 A 
HETATM   14  C   UNL     1     -40.321  54.014 -55.107  1.00  0.00     0.002 A 
HETATM   15  C   UNL     1     -40.954  55.025 -54.379  1.00  0.00     0.032 A 
BRANCH  11  16
HETATM   16  O   UNL     1     -41.444  53.420 -51.132  1.00  0.00    -0.349 OA
BRANCH  16  17
HETATM   17  C   UNL     1     -40.488  52.976 -50.171  1.00  0.00     0.171 C 
HETATM   18  C   UNL     1     -39.674  54.179 -49.731  1.00  0.00     0.034 C 
ENDBRANCH  16  17
ENDBRANCH  11  16
ENDBRANCH   6  10
ENDBRANCH   1   3
BRANCH   1  19
HETATM   19  C   UNL     1     -43.868  59.065 -55.541  1.00  0.00     0.253 C 
HETATM   20  N   UNL     1     -42.770  58.735 -56.303  1.00  0.00    -0.325 N 
HETATM   21  H   UNL     1     -41.861  59.096 -56.031  1.00  0.00     0.169 HD
HETATM   22  O   UNL     1     -45.045  59.019 -55.899  1.00  0.00    -0.271 OA
BRANCH  20  23
HETATM   23  C   UNL     1     -42.766  57.984 -57.508  1.00  0.00     0.045 A 
HETATM   24  C   UNL     1     -42.478  58.652 -58.725  1.00  0.00     0.001 A 
HETATM   25  C   UNL     1     -42.376  57.894 -59.907  1.00  0.00     0.014 A 
HETATM   26  C   UNL     1     -42.557  56.512 -59.895  1.00  0.00     0.001 A 
HETATM   27  C   UNL     1     -42.853  55.866 -58.702  1.00  0.00     0.002 A 
HETATM   28  C   UNL     1     -42.958  56.596 -57.515  1.00  0.00     0.030 A 
BRANCH  24  29
HETATM   29  C   UNL     1     -42.320  60.114 -58.812  1.00  0.00    -0.024 A 
HETATM   30  C   UNL     1     -41.139  60.739 -58.384  1.00  0.00     0.012 A 
HETATM   31  C   UNL     1     -40.995  62.126 -58.472  1.00  0.00     0.001 A 
HETATM   32  C   UNL     1     -42.029  62.904 -58.989  1.00  0.00     0.000 A 
HETATM   33  C   UNL     1     -43.207  62.299 -59.422  1.00  0.00     0.001 A 
HETATM   34  C   UNL     1     -43.350  60.912 -59.337  1.00  0.00     0.012 A 
ENDBRANCH  24  29
ENDBRANCH  20  23
ENDBRANCH   1  19
TORSDOF 7
ENDMDL
MODEL 6
REMARK VINA RESULT:      -7.7      3.394      8.232
REMARK  7 active torsions:
REMARK  status: ('A' for Active; 'I' for Inactive)
REMARK    1  A    between atoms: C_2  and  O_3 
REMARK    2  A    between atoms: O_3  and  C_4 
REMARK    3  A    between atoms: C_5  and  N_6 
REMARK    4  A    between atoms: N_9  and  C_11 
REMARK    5  A    between atoms: C_11  and  C_12 
REMARK       I    between atoms: C_12  and  N_13 
REMARK    6  A    between atoms: N_13  and  C_14 
REMARK    7  A    between atoms: C_15  and  C_16 
ROOT
HETATM    1  C   UNL     1     -42.315  56.002 -56.839  1.00  0.00     0.275 C 
HETATM    2  C   UNL     1     -43.319  55.079 -57.518  1.00  0.00     0.050 C 
ENDROOT
BRANCH   1   3
HETATM    3  N   UNL     1     -42.224  55.700 -55.329  1.00  0.00    -0.056 N 
HETATM    4  C   UNL     1     -42.949  54.427 -54.870  1.00  0.00     0.255 C 
HETATM    5  C   UNL     1     -42.962  54.369 -53.328  1.00  0.00     0.150 C 
HETATM    6  N   UNL     1     -41.589  54.433 -52.797  1.00  0.00    -0.375 N 
HETATM    7  C   UNL     1     -40.836  55.634 -53.215  1.00  0.00     0.150 C 
HETATM    8  C   UNL     1     -40.816  55.769 -54.754  1.00  0.00     0.255 C 
HETATM    9  H   UNL     1     -42.773  56.460 -54.896  1.00  0.00     0.281 HD
BRANCH   6  10
HETATM   10  C   UNL     1     -40.878  53.260 -52.493  1.00  0.00     0.064 A 
HETATM   11  C   UNL     1     -40.597  52.860 -51.155  1.00  0.00     0.095 A 
HETATM   12  C   UNL     1     -39.898  51.669 -50.895  1.00  0.00     0.039 A 
HETATM   13  C   UNL     1     -39.468  50.851 -51.936  1.00  0.00     0.003 A 
HETATM   14  C   UNL     1     -39.745  51.207 -53.245  1.00  0.00     0.002 A 
HETATM   15  C   UNL     1     -40.445  52.387 -53.513  1.00  0.00     0.032 A 
BRANCH  11  16
HETATM   16  O   UNL     1     -41.101  53.652 -50.147  1.00  0.00    -0.349 OA
BRANCH  16  17
HETATM   17  C   UNL     1     -40.176  54.402 -49.361  1.00  0.00     0.171 C 
HETATM   18  C   UNL     1     -40.339  53.976 -47.914  1.00  0.00     0.034 C 
ENDBRANCH  16  17
ENDBRANCH  11  16
ENDBRANCH   6  10
ENDBRANCH   1   3
BRANCH   1  19
HETATM   19  C   UNL     1     -42.637  57.504 -57.051  1.00  0.00     0.253 C 
HETATM   20  N   UNL     1     -42.224  58.033 -58.252  1.00  0.00    -0.325 N 
HETATM   21  H   UNL     1     -41.519  57.535 -58.788  1.00  0.00     0.169 HD
HETATM   22  O   UNL     1     -43.191  58.115 -56.137  1.00  0.00    -0.271 OA
BRANCH  20  23
HETATM   23  C   UNL     1     -42.623  59.273 -58.818  1.00  0.00     0.045 A 
HETATM   24  C   UNL     1     -43.865  59.342 -59.498  1.00  0.00     0.001 A 
HETATM   25  C   UNL     1     -44.310  60.591 -59.973  1.00  0.00     0.014 A 
HETATM   26  C   UNL     1     -43.548  61.744 -59.790  1.00  0.00     0.001 A 
HETATM   27  C   UNL     1     -42.325  61.666 -59.136  1.00  0.00     0.002 A 
HETATM   28  C   UNL     1     -41.864  60.439 -58.653  1.00  0.00     0.030 A 
BRANCH  24  29
HETATM   29  C   UNL     1     -44.695  58.154 -59.761  1.00  0.00    -0.024 A 
HETATM   30  C   UNL     1     -44.213  57.097 -60.547  1.00  0.00     0.012 A 
HETATM   31  C   UNL     1     -45.005  55.971 -60.789  1.00  0.00     0.001 A 
HETATM   32  C   UNL     1     -46.287  55.889 -60.250  1.00  0.00     0.000 A 
HETATM   33  C   UNL     1     -46.779  56.929 -59.464  1.00  0.00     0.001 A 
HETATM   34  C   UNL     1     -45.987  58.052 -59.219  1.00  0.00     0.012 A 
ENDBRANCH  24  29
ENDBRANCH  20  23
ENDBRANCH   1  19
TORSDOF 7
ENDMDL
MODEL 7
REMARK VINA RESULT:      -7.6      3.133      6.148
REMARK  7 active torsions:
REMARK  status: ('A' for Active; 'I' for Inactive)
REMARK    1  A    between atoms: C_2  and  O_3 
REMARK    2  A    between atoms: O_3  and  C_4 
REMARK    3  A    between atoms: C_5  and  N_6 
REMARK    4  A    between atoms: N_9  and  C_11 
REMARK    5  A    between atoms: C_11  and  C_12 
REMARK       I    between atoms: C_12  and  N_13 
REMARK    6  A    between atoms: N_13  and  C_14 
REMARK    7  A    between atoms: C_15  and  C_16 
ROOT
HETATM    1  C   UNL     1     -43.769  55.044 -54.299  1.00  0.00     0.275 C 
HETATM    2  C   UNL     1     -43.054  53.921 -55.040  1.00  0.00     0.050 C 
ENDROOT
BRANCH   1   3
HETATM    3  N   UNL     1     -43.628  56.380 -55.058  1.00  0.00    -0.056 N 
HETATM    4  C   UNL     1     -43.069  56.268 -56.483  1.00  0.00     0.255 C 
HETATM    5  C   UNL     1     -42.777  57.680 -57.034  1.00  0.00     0.150 C 
HETATM    6  N   UNL     1     -43.992  58.513 -56.991  1.00  0.00    -0.375 N 
HETATM    7  C   UNL     1     -44.584  58.648 -55.643  1.00  0.00     0.150 C 
HETATM    8  C   UNL     1     -44.867  57.263 -55.021  1.00  0.00     0.255 C 
HETATM    9  H   UNL     1     -42.880  56.873 -54.543  1.00  0.00     0.281 HD
BRANCH   6  10
HETATM   10  C   UNL     1     -44.831  58.622 -58.112  1.00  0.00     0.064 A 
HETATM   11  C   UNL     1     -44.430  59.286 -59.307  1.00  0.00     0.095 A 
HETATM   12  C   UNL     1     -45.294  59.356 -60.413  1.00  0.00     0.039 A 
HETATM   13  C   UNL     1     -46.559  58.777 -60.370  1.00  0.00     0.003 A 
HETATM   14  C   UNL     1     -46.966  58.109 -59.226  1.00  0.00     0.002 A 
HETATM   15  C   UNL     1     -46.111  58.028 -58.124  1.00  0.00     0.032 A 
BRANCH  11  16
HETATM   16  O   UNL     1     -43.146  59.783 -59.345  1.00  0.00    -0.349 OA
BRANCH  16  17
HETATM   17  C   UNL     1     -42.365  59.529 -60.511  1.00  0.00     0.171 C 
HETATM   18  C   UNL     1     -41.831  58.111 -60.416  1.00  0.00     0.034 C 
ENDBRANCH  16  17
ENDBRANCH  11  16
ENDBRANCH   6  10
ENDBRANCH   1   3
BRANCH   1  19
HETATM   19  C   UNL     1     -43.271  55.218 -52.841  1.00  0.00     0.253 C 
HETATM   20  N   UNL     1     -42.544  54.164 -52.336  1.00  0.00    -0.325 N 
HETATM   21  H   UNL     1     -42.608  53.262 -52.796  1.00  0.00     0.169 HD
HETATM   22  O   UNL     1     -43.584  56.244 -52.237  1.00  0.00    -0.271 OA
BRANCH  20  23
HETATM   23  C   UNL     1     -41.745  54.167 -51.161  1.00  0.00     0.045 A 
HETATM   24  C   UNL     1     -40.594  53.341 -51.119  1.00  0.00     0.001 A 
HETATM   25  C   UNL     1     -39.746  53.415 -49.998  1.00  0.00     0.014 A 
HETATM   26  C   UNL     1     -40.025  54.279 -48.939  1.00  0.00     0.001 A 
HETATM   27  C   UNL     1     -41.163  55.075 -48.981  1.00  0.00     0.002 A 
HETATM   28  C   UNL     1     -42.019  55.021 -50.083  1.00  0.00     0.030 A 
BRANCH  24  29
HETATM   29  C   UNL     1     -40.268  52.377 -52.184  1.00  0.00    -0.024 A 
HETATM   30  C   UNL     1     -39.954  51.044 -51.882  1.00  0.00     0.012 A 
HETATM   31  C   UNL     1     -39.649  50.135 -52.898  1.00  0.00     0.001 A 
HETATM   32  C   UNL     1     -39.654  50.548 -54.229  1.00  0.00     0.000 A 
HETATM   33  C   UNL     1     -39.968  51.868 -54.547  1.00  0.00     0.001 A 
HETATM   34  C   UNL     1     -40.275  52.775 -53.532  1.00  0.00     0.012 A 
ENDBRANCH  24  29
ENDBRANCH  20  23
ENDBRANCH   1  19
TORSDOF 7
ENDMDL
MODEL 8
REMARK VINA RESULT:      -7.6      2.726      5.722
REMARK  7 active torsions:
REMARK  status: ('A' for Active; 'I' for Inactive)
REMARK    1  A    between atoms: C_2  and  O_3 
REMARK    2  A    between atoms: O_3  and  C_4 
REMARK    3  A    between atoms: C_5  and  N_6 
REMARK    4  A    between atoms: N_9  and  C_11 
REMARK    5  A    between atoms: C_11  and  C_12 
REMARK       I    between atoms: C_12  and  N_13 
REMARK    6  A    between atoms: N_13  and  C_14 
REMARK    7  A    between atoms: C_15  and  C_16 
ROOT
HETATM    1  C   UNL     1     -44.301  58.660 -51.440  1.00  0.00     0.275 C 
HETATM    2  C   UNL     1     -45.306  59.242 -50.454  1.00  0.00     0.050 C 
ENDROOT
BRANCH   1   3
HETATM    3  N   UNL     1     -44.871  58.665 -52.874  1.00  0.00    -0.056 N 
HETATM    4  C   UNL     1     -44.428  59.843 -53.751  1.00  0.00     0.255 C 
HETATM    5  C   UNL     1     -45.238  59.841 -55.065  1.00  0.00     0.150 C 
HETATM    6  N   UNL     1     -45.082  58.553 -55.766  1.00  0.00    -0.375 N 
HETATM    7  C   UNL     1     -45.484  57.378 -54.964  1.00  0.00     0.150 C 
HETATM    8  C   UNL     1     -44.731  57.343 -53.615  1.00  0.00     0.255 C 
HETATM    9  H   UNL     1     -45.880  58.835 -52.732  1.00  0.00     0.281 HD
BRANCH   6  10
HETATM   10  C   UNL     1     -44.110  58.390 -56.766  1.00  0.00     0.064 A 
HETATM   11  C   UNL     1     -44.414  57.853 -58.049  1.00  0.00     0.095 A 
HETATM   12  C   UNL     1     -43.414  57.723 -59.028  1.00  0.00     0.039 A 
HETATM   13  C   UNL     1     -42.105  58.120 -58.770  1.00  0.00     0.003 A 
HETATM   14  C   UNL     1     -41.787  58.664 -57.536  1.00  0.00     0.002 A 
HETATM   15  C   UNL     1     -42.776  58.802 -56.558  1.00  0.00     0.032 A 
BRANCH  11  16
HETATM   16  O   UNL     1     -45.732  57.539 -58.299  1.00  0.00    -0.349 OA
BRANCH  16  17
HETATM   17  C   UNL     1     -46.361  58.144 -59.428  1.00  0.00     0.171 C 
HETATM   18  C   UNL     1     -46.759  59.556 -59.041  1.00  0.00     0.034 C 
ENDBRANCH  16  17
ENDBRANCH  11  16
ENDBRANCH   6  10
ENDBRANCH   1   3
BRANCH   1  19
HETATM   19  C   UNL     1     -43.848  57.225 -51.065  1.00  0.00     0.253 C 
HETATM   20  N   UNL     1     -42.532  56.931 -51.338  1.00  0.00    -0.325 N 
HETATM   21  H   UNL     1     -42.026  57.519 -51.993  1.00  0.00     0.169 HD
HETATM   22  O   UNL     1     -44.686  56.454 -50.596  1.00  0.00    -0.271 OA
BRANCH  20  23
HETATM   23  C   UNL     1     -41.790  55.820 -50.854  1.00  0.00     0.045 A 
HETATM   24  C   UNL     1     -41.353  54.839 -51.780  1.00  0.00     0.001 A 
HETATM   25  C   UNL     1     -40.534  53.790 -51.320  1.00  0.00     0.014 A 
HETATM   26  C   UNL     1     -40.158  53.704 -49.980  1.00  0.00     0.001 A 
HETATM   27  C   UNL     1     -40.602  54.660 -49.077  1.00  0.00     0.002 A 
HETATM   28  C   UNL     1     -41.414  55.712 -49.509  1.00  0.00     0.030 A 
BRANCH  24  29
HETATM   29  C   UNL     1     -41.751  54.850 -53.198  1.00  0.00    -0.024 A 
HETATM   30  C   UNL     1     -42.908  54.185 -53.628  1.00  0.00     0.012 A 
HETATM   31  C   UNL     1     -43.281  54.202 -54.975  1.00  0.00     0.001 A 
HETATM   32  C   UNL     1     -42.502  54.885 -55.907  1.00  0.00     0.000 A 
HETATM   33  C   UNL     1     -41.352  55.555 -55.495  1.00  0.00     0.001 A 
HETATM   34  C   UNL     1     -40.981  55.540 -54.149  1.00  0.00     0.012 A 
ENDBRANCH  24  29
ENDBRANCH  20  23
ENDBRANCH   1  19
TORSDOF 7
ENDMDL
MODEL 9
REMARK VINA RESULT:      -7.6      1.360      1.970
REMARK  7 active torsions:
REMARK  status: ('A' for Active; 'I' for Inactive)
REMARK    1  A    between atoms: C_2  and  O_3 
REMARK    2  A    between atoms: O_3  and  C_4 
REMARK    3  A    between atoms: C_5  and  N_6 
REMARK    4  A    between atoms: N_9  and  C_11 
REMARK    5  A    between atoms: C_11  and  C_12 
REMARK       I    between atoms: C_12  and  N_13 
REMARK    6  A    between atoms: N_13  and  C_14 
REMARK    7  A    between atoms: C_15  and  C_16 
ROOT
HETATM    1  C   UNL     1     -42.690  55.168 -55.146  1.00  0.00     0.275 C 
HETATM    2  C   UNL     1     -42.465  55.932 -56.446  1.00  0.00     0.050 C 
ENDROOT
BRANCH   1   3
HETATM    3  N   UNL     1     -43.106  56.126 -54.011  1.00  0.00    -0.056 N 
HETATM    4  C   UNL     1     -41.978  57.000 -53.444  1.00  0.00     0.255 C 
HETATM    5  C   UNL     1     -42.481  57.737 -52.184  1.00  0.00     0.150 C 
HETATM    6  N   UNL     1     -43.681  58.533 -52.496  1.00  0.00    -0.375 N 
HETATM    7  C   UNL     1     -44.799  57.745 -53.056  1.00  0.00     0.150 C 
HETATM    8  C   UNL     1     -44.349  56.954 -54.304  1.00  0.00     0.255 C 
HETATM    9  H   UNL     1     -43.334  55.490 -53.229  1.00  0.00     0.281 HD
BRANCH   6  10
HETATM   10  C   UNL     1     -43.577  59.893 -52.831  1.00  0.00     0.064 A 
HETATM   11  C   UNL     1     -43.967  60.933 -51.940  1.00  0.00     0.095 A 
HETATM   12  C   UNL     1     -43.829  62.282 -52.309  1.00  0.00     0.039 A 
HETATM   13  C   UNL     1     -43.304  62.635 -53.549  1.00  0.00     0.003 A 
HETATM   14  C   UNL     1     -42.899  61.642 -54.426  1.00  0.00     0.002 A 
HETATM   15  C   UNL     1     -43.027  60.298 -54.066  1.00  0.00     0.032 A 
BRANCH  11  16
HETATM   16  O   UNL     1     -44.412  60.554 -50.693  1.00  0.00    -0.349 OA
BRANCH  16  17
HETATM   17  C   UNL     1     -43.761  61.111 -49.552  1.00  0.00     0.171 C 
HETATM   18  C   UNL     1     -44.832  61.612 -48.601  1.00  0.00     0.034 C 
ENDBRANCH  16  17
ENDBRANCH  11  16
ENDBRANCH   6  10
ENDBRANCH   1   3
BRANCH   1  19
HETATM   19  C   UNL     1     -41.450  54.346 -54.707  1.00  0.00     0.253 C 
HETATM   20  N   UNL     1     -41.715  53.274 -53.886  1.00  0.00    -0.325 N 
HETATM   21  H   UNL     1     -42.605  53.239 -53.400  1.00  0.00     0.169 HD
HETATM   22  O   UNL     1     -40.340  54.723 -55.080  1.00  0.00    -0.271 OA
BRANCH  20  23
HETATM   23  C   UNL     1     -40.831  52.208 -53.568  1.00  0.00     0.045 A 
HETATM   24  C   UNL     1     -40.343  52.102 -52.241  1.00  0.00     0.001 A 
HETATM   25  C   UNL     1     -39.547  50.992 -51.897  1.00  0.00     0.014 A 
HETATM   26  C   UNL     1     -39.233  50.012 -52.838  1.00  0.00     0.001 A 
HETATM   27  C   UNL     1     -39.702  50.131 -54.140  1.00  0.00     0.002 A 
HETATM   28  C   UNL     1     -40.495  51.221 -54.505  1.00  0.00     0.030 A 
BRANCH  24  29
HETATM   29  C   UNL     1     -40.603  53.125 -51.214  1.00  0.00    -0.024 A 
HETATM   30  C   UNL     1     -41.887  53.660 -51.035  1.00  0.00     0.012 A 
HETATM   31  C   UNL     1     -42.127  54.628 -50.057  1.00  0.00     0.001 A 
HETATM   32  C   UNL     1     -41.085  55.074 -49.245  1.00  0.00     0.000 A 
HETATM   33  C   UNL     1     -39.804  54.550 -49.407  1.00  0.00     0.001 A 
HETATM   34  C   UNL     1     -39.566  53.580 -50.383  1.00  0.00     0.012 A 
ENDBRANCH  24  29
ENDBRANCH  20  23
ENDBRANCH   1  19
TORSDOF 7
ENDMDL
MODEL 10
REMARK VINA RESULT:      -7.4      2.582      5.842
REMARK  7 active torsions:
REMARK  status: ('A' for Active; 'I' for Inactive)
REMARK    1  A    between atoms: C_2  and  O_3 
REMARK    2  A    between atoms: O_3  and  C_4 
REMARK    3  A    between atoms: C_5  and  N_6 
REMARK    4  A    between atoms: N_9  and  C_11 
REMARK    5  A    between atoms: C_11  and  C_12 
REMARK       I    between atoms: C_12  and  N_13 
REMARK    6  A    between atoms: N_13  and  C_14 
REMARK    7  A    between atoms: C_15  and  C_16 
ROOT
HETATM    1  C   UNL     1     -42.460  58.762 -51.905  1.00  0.00     0.275 C 
HETATM    2  C   UNL     1     -43.672  59.605 -51.529  1.00  0.00     0.050 C 
ENDROOT
BRANCH   1   3
HETATM    3  N   UNL     1     -42.231  58.778 -53.430  1.00  0.00    -0.056 N 
HETATM    4  C   UNL     1     -42.668  57.508 -54.173  1.00  0.00     0.255 C 
HETATM    5  C   UNL     1     -42.182  57.574 -55.637  1.00  0.00     0.150 C 
HETATM    6  N   UNL     1     -42.690  58.791 -56.296  1.00  0.00    -0.375 N 
HETATM    7  C   UNL     1     -42.309  60.048 -55.617  1.00  0.00     0.150 C 
HETATM    8  C   UNL     1     -42.738  60.029 -54.133  1.00  0.00     0.255 C 
HETATM    9  H   UNL     1     -41.201  58.768 -53.520  1.00  0.00     0.281 HD
BRANCH   6  10
HETATM   10  C   UNL     1     -43.874  58.761 -57.050  1.00  0.00     0.064 A 
HETATM   11  C   UNL     1     -43.875  58.633 -58.468  1.00  0.00     0.095 A 
HETATM   12  C   UNL     1     -45.084  58.589 -59.184  1.00  0.00     0.039 A 
HETATM   13  C   UNL     1     -46.307  58.666 -58.525  1.00  0.00     0.003 A 
HETATM   14  C   UNL     1     -46.335  58.772 -57.144  1.00  0.00     0.002 A 
HETATM   15  C   UNL     1     -45.138  58.810 -56.424  1.00  0.00     0.032 A 
BRANCH  11  16
HETATM   16  O   UNL     1     -42.651  58.484 -59.084  1.00  0.00    -0.349 OA
BRANCH  16  17
HETATM   17  C   UNL     1     -42.526  57.480 -60.089  1.00  0.00     0.171 C 
HETATM   18  C   UNL     1     -42.579  56.125 -59.405  1.00  0.00     0.034 C 
ENDBRANCH  16  17
ENDBRANCH  11  16
ENDBRANCH   6  10
ENDBRANCH   1   3
BRANCH   1  19
HETATM   19  C   UNL     1     -42.568  57.296 -51.410  1.00  0.00     0.253 C 
HETATM   20  N   UNL     1     -41.375  56.618 -51.310  1.00  0.00    -0.325 N 
HETATM   21  H   UNL     1     -40.565  56.979 -51.804  1.00  0.00     0.169 HD
HETATM   22  O   UNL     1     -43.689  56.838 -51.185  1.00  0.00    -0.271 OA
BRANCH  20  23
HETATM   23  C   UNL     1     -41.149  55.389 -50.634  1.00  0.00     0.045 A 
HETATM   24  C   UNL     1     -41.094  54.194 -51.395  1.00  0.00     0.001 A 
HETATM   25  C   UNL     1     -40.772  52.988 -50.743  1.00  0.00     0.014 A 
HETATM   26  C   UNL     1     -40.516  52.957 -49.373  1.00  0.00     0.001 A 
HETATM   27  C   UNL     1     -40.586  54.129 -48.631  1.00  0.00     0.002 A 
HETATM   28  C   UNL     1     -40.901  55.338 -49.256  1.00  0.00     0.030 A 
BRANCH  24  29
HETATM   29  C   UNL     1     -41.397  54.154 -52.836  1.00  0.00    -0.024 A 
HETATM   30  C   UNL     1     -42.717  54.029 -53.293  1.00  0.00     0.012 A 
HETATM   31  C   UNL     1     -42.997  53.995 -54.662  1.00  0.00     0.001 A 
HETATM   32  C   UNL     1     -41.961  54.087 -55.589  1.00  0.00     0.000 A 
HETATM   33  C   UNL     1     -40.645  54.216 -55.152  1.00  0.00     0.001 A 
HETATM   34  C   UNL     1     -40.365  54.252 -53.784  1.00  0.00     0.012 A 
ENDBRANCH  24  29
ENDBRANCH  20  23
ENDBRANCH   1  19
TORSDOF 7
ENDMDL
