MODEL 1
REMARK VINA RESULT:      -8.2      0.000      0.000
REMARK  2 active torsions:
REMARK  status: ('A' for Active; 'I' for Inactive)
REMARK    1  A    between atoms: C_8  and  N_9 
REMARK       I    between atoms: N_9  and  C_10 
REMARK       I    between atoms: C_10  and  N_11 
REMARK    2  A    between atoms: N_11  and  C_12 
ROOT
HETATM    1  C   UNL     1     -40.116  52.003 -53.325  1.00  0.00     0.044 A 
HETATM    2  C   UNL     1     -40.217  52.479 -52.028  1.00  0.00     0.117 A 
HETATM    3  F   UNL     1     -39.499  51.903 -51.056  1.00  0.00    -0.206 F 
HETATM    4  C   UNL     1     -41.075  53.525 -51.718  1.00  0.00     0.067 A 
HETATM    5  C   UNL     1     -41.851  54.128 -52.723  1.00  0.00     0.074 A 
HETATM    6  C   UNL     1     -42.814  55.101 -52.296  1.00  0.00     0.102 C 
HETATM    7  N   UNL     1     -43.610  55.868 -51.939  1.00  0.00    -0.191 NA
HETATM    8  C   UNL     1     -41.735  53.678 -54.056  1.00  0.00     0.057 A 
HETATM    9  C   UNL     1     -40.877  52.597 -54.334  1.00  0.00     0.034 A 
ENDROOT
BRANCH   8  10
HETATM   10  N   UNL     1     -42.463  54.171 -55.170  1.00  0.00    -0.308 N 
HETATM   11  C   UNL     1     -42.294  55.374 -55.805  1.00  0.00     0.321 C 
HETATM   12  N   UNL     1     -43.336  55.638 -56.662  1.00  0.00    -0.336 N 
HETATM   13  O   UNL     1     -41.360  56.155 -55.673  1.00  0.00    -0.247 OA
HETATM   14  H   UNL     1     -44.184  55.111 -56.491  1.00  0.00     0.164 HD
HETATM   15  H   UNL     1     -42.917  53.469 -55.742  1.00  0.00     0.170 HD
BRANCH  12  16
HETATM   16  C   UNL     1     -43.460  56.857 -57.466  1.00  0.00     0.118 C 
HETATM   17  C   UNL     1     -44.148  56.713 -58.838  1.00  0.00     0.210 C 
HETATM   18  N   UNL     1     -45.600  56.910 -58.509  1.00  0.00    -0.065 N 
HETATM   19  C   UNL     1     -43.984  55.419 -59.619  1.00  0.00     0.035 C 
HETATM   20  H   UNL     1     -45.905  56.071 -57.961  1.00  0.00     0.280 HD
HETATM   21  C   UNL     1     -46.480  57.030 -59.706  1.00  0.00     0.235 C 
HETATM   22  C   UNL     1     -45.625  58.045 -57.531  1.00  0.00     0.237 C 
HETATM   23  C   UNL     1     -46.320  55.782 -60.566  1.00  0.00     0.028 C 
HETATM   24  C   UNL     1     -44.857  55.451 -60.877  1.00  0.00     0.004 C 
HETATM   25  C   UNL     1     -44.304  57.936 -56.765  1.00  0.00     0.055 C 
ENDBRANCH  12  16
ENDBRANCH   8  10
TORSDOF 2
ENDMDL
MODEL 2
REMARK VINA RESULT:      -8.1      2.153      3.201
REMARK  2 active torsions:
REMARK  status: ('A' for Active; 'I' for Inactive)
REMARK    1  A    between atoms: C_8  and  N_9 
REMARK       I    between atoms: N_9  and  C_10 
REMARK       I    between atoms: C_10  and  N_11 
REMARK    2  A    between atoms: N_11  and  C_12 
ROOT
HETATM    1  C   UNL     1     -39.686  50.705 -53.423  1.00  0.00     0.044 A 
HETATM    2  C   UNL     1     -39.688  50.877 -52.049  1.00  0.00     0.117 A 
HETATM    3  F   UNL     1     -39.409  49.837 -51.253  1.00  0.00    -0.206 F 
HETATM    4  C   UNL     1     -40.005  52.105 -51.485  1.00  0.00     0.067 A 
HETATM    5  C   UNL     1     -40.320  53.202 -52.305  1.00  0.00     0.074 A 
HETATM    6  C   UNL     1     -40.774  54.391 -51.643  1.00  0.00     0.102 C 
HETATM    7  N   UNL     1     -41.167  55.341 -51.102  1.00  0.00    -0.191 NA
HETATM    8  C   UNL     1     -40.289  53.054 -53.709  1.00  0.00     0.057 A 
HETATM    9  C   UNL     1     -39.991  51.788 -54.249  1.00  0.00     0.034 A 
ENDROOT
BRANCH   8  10
HETATM   10  N   UNL     1     -40.601  54.058 -54.661  1.00  0.00    -0.308 N 
HETATM   11  C   UNL     1     -41.847  54.481 -55.043  1.00  0.00     0.321 C 
HETATM   12  N   UNL     1     -41.786  55.268 -56.169  1.00  0.00    -0.336 N 
HETATM   13  O   UNL     1     -42.913  54.228 -54.496  1.00  0.00    -0.247 OA
HETATM   14  H   UNL     1     -40.937  55.179 -56.715  1.00  0.00     0.164 HD
HETATM   15  H   UNL     1     -39.869  54.736 -54.839  1.00  0.00     0.170 HD
BRANCH  12  16
HETATM   16  C   UNL     1     -42.951  55.850 -56.839  1.00  0.00     0.118 C 
HETATM   17  C   UNL     1     -42.935  57.377 -57.051  1.00  0.00     0.210 C 
HETATM   18  N   UNL     1     -42.236  57.527 -58.371  1.00  0.00    -0.065 N 
HETATM   19  C   UNL     1     -42.253  58.263 -56.020  1.00  0.00     0.035 C 
HETATM   20  H   UNL     1     -41.235  57.262 -58.217  1.00  0.00     0.280 HD
HETATM   21  C   UNL     1     -42.273  58.912 -58.921  1.00  0.00     0.235 C 
HETATM   22  C   UNL     1     -42.800  56.439 -59.233  1.00  0.00     0.237 C 
HETATM   23  C   UNL     1     -41.650  59.864 -57.907  1.00  0.00     0.028 C 
HETATM   24  C   UNL     1     -42.244  59.717 -56.502  1.00  0.00     0.004 C 
HETATM   25  C   UNL     1     -43.141  55.303 -58.264  1.00  0.00     0.055 C 
ENDBRANCH  12  16
ENDBRANCH   8  10
TORSDOF 2
ENDMDL
MODEL 3
REMARK VINA RESULT:      -7.9      1.657      2.566
REMARK  2 active torsions:
REMARK  status: ('A' for Active; 'I' for Inactive)
REMARK    1  A    between atoms: C_8  and  N_9 
REMARK       I    between atoms: N_9  and  C_10 
REMARK       I    between atoms: C_10  and  N_11 
REMARK    2  A    between atoms: N_11  and  C_12 
ROOT
HETATM    1  C   UNL     1     -39.841  52.062 -53.771  1.00  0.00     0.044 A 
HETATM    2  C   UNL     1     -39.941  52.346 -52.419  1.00  0.00     0.117 A 
HETATM    3  F   UNL     1     -39.557  51.429 -51.522  1.00  0.00    -0.206 F 
HETATM    4  C   UNL     1     -40.461  53.556 -51.982  1.00  0.00     0.067 A 
HETATM    5  C   UNL     1     -40.887  54.522 -52.910  1.00  0.00     0.074 A 
HETATM    6  C   UNL     1     -41.543  55.681 -52.377  1.00  0.00     0.102 C 
HETATM    7  N   UNL     1     -42.097  56.604 -51.941  1.00  0.00    -0.191 NA
HETATM    8  C   UNL     1     -40.760  54.263 -54.292  1.00  0.00     0.057 A 
HETATM    9  C   UNL     1     -40.255  53.015 -54.704  1.00  0.00     0.034 A 
ENDROOT
BRANCH   8  10
HETATM   10  N   UNL     1     -41.162  55.127 -55.343  1.00  0.00    -0.308 N 
HETATM   11  C   UNL     1     -42.310  55.047 -56.089  1.00  0.00     0.321 C 
HETATM   12  N   UNL     1     -42.251  55.872 -57.187  1.00  0.00    -0.336 N 
HETATM   13  O   UNL     1     -43.293  54.355 -55.861  1.00  0.00    -0.247 OA
HETATM   14  H   UNL     1     -41.320  56.166 -57.461  1.00  0.00     0.164 HD
HETATM   15  H   UNL     1     -40.745  56.050 -55.336  1.00  0.00     0.170 HD
BRANCH  12  16
HETATM   16  C   UNL     1     -43.309  55.992 -58.194  1.00  0.00     0.118 C 
HETATM   17  C   UNL     1     -44.136  57.293 -58.176  1.00  0.00     0.210 C 
HETATM   18  N   UNL     1     -43.341  58.210 -59.059  1.00  0.00    -0.065 N 
HETATM   19  C   UNL     1     -44.403  57.984 -56.849  1.00  0.00     0.035 C 
HETATM   20  H   UNL     1     -42.459  58.440 -58.544  1.00  0.00     0.280 HD
HETATM   21  C   UNL     1     -44.037  59.486 -59.387  1.00  0.00     0.235 C 
HETATM   22  C   UNL     1     -42.908  57.357 -60.213  1.00  0.00     0.237 C 
HETATM   23  C   UNL     1     -44.384  60.208 -58.090  1.00  0.00     0.028 C 
HETATM   24  C   UNL     1     -45.122  59.317 -57.086  1.00  0.00     0.004 C 
HETATM   25  C   UNL     1     -42.759  55.949 -59.630  1.00  0.00     0.055 C 
ENDBRANCH  12  16
ENDBRANCH   8  10
TORSDOF 2
ENDMDL
MODEL 4
REMARK VINA RESULT:      -7.8      3.697      5.256
REMARK  2 active torsions:
REMARK  status: ('A' for Active; 'I' for Inactive)
REMARK    1  A    between atoms: C_8  and  N_9 
REMARK       I    between atoms: N_9  and  C_10 
REMARK       I    between atoms: C_10  and  N_11 
REMARK    2  A    between atoms: N_11  and  C_12 
ROOT
HETATM    1  C   UNL     1     -40.233  51.203 -54.337  1.00  0.00     0.044 A 
HETATM    2  C   UNL     1     -39.613  50.641 -53.233  1.00  0.00     0.117 A 
HETATM    3  F   UNL     1     -39.155  49.385 -53.301  1.00  0.00    -0.206 F 
HETATM    4  C   UNL     1     -39.485  51.354 -52.048  1.00  0.00     0.067 A 
HETATM    5  C   UNL     1     -39.977  52.667 -51.954  1.00  0.00     0.074 A 
HETATM    6  C   UNL     1     -39.935  53.278 -50.656  1.00  0.00     0.102 C 
HETATM    7  N   UNL     1     -39.923  53.756 -49.598  1.00  0.00    -0.191 NA
HETATM    8  C   UNL     1     -40.582  53.267 -53.079  1.00  0.00     0.057 A 
HETATM    9  C   UNL     1     -40.722  52.508 -54.258  1.00  0.00     0.034 A 
ENDROOT
BRANCH   8  10
HETATM   10  N   UNL     1     -41.142  54.569 -53.131  1.00  0.00    -0.308 N 
HETATM   11  C   UNL     1     -42.415  54.940 -52.785  1.00  0.00     0.321 C 
HETATM   12  N   UNL     1     -42.699  56.216 -53.210  1.00  0.00    -0.336 N 
HETATM   13  O   UNL     1     -43.239  54.271 -52.175  1.00  0.00    -0.247 OA
HETATM   14  H   UNL     1     -42.099  56.573 -53.945  1.00  0.00     0.164 HD
HETATM   15  H   UNL     1     -40.477  55.333 -53.113  1.00  0.00     0.170 HD
BRANCH  12  16
HETATM   16  C   UNL     1     -43.986  56.889 -53.016  1.00  0.00     0.118 C 
HETATM   17  C   UNL     1     -43.944  58.292 -52.379  1.00  0.00     0.210 C 
HETATM   18  N   UNL     1     -43.772  59.196 -53.566  1.00  0.00    -0.065 N 
HETATM   19  C   UNL     1     -42.870  58.608 -51.350  1.00  0.00     0.035 C 
HETATM   20  H   UNL     1     -42.805  59.034 -53.934  1.00  0.00     0.280 HD
HETATM   21  C   UNL     1     -43.913  60.645 -53.247  1.00  0.00     0.235 C 
HETATM   22  C   UNL     1     -44.688  58.638 -54.613  1.00  0.00     0.237 C 
HETATM   23  C   UNL     1     -42.896  61.018 -52.175  1.00  0.00     0.028 C 
HETATM   24  C   UNL     1     -42.939  60.088 -50.959  1.00  0.00     0.004 C 
HETATM   25  C   UNL     1     -44.725  57.131 -54.344  1.00  0.00     0.055 C 
ENDBRANCH  12  16
ENDBRANCH   8  10
TORSDOF 2
ENDMDL
MODEL 5
REMARK VINA RESULT:      -7.8      1.292      2.287
REMARK  2 active torsions:
REMARK  status: ('A' for Active; 'I' for Inactive)
REMARK    1  A    between atoms: C_8  and  N_9 
REMARK       I    between atoms: N_9  and  C_10 
REMARK       I    between atoms: C_10  and  N_11 
REMARK    2  A    between atoms: N_11  and  C_12 
ROOT
HETATM    1  C   UNL     1     -42.928  55.157 -50.734  1.00  0.00     0.044 A 
HETATM    2  C   UNL     1     -41.950  54.250 -50.359  1.00  0.00     0.117 A 
HETATM    3  F   UNL     1     -41.608  54.143 -49.070  1.00  0.00    -0.206 F 
HETATM    4  C   UNL     1     -41.301  53.471 -51.307  1.00  0.00     0.067 A 
HETATM    5  C   UNL     1     -41.634  53.584 -52.668  1.00  0.00     0.074 A 
HETATM    6  C   UNL     1     -40.819  52.852 -53.594  1.00  0.00     0.102 C 
HETATM    7  N   UNL     1     -40.137  52.279 -54.339  1.00  0.00    -0.191 NA
HETATM    8  C   UNL     1     -42.652  54.479 -53.063  1.00  0.00     0.057 A 
HETATM    9  C   UNL     1     -43.273  55.275 -52.081  1.00  0.00     0.034 A 
ENDROOT
BRANCH   8  10
HETATM   10  N   UNL     1     -43.084  54.717 -54.394  1.00  0.00    -0.308 N 
HETATM   11  C   UNL     1     -42.576  55.631 -55.280  1.00  0.00     0.321 C 
HETATM   12  N   UNL     1     -43.397  55.779 -56.372  1.00  0.00    -0.336 N 
HETATM   13  O   UNL     1     -41.533  56.263 -55.173  1.00  0.00    -0.247 OA
HETATM   14  H   UNL     1     -44.352  55.464 -56.245  1.00  0.00     0.164 HD
HETATM   15  H   UNL     1     -43.580  53.953 -54.837  1.00  0.00     0.170 HD
BRANCH  12  16
HETATM   16  C   UNL     1     -43.143  56.702 -57.482  1.00  0.00     0.118 C 
HETATM   17  C   UNL     1     -43.827  56.373 -58.824  1.00  0.00     0.210 C 
HETATM   18  N   UNL     1     -45.158  57.057 -58.701  1.00  0.00    -0.065 N 
HETATM   19  C   UNL     1     -44.046  54.919 -59.209  1.00  0.00     0.035 C 
HETATM   20  H   UNL     1     -45.705  56.530 -57.980  1.00  0.00     0.280 HD
HETATM   21  C   UNL     1     -45.948  57.074 -59.965  1.00  0.00     0.235 C 
HETATM   22  C   UNL     1     -44.855  58.383 -58.071  1.00  0.00     0.237 C 
HETATM   23  C   UNL     1     -46.157  55.641 -60.438  1.00  0.00     0.028 C 
HETATM   24  C   UNL     1     -44.856  54.836 -60.508  1.00  0.00     0.004 C 
HETATM   25  C   UNL     1     -43.635  58.128 -57.181  1.00  0.00     0.055 C 
ENDBRANCH  12  16
ENDBRANCH   8  10
TORSDOF 2
ENDMDL
MODEL 6
REMARK VINA RESULT:      -7.7      4.713      6.103
REMARK  2 active torsions:
REMARK  status: ('A' for Active; 'I' for Inactive)
REMARK    1  A    between atoms: C_8  and  N_9 
REMARK       I    between atoms: N_9  and  C_10 
REMARK       I    between atoms: C_10  and  N_11 
REMARK    2  A    between atoms: N_11  and  C_12 
ROOT
HETATM    1  C   UNL     1     -40.672  52.200 -54.332  1.00  0.00     0.044 A 
HETATM    2  C   UNL     1     -39.814  51.553 -53.459  1.00  0.00     0.117 A 
HETATM    3  F   UNL     1     -39.207  50.424 -53.845  1.00  0.00    -0.206 F 
HETATM    4  C   UNL     1     -39.595  52.044 -52.179  1.00  0.00     0.067 A 
HETATM    5  C   UNL     1     -40.239  53.218 -51.751  1.00  0.00     0.074 A 
HETATM    6  C   UNL     1     -40.073  53.577 -50.371  1.00  0.00     0.102 C 
HETATM    7  N   UNL     1     -39.956  53.845 -49.248  1.00  0.00    -0.191 NA
HETATM    8  C   UNL     1     -41.091  53.909 -52.639  1.00  0.00     0.057 A 
HETATM    9  C   UNL     1     -41.313  53.370 -53.921  1.00  0.00     0.034 A 
ENDROOT
BRANCH   8  10
HETATM   10  N   UNL     1     -41.822  55.089 -52.346  1.00  0.00    -0.308 N 
HETATM   11  C   UNL     1     -41.557  56.360 -52.788  1.00  0.00     0.321 C 
HETATM   12  N   UNL     1     -42.299  57.292 -52.101  1.00  0.00    -0.336 N 
HETATM   13  O   UNL     1     -40.778  56.687 -53.673  1.00  0.00    -0.247 OA
HETATM   14  H   UNL     1     -42.674  56.981 -51.213  1.00  0.00     0.164 HD
HETATM   15  H   UNL     1     -42.784  54.950 -52.062  1.00  0.00     0.170 HD
BRANCH  12  16
HETATM   16  C   UNL     1     -42.221  58.739 -52.321  1.00  0.00     0.118 C 
HETATM   17  C   UNL     1     -43.460  59.566 -51.922  1.00  0.00     0.210 C 
HETATM   18  N   UNL     1     -43.203  59.880 -50.476  1.00  0.00    -0.065 N 
HETATM   19  C   UNL     1     -44.842  58.948 -52.061  1.00  0.00     0.035 C 
HETATM   20  H   UNL     1     -43.294  58.981 -49.948  1.00  0.00     0.280 HD
HETATM   21  C   UNL     1     -44.160  60.862 -49.893  1.00  0.00     0.235 C 
HETATM   22  C   UNL     1     -41.747  60.229 -50.408  1.00  0.00     0.237 C 
HETATM   23  C   UNL     1     -45.579  60.326 -50.050  1.00  0.00     0.028 C 
HETATM   24  C   UNL     1     -45.900  59.894 -51.484  1.00  0.00     0.004 C 
HETATM   25  C   UNL     1     -41.089  59.394 -51.511  1.00  0.00     0.055 C 
ENDBRANCH  12  16
ENDBRANCH   8  10
TORSDOF 2
ENDMDL
MODEL 7
REMARK VINA RESULT:      -7.6      3.921      6.047
REMARK  2 active torsions:
REMARK  status: ('A' for Active; 'I' for Inactive)
REMARK    1  A    between atoms: C_8  and  N_9 
REMARK       I    between atoms: N_9  and  C_10 
REMARK       I    between atoms: C_10  and  N_11 
REMARK    2  A    between atoms: N_11  and  C_12 
ROOT
HETATM    1  C   UNL     1     -39.429  51.698 -52.357  1.00  0.00     0.044 A 
HETATM    2  C   UNL     1     -39.846  51.110 -53.540  1.00  0.00     0.117 A 
HETATM    3  F   UNL     1     -39.299  49.952 -53.930  1.00  0.00    -0.206 F 
HETATM    4  C   UNL     1     -40.803  51.720 -54.340  1.00  0.00     0.067 A 
HETATM    5  C   UNL     1     -41.373  52.945 -53.955  1.00  0.00     0.074 A 
HETATM    6  C   UNL     1     -42.244  53.577 -54.904  1.00  0.00     0.102 C 
HETATM    7  N   UNL     1     -42.926  54.095 -55.688  1.00  0.00    -0.191 NA
HETATM    8  C   UNL     1     -40.985  53.541 -52.735  1.00  0.00     0.057 A 
HETATM    9  C   UNL     1     -39.992  52.912 -51.960  1.00  0.00     0.034 A 
ENDROOT
BRANCH   8  10
HETATM   10  N   UNL     1     -41.454  54.779 -52.225  1.00  0.00    -0.308 N 
HETATM   11  C   UNL     1     -41.206  56.031 -52.726  1.00  0.00     0.321 C 
HETATM   12  N   UNL     1     -41.588  57.009 -51.839  1.00  0.00    -0.336 N 
HETATM   13  O   UNL     1     -40.716  56.308 -53.813  1.00  0.00    -0.247 OA
HETATM   14  H   UNL     1     -41.695  56.707 -50.878  1.00  0.00     0.164 HD
HETATM   15  H   UNL     1     -42.286  54.729 -51.649  1.00  0.00     0.170 HD
BRANCH  12  16
HETATM   16  C   UNL     1     -41.428  58.447 -52.071  1.00  0.00     0.118 C 
HETATM   17  C   UNL     1     -42.704  59.308 -51.979  1.00  0.00     0.210 C 
HETATM   18  N   UNL     1     -42.769  59.659 -50.521  1.00  0.00    -0.065 N 
HETATM   19  C   UNL     1     -44.034  58.712 -52.410  1.00  0.00     0.035 C 
HETATM   20  H   UNL     1     -42.998  58.777 -50.005  1.00  0.00     0.280 HD
HETATM   21  C   UNL     1     -43.808  60.675 -50.191  1.00  0.00     0.235 C 
HETATM   22  C   UNL     1     -41.357  59.983 -50.137  1.00  0.00     0.237 C 
HETATM   23  C   UNL     1     -45.168  60.161 -50.649  1.00  0.00     0.028 C 
HETATM   24  C   UNL     1     -45.172  59.693 -52.107  1.00  0.00     0.004 C 
HETATM   25  C   UNL     1     -40.490  59.105 -51.044  1.00  0.00     0.055 C 
ENDBRANCH  12  16
ENDBRANCH   8  10
TORSDOF 2
ENDMDL
MODEL 8
REMARK VINA RESULT:      -7.1      2.388      3.859
REMARK  2 active torsions:
REMARK  status: ('A' for Active; 'I' for Inactive)
REMARK    1  A    between atoms: C_8  and  N_9 
REMARK       I    between atoms: N_9  and  C_10 
REMARK       I    between atoms: C_10  and  N_11 
REMARK    2  A    between atoms: N_11  and  C_12 
ROOT
HETATM    1  C   UNL     1     -41.020  54.961 -49.689  1.00  0.00     0.044 A 
HETATM    2  C   UNL     1     -40.707  53.616 -49.585  1.00  0.00     0.117 A 
HETATM    3  F   UNL     1     -40.560  53.064 -48.374  1.00  0.00    -0.206 F 
HETATM    4  C   UNL     1     -40.516  52.839 -50.720  1.00  0.00     0.067 A 
HETATM    5  C   UNL     1     -40.648  53.407 -51.998  1.00  0.00     0.074 A 
HETATM    6  C   UNL     1     -40.293  52.576 -53.112  1.00  0.00     0.102 C 
HETATM    7  N   UNL     1     -39.979  51.905 -54.007  1.00  0.00    -0.191 NA
HETATM    8  C   UNL     1     -40.999  54.769 -52.123  1.00  0.00     0.057 A 
HETATM    9  C   UNL     1     -41.159  55.537 -50.953  1.00  0.00     0.034 A 
ENDROOT
BRANCH   8  10
HETATM   10  N   UNL     1     -41.148  55.485 -53.338  1.00  0.00    -0.308 N 
HETATM   11  C   UNL     1     -42.316  55.755 -54.004  1.00  0.00     0.321 C 
HETATM   12  N   UNL     1     -42.071  56.229 -55.271  1.00  0.00    -0.336 N 
HETATM   13  O   UNL     1     -43.457  55.618 -53.581  1.00  0.00    -0.247 OA
HETATM   14  H   UNL     1     -41.148  56.031 -55.639  1.00  0.00     0.164 HD
HETATM   15  H   UNL     1     -40.392  56.118 -53.570  1.00  0.00     0.170 HD
BRANCH  12  16
HETATM   16  C   UNL     1     -43.112  56.583 -56.240  1.00  0.00     0.118 C 
HETATM   17  C   UNL     1     -43.023  57.988 -56.868  1.00  0.00     0.210 C 
HETATM   18  N   UNL     1     -42.138  57.770 -58.060  1.00  0.00    -0.065 N 
HETATM   19  C   UNL     1     -42.472  59.138 -56.039  1.00  0.00     0.035 C 
HETATM   20  H   UNL     1     -41.176  57.574 -57.694  1.00  0.00     0.280 HD
HETATM   21  C   UNL     1     -42.057  58.943 -58.976  1.00  0.00     0.235 C 
HETATM   22  C   UNL     1     -42.602  56.475 -58.655  1.00  0.00     0.237 C 
HETATM   23  C   UNL     1     -41.560  60.151 -58.191  1.00  0.00     0.028 C 
HETATM   24  C   UNL     1     -42.353  60.398 -56.904  1.00  0.00     0.004 C 
HETATM   25  C   UNL     1     -43.110  55.653 -57.467  1.00  0.00     0.055 C 
ENDBRANCH  12  16
ENDBRANCH   8  10
TORSDOF 2
ENDMDL
MODEL 9
REMARK VINA RESULT:      -7.1      3.894      7.949
REMARK  2 active torsions:
REMARK  status: ('A' for Active; 'I' for Inactive)
REMARK    1  A    between atoms: C_8  and  N_9 
REMARK       I    between atoms: N_9  and  C_10 
REMARK       I    between atoms: C_10  and  N_11 
REMARK    2  A    between atoms: N_11  and  C_12 
ROOT
HETATM    1  C   UNL     1     -41.666  60.908 -58.890  1.00  0.00     0.044 A 
HETATM    2  C   UNL     1     -42.107  60.737 -60.192  1.00  0.00     0.117 A 
HETATM    3  F   UNL     1     -42.177  61.795 -61.009  1.00  0.00    -0.206 F 
HETATM    4  C   UNL     1     -42.503  59.488 -60.652  1.00  0.00     0.067 A 
HETATM    5  C   UNL     1     -42.453  58.371 -59.802  1.00  0.00     0.074 A 
HETATM    6  C   UNL     1     -43.014  57.151 -60.308  1.00  0.00     0.102 C 
HETATM    7  N   UNL     1     -43.495  56.175 -60.714  1.00  0.00    -0.191 NA
HETATM    8  C   UNL     1     -41.974  58.520 -58.482  1.00  0.00     0.057 A 
HETATM    9  C   UNL     1     -41.606  59.804 -58.037  1.00  0.00     0.034 A 
ENDROOT
BRANCH   8  10
HETATM   10  N   UNL     1     -41.884  57.495 -57.505  1.00  0.00    -0.308 N 
HETATM   11  C   UNL     1     -42.902  56.984 -56.743  1.00  0.00     0.321 C 
HETATM   12  N   UNL     1     -42.418  56.202 -55.721  1.00  0.00    -0.336 N 
HETATM   13  O   UNL     1     -44.104  57.161 -56.900  1.00  0.00    -0.247 OA
HETATM   14  H   UNL     1     -41.444  56.350 -55.484  1.00  0.00     0.164 HD
HETATM   15  H   UNL     1     -41.092  56.870 -57.597  1.00  0.00     0.170 HD
BRANCH  12  16
HETATM   16  C   UNL     1     -43.254  55.537 -54.718  1.00  0.00     0.118 C 
HETATM   17  C   UNL     1     -42.584  54.424 -53.888  1.00  0.00     0.210 C 
HETATM   18  N   UNL     1     -41.985  55.177 -52.735  1.00  0.00    -0.065 N 
HETATM   19  C   UNL     1     -41.511  53.561 -54.533  1.00  0.00     0.035 C 
HETATM   20  H   UNL     1     -41.193  55.744 -53.120  1.00  0.00     0.280 HD
HETATM   21  C   UNL     1     -41.449  54.301 -51.655  1.00  0.00     0.235 C 
HETATM   22  C   UNL     1     -43.029  56.177 -52.342  1.00  0.00     0.237 C 
HETATM   23  C   UNL     1     -40.401  53.366 -52.248  1.00  0.00     0.028 C 
HETATM   24  C   UNL     1     -40.898  52.620 -53.491  1.00  0.00     0.004 C 
HETATM   25  C   UNL     1     -43.765  56.513 -53.643  1.00  0.00     0.055 C 
ENDBRANCH  12  16
ENDBRANCH   8  10
TORSDOF 2
ENDMDL
MODEL 10
REMARK VINA RESULT:      -7.0      3.748      5.449
REMARK  2 active torsions:
REMARK  status: ('A' for Active; 'I' for Inactive)
REMARK    1  A    between atoms: C_8  and  N_9 
REMARK       I    between atoms: N_9  and  C_10 
REMARK       I    between atoms: C_10  and  N_11 
REMARK    2  A    between atoms: N_11  and  C_12 
ROOT
HETATM    1  C   UNL     1     -40.250  52.157 -50.377  1.00  0.00     0.044 A 
HETATM    2  C   UNL     1     -39.751  51.392 -51.419  1.00  0.00     0.117 A 
HETATM    3  F   UNL     1     -39.193  50.204 -51.156  1.00  0.00    -0.206 F 
HETATM    4  C   UNL     1     -39.797  51.854 -52.727  1.00  0.00     0.067 A 
HETATM    5  C   UNL     1     -40.362  53.107 -53.018  1.00  0.00     0.074 A 
HETATM    6  C   UNL     1     -40.239  53.571 -54.370  1.00  0.00     0.102 C 
HETATM    7  N   UNL     1     -40.111  53.951 -55.460  1.00  0.00    -0.191 NA
HETATM    8  C   UNL     1     -40.906  53.885 -51.973  1.00  0.00     0.057 A 
HETATM    9  C   UNL     1     -40.820  53.402 -50.653  1.00  0.00     0.034 A 
ENDROOT
BRANCH   8  10
HETATM   10  N   UNL     1     -41.488  55.172 -52.107  1.00  0.00    -0.308 N 
HETATM   11  C   UNL     1     -42.676  55.486 -52.716  1.00  0.00     0.321 C 
HETATM   12  N   UNL     1     -42.801  56.842 -52.898  1.00  0.00    -0.336 N 
HETATM   13  O   UNL     1     -43.552  54.708 -53.071  1.00  0.00    -0.247 OA
HETATM   14  H   UNL     1     -41.936  57.369 -52.859  1.00  0.00     0.164 HD
HETATM   15  H   UNL     1     -41.180  55.865 -51.435  1.00  0.00     0.170 HD
BRANCH  12  16
HETATM   16  C   UNL     1     -43.945  57.490 -53.546  1.00  0.00     0.118 C 
HETATM   17  C   UNL     1     -44.793  58.433 -52.669  1.00  0.00     0.210 C 
HETATM   18  N   UNL     1     -44.095  59.754 -52.822  1.00  0.00    -0.065 N 
HETATM   19  C   UNL     1     -44.958  58.123 -51.190  1.00  0.00     0.035 C 
HETATM   20  H   UNL     1     -43.177  59.672 -52.326  1.00  0.00     0.280 HD
HETATM   21  C   UNL     1     -44.842  60.903 -52.236  1.00  0.00     0.235 C 
HETATM   22  C   UNL     1     -43.748  59.842 -54.277  1.00  0.00     0.237 C 
HETATM   23  C   UNL     1     -45.090  60.630 -50.757  1.00  0.00     0.028 C 
HETATM   24  C   UNL     1     -45.721  59.258 -50.498  1.00  0.00     0.004 C 
HETATM   25  C   UNL     1     -43.520  58.393 -54.718  1.00  0.00     0.055 C 
ENDBRANCH  12  16
ENDBRANCH   8  10
TORSDOF 2
ENDMDL
