MODEL 1
REMARK VINA RESULT:      -8.5      0.000      0.000
REMARK  4 active torsions:
REMARK  status: ('A' for Active; 'I' for Inactive)
REMARK    1  A    between atoms: C_5  and  C_6 
REMARK    2  A    between atoms: C_6  and  N_7 
REMARK    3  A    between atoms: C_13  and  C_14 
REMARK    4  A    between atoms: C_14  and  N_15 
ROOT
HETATM    1  N   UNL     1     -40.573  54.315 -51.422  1.00  0.00    -0.060 N 
HETATM    2  H   UNL     1     -39.935  55.030 -51.783  1.00  0.00     0.280 HD
HETATM    3  C   UNL     1     -41.519  53.941 -52.559  1.00  0.00     0.274 C 
HETATM    4  C   UNL     1     -40.785  53.771 -53.929  1.00  0.00     0.092 C 
HETATM    5  C   UNL     1     -41.694  53.056 -54.961  1.00  0.00     0.041 C 
HETATM    6  C   UNL     1     -42.851  53.914 -55.475  1.00  0.00     0.009 C 
HETATM    7  C   UNL     1     -42.356  55.227 -56.107  1.00  0.00     0.012 C 
HETATM    8  C   UNL     1     -41.514  55.994 -55.076  1.00  0.00     0.009 C 
HETATM    9  C   UNL     1     -40.364  55.140 -54.527  1.00  0.00     0.041 C 
HETATM   10  O   UNL     1     -39.538  53.039 -53.799  1.00  0.00    -0.338 OA
HETATM   11  C   UNL     1     -39.644  51.870 -53.097  1.00  0.00     0.077 A 
HETATM   12  C   UNL     1     -39.722  51.902 -51.703  1.00  0.00     0.001 A 
HETATM   13  C   UNL     1     -39.632  53.203 -50.967  1.00  0.00     0.276 C 
HETATM   14  C   UNL     1     -39.605  50.664 -53.791  1.00  0.00     0.037 A 
HETATM   15  C   UNL     1     -39.706  49.464 -53.090  1.00  0.00     0.003 A 
HETATM   16  C   UNL     1     -39.820  49.476 -51.701  1.00  0.00     0.001 A 
HETATM   17  C   UNL     1     -39.816  50.688 -51.007  1.00  0.00     0.012 A 
ENDROOT
BRANCH   1  18
HETATM   18  C   UNL     1     -41.287  54.968 -50.253  1.00  0.00     0.276 C 
BRANCH  18  19
HETATM   19  C   UNL     1     -42.158  56.111 -50.616  1.00  0.00     0.004 A 
HETATM   20  C   UNL     1     -41.740  57.425 -50.933  1.00  0.00     0.149 A 
HETATM   21  N   UNL     1     -42.752  58.214 -51.276  1.00  0.00    -0.185 NA
HETATM   22  N   UNL     1     -43.843  57.451 -51.101  1.00  0.00    -0.285 N 
HETATM   23  C   UNL     1     -45.158  58.010 -51.308  1.00  0.00     0.179 C 
HETATM   24  C   UNL     1     -43.536  56.171 -50.722  1.00  0.00     0.122 A 
ENDBRANCH  18  19
ENDBRANCH   1  18
BRANCH   7  25
HETATM   25  C   UNL     1     -43.564  56.027 -56.642  1.00  0.00     0.238 C 
BRANCH  25  26
HETATM   26  N   UNL     1     -43.377  56.532 -58.056  1.00  0.00    -0.078 N 
HETATM   27  H   UNL     1     -42.418  56.880 -58.170  1.00  0.00     0.278 HD
HETATM   28  C   UNL     1     -43.595  55.479 -59.116  1.00  0.00     0.269 C 
HETATM   29  C   UNL     1     -44.272  57.726 -58.323  1.00  0.00     0.269 C 
ENDBRANCH  25  26
ENDBRANCH   7  25
TORSDOF 4
ENDMDL
MODEL 2
REMARK VINA RESULT:      -7.7      2.212      6.564
REMARK  4 active torsions:
REMARK  status: ('A' for Active; 'I' for Inactive)
REMARK    1  A    between atoms: C_5  and  C_6 
REMARK    2  A    between atoms: C_6  and  N_7 
REMARK    3  A    between atoms: C_13  and  C_14 
REMARK    4  A    between atoms: C_14  and  N_15 
ROOT
HETATM    1  N   UNL     1     -42.770  56.055 -55.521  1.00  0.00    -0.060 N 
HETATM    2  H   UNL     1     -43.791  56.088 -55.453  1.00  0.00     0.280 HD
HETATM    3  C   UNL     1     -42.212  56.767 -54.293  1.00  0.00     0.274 C 
HETATM    4  C   UNL     1     -42.959  56.379 -52.975  1.00  0.00     0.092 C 
HETATM    5  C   UNL     1     -42.156  56.830 -51.729  1.00  0.00     0.041 C 
HETATM    6  C   UNL     1     -42.151  58.342 -51.501  1.00  0.00     0.009 C 
HETATM    7  C   UNL     1     -43.577  58.909 -51.379  1.00  0.00     0.012 C 
HETATM    8  C   UNL     1     -44.373  58.541 -52.640  1.00  0.00     0.009 C 
HETATM    9  C   UNL     1     -44.366  57.030 -52.901  1.00  0.00     0.041 C 
HETATM   10  O   UNL     1     -43.219  54.953 -52.889  1.00  0.00    -0.338 OA
HETATM   11  C   UNL     1     -42.129  54.168 -53.140  1.00  0.00     0.077 A 
HETATM   12  C   UNL     1     -41.706  53.968 -54.456  1.00  0.00     0.001 A 
HETATM   13  C   UNL     1     -42.472  54.560 -55.598  1.00  0.00     0.276 C 
HETATM   14  C   UNL     1     -41.502  53.528 -52.074  1.00  0.00     0.037 A 
HETATM   15  C   UNL     1     -40.393  52.719 -52.315  1.00  0.00     0.003 A 
HETATM   16  C   UNL     1     -39.934  52.534 -53.618  1.00  0.00     0.001 A 
HETATM   17  C   UNL     1     -40.593  53.146 -54.687  1.00  0.00     0.012 A 
ENDROOT
BRANCH   1  18
HETATM   18  C   UNL     1     -42.434  56.768 -56.818  1.00  0.00     0.276 C 
BRANCH  18  19
HETATM   19  C   UNL     1     -43.423  56.582 -57.906  1.00  0.00     0.004 A 
HETATM   20  C   UNL     1     -44.556  57.390 -58.165  1.00  0.00     0.149 A 
HETATM   21  N   UNL     1     -45.220  57.004 -59.249  1.00  0.00    -0.185 NA
HETATM   22  N   UNL     1     -44.581  55.895 -59.654  1.00  0.00    -0.285 N 
HETATM   23  C   UNL     1     -45.078  55.145 -60.784  1.00  0.00     0.179 C 
HETATM   24  C   UNL     1     -43.481  55.610 -58.889  1.00  0.00     0.122 A 
ENDBRANCH  18  19
ENDBRANCH   1  18
BRANCH   7  25
HETATM   25  C   UNL     1     -43.504  60.428 -51.111  1.00  0.00     0.238 C 
BRANCH  25  26
HETATM   26  N   UNL     1     -44.045  60.830 -49.755  1.00  0.00    -0.078 N 
HETATM   27  H   UNL     1     -43.509  60.355 -49.020  1.00  0.00     0.278 HD
HETATM   28  C   UNL     1     -43.961  62.312 -49.477  1.00  0.00     0.269 C 
HETATM   29  C   UNL     1     -45.473  60.352 -49.584  1.00  0.00     0.269 C 
ENDBRANCH  25  26
ENDBRANCH   7  25
TORSDOF 4
ENDMDL
MODEL 3
REMARK VINA RESULT:      -7.7      2.280      7.208
REMARK  4 active torsions:
REMARK  status: ('A' for Active; 'I' for Inactive)
REMARK    1  A    between atoms: C_5  and  C_6 
REMARK    2  A    between atoms: C_6  and  N_7 
REMARK    3  A    between atoms: C_13  and  C_14 
REMARK    4  A    between atoms: C_14  and  N_15 
ROOT
HETATM    1  N   UNL     1     -42.755  58.092 -54.963  1.00  0.00    -0.060 N 
HETATM    2  H   UNL     1     -42.005  58.000 -55.653  1.00  0.00     0.280 HD
HETATM    3  C   UNL     1     -42.605  56.939 -53.976  1.00  0.00     0.274 C 
HETATM    4  C   UNL     1     -41.121  56.696 -53.547  1.00  0.00     0.092 C 
HETATM    5  C   UNL     1     -41.046  55.777 -52.302  1.00  0.00     0.041 C 
HETATM    6  C   UNL     1     -41.401  54.315 -52.580  1.00  0.00     0.009 C 
HETATM    7  C   UNL     1     -40.508  53.706 -53.674  1.00  0.00     0.012 C 
HETATM    8  C   UNL     1     -40.623  54.555 -54.948  1.00  0.00     0.009 C 
HETATM    9  C   UNL     1     -40.298  56.031 -54.684  1.00  0.00     0.041 C 
HETATM   10  O   UNL     1     -40.417  57.935 -53.274  1.00  0.00    -0.338 OA
HETATM   11  C   UNL     1     -41.084  58.787 -52.439  1.00  0.00     0.077 A 
HETATM   12  C   UNL     1     -42.148  59.549 -52.930  1.00  0.00     0.001 A 
HETATM   13  C   UNL     1     -42.524  59.482 -54.377  1.00  0.00     0.276 C 
HETATM   14  C   UNL     1     -40.643  58.924 -51.126  1.00  0.00     0.037 A 
HETATM   15  C   UNL     1     -41.310  59.793 -50.264  1.00  0.00     0.003 A 
HETATM   16  C   UNL     1     -42.394  60.537 -50.725  1.00  0.00     0.001 A 
HETATM   17  C   UNL     1     -42.806  60.426 -52.055  1.00  0.00     0.012 A 
ENDROOT
BRANCH   1  18
HETATM   18  C   UNL     1     -44.044  58.020 -55.761  1.00  0.00     0.276 C 
BRANCH  18  19
HETATM   19  C   UNL     1     -43.936  57.303 -57.054  1.00  0.00     0.004 A 
HETATM   20  C   UNL     1     -43.056  56.238 -57.358  1.00  0.00     0.149 A 
HETATM   21  N   UNL     1     -43.238  55.761 -58.585  1.00  0.00    -0.185 NA
HETATM   22  N   UNL     1     -44.171  56.565 -59.120  1.00  0.00    -0.285 N 
HETATM   23  C   UNL     1     -44.573  56.392 -60.496  1.00  0.00     0.179 C 
HETATM   24  C   UNL     1     -44.636  57.497 -58.231  1.00  0.00     0.122 A 
ENDBRANCH  18  19
ENDBRANCH   1  18
BRANCH   7  25
HETATM   25  C   UNL     1     -40.887  52.223 -53.880  1.00  0.00     0.238 C 
BRANCH  25  26
HETATM   26  N   UNL     1     -39.753  51.262 -53.590  1.00  0.00    -0.078 N 
HETATM   27  H   UNL     1     -38.878  51.644 -53.968  1.00  0.00     0.278 HD
HETATM   28  C   UNL     1     -39.526  51.008 -52.120  1.00  0.00     0.269 C 
HETATM   29  C   UNL     1     -39.964  49.949 -54.315  1.00  0.00     0.269 C 
ENDBRANCH  25  26
ENDBRANCH   7  25
TORSDOF 4
ENDMDL
MODEL 4
REMARK VINA RESULT:      -7.6      2.120      3.521
REMARK  4 active torsions:
REMARK  status: ('A' for Active; 'I' for Inactive)
REMARK    1  A    between atoms: C_5  and  C_6 
REMARK    2  A    between atoms: C_6  and  N_7 
REMARK    3  A    between atoms: C_13  and  C_14 
REMARK    4  A    between atoms: C_14  and  N_15 
ROOT
HETATM    1  N   UNL     1     -42.988  56.727 -52.938  1.00  0.00    -0.060 N 
HETATM    2  H   UNL     1     -42.579  57.658 -53.055  1.00  0.00     0.280 HD
HETATM    3  C   UNL     1     -43.391  56.234 -54.323  1.00  0.00     0.274 C 
HETATM    4  C   UNL     1     -42.305  56.522 -55.411  1.00  0.00     0.092 C 
HETATM    5  C   UNL     1     -42.581  55.709 -56.701  1.00  0.00     0.041 C 
HETATM    6  C   UNL     1     -43.785  56.201 -57.506  1.00  0.00     0.009 C 
HETATM    7  C   UNL     1     -43.647  57.682 -57.898  1.00  0.00     0.012 C 
HETATM    8  C   UNL     1     -43.449  58.522 -56.628  1.00  0.00     0.009 C 
HETATM    9  C   UNL     1     -42.262  58.026 -55.792  1.00  0.00     0.041 C 
HETATM   10  O   UNL     1     -40.963  56.235 -54.939  1.00  0.00    -0.338 OA
HETATM   11  C   UNL     1     -40.825  55.006 -54.355  1.00  0.00     0.077 A 
HETATM   12  C   UNL     1     -41.282  54.803 -53.050  1.00  0.00     0.001 A 
HETATM   13  C   UNL     1     -41.869  55.935 -52.266  1.00  0.00     0.276 C 
HETATM   14  C   UNL     1     -40.168  53.999 -55.056  1.00  0.00     0.037 A 
HETATM   15  C   UNL     1     -40.014  52.743 -54.471  1.00  0.00     0.003 A 
HETATM   16  C   UNL     1     -40.494  52.510 -53.184  1.00  0.00     0.001 A 
HETATM   17  C   UNL     1     -41.115  53.536 -52.470  1.00  0.00     0.012 A 
ENDROOT
BRANCH   1  18
HETATM   18  C   UNL     1     -44.176  56.924 -52.015  1.00  0.00     0.276 C 
BRANCH  18  19
HETATM   19  C   UNL     1     -44.281  58.276 -51.416  1.00  0.00     0.004 A 
HETATM   20  C   UNL     1     -45.430  58.849 -50.820  1.00  0.00     0.149 A 
HETATM   21  N   UNL     1     -45.196  60.057 -50.318  1.00  0.00    -0.185 NA
HETATM   22  N   UNL     1     -43.924  60.317 -50.659  1.00  0.00    -0.285 N 
HETATM   23  C   UNL     1     -43.338  61.599 -50.341  1.00  0.00     0.179 C 
HETATM   24  C   UNL     1     -43.325  59.269 -51.305  1.00  0.00     0.122 A 
ENDBRANCH  18  19
ENDBRANCH   1  18
BRANCH   7  25
HETATM   25  C   UNL     1     -44.870  58.106 -58.740  1.00  0.00     0.238 C 
BRANCH  25  26
HETATM   26  N   UNL     1     -46.125  57.323 -58.423  1.00  0.00    -0.078 N 
HETATM   27  H   UNL     1     -45.878  56.491 -57.874  1.00  0.00     0.278 HD
HETATM   28  C   UNL     1     -47.143  58.095 -57.619  1.00  0.00     0.269 C 
HETATM   29  C   UNL     1     -46.763  56.793 -59.691  1.00  0.00     0.269 C 
ENDBRANCH  25  26
ENDBRANCH   7  25
TORSDOF 4
ENDMDL
MODEL 5
REMARK VINA RESULT:      -7.6      2.040      5.623
REMARK  4 active torsions:
REMARK  status: ('A' for Active; 'I' for Inactive)
REMARK    1  A    between atoms: C_5  and  C_6 
REMARK    2  A    between atoms: C_6  and  N_7 
REMARK    3  A    between atoms: C_13  and  C_14 
REMARK    4  A    between atoms: C_14  and  N_15 
ROOT
HETATM    1  N   UNL     1     -42.288  55.129 -54.813  1.00  0.00    -0.060 N 
HETATM    2  H   UNL     1     -43.287  55.259 -54.634  1.00  0.00     0.280 HD
HETATM    3  C   UNL     1     -41.532  55.948 -53.771  1.00  0.00     0.274 C 
HETATM    4  C   UNL     1     -42.134  55.807 -52.334  1.00  0.00     0.092 C 
HETATM    5  C   UNL     1     -41.152  56.351 -51.266  1.00  0.00     0.041 C 
HETATM    6  C   UNL     1     -41.012  57.874 -51.261  1.00  0.00     0.009 C 
HETATM    7  C   UNL     1     -42.368  58.574 -51.061  1.00  0.00     0.012 C 
HETATM    8  C   UNL     1     -43.339  58.111 -52.156  1.00  0.00     0.009 C 
HETATM    9  C   UNL     1     -43.471  56.583 -52.196  1.00  0.00     0.041 C 
HETATM   10  O   UNL     1     -42.482  54.435 -52.015  1.00  0.00    -0.338 OA
HETATM   11  C   UNL     1     -41.490  53.530 -52.272  1.00  0.00     0.077 A 
HETATM   12  C   UNL     1     -41.249  53.119 -53.585  1.00  0.00     0.001 A 
HETATM   13  C   UNL     1     -42.108  53.617 -54.706  1.00  0.00     0.276 C 
HETATM   14  C   UNL     1     -40.782  52.987 -51.204  1.00  0.00     0.037 A 
HETATM   15  C   UNL     1     -39.771  52.059 -51.449  1.00  0.00     0.003 A 
HETATM   16  C   UNL     1     -39.493  51.662 -52.755  1.00  0.00     0.001 A 
HETATM   17  C   UNL     1     -40.234  52.179 -53.820  1.00  0.00     0.012 A 
ENDROOT
BRANCH   1  18
HETATM   18  C   UNL     1     -42.066  55.628 -56.228  1.00  0.00     0.276 C 
BRANCH  18  19
HETATM   19  C   UNL     1     -43.148  56.489 -56.762  1.00  0.00     0.004 A 
HETATM   20  C   UNL     1     -43.990  57.347 -56.015  1.00  0.00     0.149 A 
HETATM   21  N   UNL     1     -44.827  58.036 -56.785  1.00  0.00    -0.185 NA
HETATM   22  N   UNL     1     -44.599  57.571 -58.023  1.00  0.00    -0.285 N 
HETATM   23  C   UNL     1     -45.395  58.045 -59.132  1.00  0.00     0.179 C 
HETATM   24  C   UNL     1     -43.585  56.652 -58.064  1.00  0.00     0.122 A 
ENDBRANCH  18  19
ENDBRANCH   1  18
BRANCH   7  25
HETATM   25  C   UNL     1     -42.155  60.104 -51.024  1.00  0.00     0.238 C 
BRANCH  25  26
HETATM   26  N   UNL     1     -43.442  60.896 -51.110  1.00  0.00    -0.078 N 
HETATM   27  H   UNL     1     -44.138  60.358 -51.640  1.00  0.00     0.278 HD
HETATM   28  C   UNL     1     -44.056  61.214 -49.768  1.00  0.00     0.269 C 
HETATM   29  C   UNL     1     -43.235  62.173 -51.899  1.00  0.00     0.269 C 
ENDBRANCH  25  26
ENDBRANCH   7  25
TORSDOF 4
ENDMDL
MODEL 6
REMARK VINA RESULT:      -7.6      2.302      6.475
REMARK  4 active torsions:
REMARK  status: ('A' for Active; 'I' for Inactive)
REMARK    1  A    between atoms: C_5  and  C_6 
REMARK    2  A    between atoms: C_6  and  N_7 
REMARK    3  A    between atoms: C_13  and  C_14 
REMARK    4  A    between atoms: C_14  and  N_15 
ROOT
HETATM    1  N   UNL     1     -42.083  58.172 -54.568  1.00  0.00    -0.060 N 
HETATM    2  H   UNL     1     -42.831  57.982 -53.895  1.00  0.00     0.280 HD
HETATM    3  C   UNL     1     -41.288  56.881 -54.736  1.00  0.00     0.274 C 
HETATM    4  C   UNL     1     -42.202  55.617 -54.857  1.00  0.00     0.092 C 
HETATM    5  C   UNL     1     -41.397  54.398 -55.374  1.00  0.00     0.041 C 
HETATM    6  C   UNL     1     -40.413  53.819 -54.356  1.00  0.00     0.009 C 
HETATM    7  C   UNL     1     -41.115  53.406 -53.051  1.00  0.00     0.012 C 
HETATM    8  C   UNL     1     -41.859  54.619 -52.474  1.00  0.00     0.009 C 
HETATM    9  C   UNL     1     -42.830  55.232 -53.491  1.00  0.00     0.041 C 
HETATM   10  O   UNL     1     -43.343  55.843 -55.725  1.00  0.00    -0.338 OA
HETATM   11  C   UNL     1     -43.027  56.395 -56.935  1.00  0.00     0.077 A 
HETATM   12  C   UNL     1     -42.743  57.761 -57.022  1.00  0.00     0.001 A 
HETATM   13  C   UNL     1     -42.840  58.635 -55.810  1.00  0.00     0.276 C 
HETATM   14  C   UNL     1     -43.059  55.590 -58.070  1.00  0.00     0.037 A 
HETATM   15  C   UNL     1     -42.745  56.140 -59.312  1.00  0.00     0.003 A 
HETATM   16  C   UNL     1     -42.426  57.493 -59.414  1.00  0.00     0.001 A 
HETATM   17  C   UNL     1     -42.435  58.304 -58.278  1.00  0.00     0.012 A 
ENDROOT
BRANCH   1  18
HETATM   18  C   UNL     1     -41.264  59.291 -53.953  1.00  0.00     0.276 C 
BRANCH  18  19
HETATM   19  C   UNL     1     -41.660  59.667 -52.575  1.00  0.00     0.004 A 
HETATM   20  C   UNL     1     -40.968  59.350 -51.381  1.00  0.00     0.149 A 
HETATM   21  N   UNL     1     -41.540  59.880 -50.305  1.00  0.00    -0.185 NA
HETATM   22  N   UNL     1     -42.651  60.468 -50.774  1.00  0.00    -0.285 N 
HETATM   23  C   UNL     1     -43.579  61.094 -49.861  1.00  0.00     0.179 C 
HETATM   24  C   UNL     1     -42.758  60.384 -52.137  1.00  0.00     0.122 A 
ENDBRANCH  18  19
ENDBRANCH   1  18
BRANCH   7  25
HETATM   25  C   UNL     1     -40.079  52.794 -52.082  1.00  0.00     0.238 C 
BRANCH  25  26
HETATM   26  N   UNL     1     -40.600  52.616 -50.672  1.00  0.00    -0.078 N 
HETATM   27  H   UNL     1     -41.613  52.783 -50.659  1.00  0.00     0.278 HD
HETATM   28  C   UNL     1     -40.372  51.235 -50.105  1.00  0.00     0.269 C 
HETATM   29  C   UNL     1     -40.009  53.659 -49.746  1.00  0.00     0.269 C 
ENDBRANCH  25  26
ENDBRANCH   7  25
TORSDOF 4
ENDMDL
MODEL 7
REMARK VINA RESULT:      -7.4      2.372      7.616
REMARK  4 active torsions:
REMARK  status: ('A' for Active; 'I' for Inactive)
REMARK    1  A    between atoms: C_5  and  C_6 
REMARK    2  A    between atoms: C_6  and  N_7 
REMARK    3  A    between atoms: C_13  and  C_14 
REMARK    4  A    between atoms: C_14  and  N_15 
ROOT
HETATM    1  N   UNL     1     -42.903  57.166 -56.267  1.00  0.00    -0.060 N 
HETATM    2  H   UNL     1     -41.918  57.296 -56.516  1.00  0.00     0.280 HD
HETATM    3  C   UNL     1     -42.971  56.008 -55.277  1.00  0.00     0.274 C 
HETATM    4  C   UNL     1     -41.851  56.075 -54.187  1.00  0.00     0.092 C 
HETATM    5  C   UNL     1     -42.159  55.109 -53.015  1.00  0.00     0.041 C 
HETATM    6  C   UNL     1     -41.992  53.629 -53.362  1.00  0.00     0.009 C 
HETATM    7  C   UNL     1     -40.575  53.317 -53.876  1.00  0.00     0.012 C 
HETATM    8  C   UNL     1     -40.272  54.209 -55.089  1.00  0.00     0.009 C 
HETATM    9  C   UNL     1     -40.463  55.697 -54.768  1.00  0.00     0.041 C 
HETATM   10  O   UNL     1     -41.668  57.418 -53.668  1.00  0.00    -0.338 OA
HETATM   11  C   UNL     1     -42.827  58.035 -53.287  1.00  0.00     0.077 A 
HETATM   12  C   UNL     1     -43.679  58.571 -54.255  1.00  0.00     0.001 A 
HETATM   13  C   UNL     1     -43.304  58.527 -55.704  1.00  0.00     0.276 C 
HETATM   14  C   UNL     1     -43.099  58.173 -51.928  1.00  0.00     0.037 A 
HETATM   15  C   UNL     1     -44.274  58.805 -51.524  1.00  0.00     0.003 A 
HETATM   16  C   UNL     1     -45.154  59.317 -52.476  1.00  0.00     0.001 A 
HETATM   17  C   UNL     1     -44.855  59.212 -53.836  1.00  0.00     0.012 A 
ENDROOT
BRANCH   1  18
HETATM   18  C   UNL     1     -43.610  56.863 -57.576  1.00  0.00     0.276 C 
BRANCH  18  19
HETATM   19  C   UNL     1     -43.273  57.779 -58.692  1.00  0.00     0.004 A 
HETATM   20  C   UNL     1     -41.979  58.074 -59.181  1.00  0.00     0.149 A 
HETATM   21  N   UNL     1     -42.004  58.888 -60.232  1.00  0.00    -0.185 NA
HETATM   22  N   UNL     1     -43.302  59.199 -60.380  1.00  0.00    -0.285 N 
HETATM   23  C   UNL     1     -43.708  60.142 -61.397  1.00  0.00     0.179 C 
HETATM   24  C   UNL     1     -44.107  58.542 -59.489  1.00  0.00     0.122 A 
ENDBRANCH  18  19
ENDBRANCH   1  18
BRANCH   7  25
HETATM   25  C   UNL     1     -40.457  51.806 -54.170  1.00  0.00     0.238 C 
BRANCH  25  26
HETATM   26  N   UNL     1     -39.414  51.104 -53.326  1.00  0.00    -0.078 N 
HETATM   27  H   UNL     1     -38.481  51.290 -53.713  1.00  0.00     0.278 HD
HETATM   28  C   UNL     1     -39.392  51.551 -51.884  1.00  0.00     0.269 C 
HETATM   29  C   UNL     1     -39.587  49.601 -53.399  1.00  0.00     0.269 C 
ENDBRANCH  25  26
ENDBRANCH   7  25
TORSDOF 4
ENDMDL
MODEL 8
REMARK VINA RESULT:      -6.9     14.388     16.158
REMARK  4 active torsions:
REMARK  status: ('A' for Active; 'I' for Inactive)
REMARK    1  A    between atoms: C_5  and  C_6 
REMARK    2  A    between atoms: C_6  and  N_7 
REMARK    3  A    between atoms: C_13  and  C_14 
REMARK    4  A    between atoms: C_14  and  N_15 
ROOT
HETATM    1  N   UNL     1     -34.437  41.227 -52.757  1.00  0.00    -0.060 N 
HETATM    2  H   UNL     1     -34.272  42.175 -53.107  1.00  0.00     0.280 HD
HETATM    3  C   UNL     1     -35.008  40.412 -53.913  1.00  0.00     0.274 C 
HETATM    4  C   UNL     1     -34.264  40.670 -55.264  1.00  0.00     0.092 C 
HETATM    5  C   UNL     1     -34.625  39.587 -56.312  1.00  0.00     0.041 C 
HETATM    6  C   UNL     1     -36.049  39.695 -56.860  1.00  0.00     0.009 C 
HETATM    7  C   UNL     1     -36.318  41.074 -57.489  1.00  0.00     0.012 C 
HETATM    8  C   UNL     1     -36.042  42.165 -56.445  1.00  0.00     0.009 C 
HETATM    9  C   UNL     1     -34.627  42.056 -55.862  1.00  0.00     0.041 C 
HETATM   10  O   UNL     1     -32.823  40.718 -55.099  1.00  0.00    -0.338 OA
HETATM   11  C   UNL     1     -32.304  39.669 -54.392  1.00  0.00     0.077 A 
HETATM   12  C   UNL     1     -32.421  39.646 -52.999  1.00  0.00     0.001 A 
HETATM   13  C   UNL     1     -33.058  40.788 -52.272  1.00  0.00     0.276 C 
HETATM   14  C   UNL     1     -31.610  38.676 -55.076  1.00  0.00     0.037 A 
HETATM   15  C   UNL     1     -31.070  37.603 -54.368  1.00  0.00     0.003 A 
HETATM   16  C   UNL     1     -31.205  37.544 -52.982  1.00  0.00     0.001 A 
HETATM   17  C   UNL     1     -31.867  38.565 -52.297  1.00  0.00     0.012 A 
ENDROOT
BRANCH   1  18
HETATM   18  C   UNL     1     -35.417  41.389 -51.610  1.00  0.00     0.276 C 
BRANCH  18  19
HETATM   19  C   UNL     1     -36.300  40.221 -51.376  1.00  0.00     0.004 A 
HETATM   20  C   UNL     1     -37.660  40.103 -51.750  1.00  0.00     0.149 A 
HETATM   21  N   UNL     1     -38.167  38.910 -51.457  1.00  0.00    -0.185 NA
HETATM   22  N   UNL     1     -37.173  38.275 -50.814  1.00  0.00    -0.285 N 
HETATM   23  C   UNL     1     -37.391  36.955 -50.270  1.00  0.00     0.179 C 
HETATM   24  C   UNL     1     -36.023  39.016 -50.757  1.00  0.00     0.122 A 
ENDBRANCH  18  19
ENDBRANCH   1  18
BRANCH   7  25
HETATM   25  C   UNL     1     -37.754  41.107 -58.058  1.00  0.00     0.238 C 
BRANCH  25  26
HETATM   26  N   UNL     1     -37.806  41.294 -59.559  1.00  0.00    -0.078 N 
HETATM   27  H   UNL     1     -38.781  41.238 -59.876  1.00  0.00     0.278 HD
HETATM   28  C   UNL     1     -37.263  42.621 -60.031  1.00  0.00     0.269 C 
HETATM   29  C   UNL     1     -37.088  40.162 -60.266  1.00  0.00     0.269 C 
ENDBRANCH  25  26
ENDBRANCH   7  25
TORSDOF 4
ENDMDL
MODEL 9
REMARK VINA RESULT:      -6.9      2.487      6.924
REMARK  4 active torsions:
REMARK  status: ('A' for Active; 'I' for Inactive)
REMARK    1  A    between atoms: C_5  and  C_6 
REMARK    2  A    between atoms: C_6  and  N_7 
REMARK    3  A    between atoms: C_13  and  C_14 
REMARK    4  A    between atoms: C_14  and  N_15 
ROOT
HETATM    1  N   UNL     1     -42.235  55.456 -54.136  1.00  0.00    -0.060 N 
HETATM    2  H   UNL     1     -41.400  55.856 -53.697  1.00  0.00     0.280 HD
HETATM    3  C   UNL     1     -43.386  56.423 -53.880  1.00  0.00     0.274 C 
HETATM    4  C   UNL     1     -42.983  57.918 -54.095  1.00  0.00     0.092 C 
HETATM    5  C   UNL     1     -44.236  58.825 -54.176  1.00  0.00     0.041 C 
HETATM    6  C   UNL     1     -44.958  59.018 -52.842  1.00  0.00     0.009 C 
HETATM    7  C   UNL     1     -44.024  59.593 -51.762  1.00  0.00     0.012 C 
HETATM    8  C   UNL     1     -42.807  58.670 -51.606  1.00  0.00     0.009 C 
HETATM    9  C   UNL     1     -42.086  58.441 -52.941  1.00  0.00     0.041 C 
HETATM   10  O   UNL     1     -42.176  58.105 -55.287  1.00  0.00    -0.338 OA
HETATM   11  C   UNL     1     -42.691  57.521 -56.411  1.00  0.00     0.077 A 
HETATM   12  C   UNL     1     -42.568  56.141 -56.594  1.00  0.00     0.001 A 
HETATM   13  C   UNL     1     -41.825  55.306 -55.598  1.00  0.00     0.276 C 
HETATM   14  C   UNL     1     -43.273  58.330 -57.382  1.00  0.00     0.037 A 
HETATM   15  C   UNL     1     -43.797  57.750 -58.536  1.00  0.00     0.003 A 
HETATM   16  C   UNL     1     -43.715  56.371 -58.722  1.00  0.00     0.001 A 
HETATM   17  C   UNL     1     -43.093  55.569 -57.763  1.00  0.00     0.012 A 
ENDROOT
BRANCH   1  18
HETATM   18  C   UNL     1     -42.435  54.111 -53.462  1.00  0.00     0.276 C 
BRANCH  18  19
HETATM   19  C   UNL     1     -41.563  53.865 -52.289  1.00  0.00     0.004 A 
HETATM   20  C   UNL     1     -40.362  53.117 -52.272  1.00  0.00     0.149 A 
HETATM   21  N   UNL     1     -39.771  53.128 -51.082  1.00  0.00    -0.185 NA
HETATM   22  N   UNL     1     -40.622  53.805 -50.295  1.00  0.00    -0.285 N 
HETATM   23  C   UNL     1     -40.342  53.953 -48.885  1.00  0.00     0.179 C 
HETATM   24  C   UNL     1     -41.706  54.285 -50.980  1.00  0.00     0.122 A 
ENDBRANCH  18  19
ENDBRANCH   1  18
BRANCH   7  25
HETATM   25  C   UNL     1     -44.818  59.802 -50.454  1.00  0.00     0.238 C 
BRANCH  25  26
HETATM   26  N   UNL     1     -44.147  60.749 -49.483  1.00  0.00    -0.078 N 
HETATM   27  H   UNL     1     -43.401  60.252 -48.982  1.00  0.00     0.278 HD
HETATM   28  C   UNL     1     -43.513  61.952 -50.139  1.00  0.00     0.269 C 
HETATM   29  C   UNL     1     -45.120  61.198 -48.412  1.00  0.00     0.269 C 
ENDBRANCH  25  26
ENDBRANCH   7  25
TORSDOF 4
ENDMDL
MODEL 10
REMARK VINA RESULT:      -6.9     14.366     17.181
REMARK  4 active torsions:
REMARK  status: ('A' for Active; 'I' for Inactive)
REMARK    1  A    between atoms: C_5  and  C_6 
REMARK    2  A    between atoms: C_6  and  N_7 
REMARK    3  A    between atoms: C_13  and  C_14 
REMARK    4  A    between atoms: C_14  and  N_15 
ROOT
HETATM    1  N   UNL     1     -33.846  41.124 -55.247  1.00  0.00    -0.060 N 
HETATM    2  H   UNL     1     -33.682  42.003 -54.748  1.00  0.00     0.280 HD
HETATM    3  C   UNL     1     -34.889  40.343 -54.454  1.00  0.00     0.274 C 
HETATM    4  C   UNL     1     -36.071  41.239 -53.958  1.00  0.00     0.092 C 
HETATM    5  C   UNL     1     -37.262  40.371 -53.479  1.00  0.00     0.041 C 
HETATM    6  C   UNL     1     -37.014  39.643 -52.157  1.00  0.00     0.009 C 
HETATM    7  C   UNL     1     -36.651  40.618 -51.024  1.00  0.00     0.012 C 
HETATM    8  C   UNL     1     -35.422  41.439 -51.442  1.00  0.00     0.009 C 
HETATM    9  C   UNL     1     -35.641  42.155 -52.781  1.00  0.00     0.041 C 
HETATM   10  O   UNL     1     -36.529  42.161 -54.981  1.00  0.00    -0.338 OA
HETATM   11  C   UNL     1     -36.768  41.580 -56.195  1.00  0.00     0.077 A 
HETATM   12  C   UNL     1     -35.697  41.251 -57.030  1.00  0.00     0.001 A 
HETATM   13  C   UNL     1     -34.293  41.585 -56.631  1.00  0.00     0.276 C 
HETATM   14  C   UNL     1     -38.086  41.387 -56.600  1.00  0.00     0.037 A 
HETATM   15  C   UNL     1     -38.345  40.800 -57.838  1.00  0.00     0.003 A 
HETATM   16  C   UNL     1     -37.290  40.435 -58.671  1.00  0.00     0.001 A 
HETATM   17  C   UNL     1     -35.971  40.669 -58.276  1.00  0.00     0.012 A 
ENDROOT
BRANCH   1  18
HETATM   18  C   UNL     1     -32.497  40.430 -55.288  1.00  0.00     0.276 C 
BRANCH  18  19
HETATM   19  C   UNL     1     -32.190  39.594 -54.103  1.00  0.00     0.004 A 
HETATM   20  C   UNL     1     -31.965  40.051 -52.783  1.00  0.00     0.149 A 
HETATM   21  N   UNL     1     -31.773  39.055 -51.924  1.00  0.00    -0.185 NA
HETATM   22  N   UNL     1     -31.783  37.951 -52.689  1.00  0.00    -0.285 N 
HETATM   23  C   UNL     1     -31.524  36.659 -52.096  1.00  0.00     0.179 C 
HETATM   24  C   UNL     1     -32.049  38.222 -54.004  1.00  0.00     0.122 A 
ENDBRANCH  18  19
ENDBRANCH   1  18
BRANCH   7  25
HETATM   25  C   UNL     1     -36.453  39.829 -49.711  1.00  0.00     0.238 C 
BRANCH  25  26
HETATM   26  N   UNL     1     -35.783  38.486 -49.907  1.00  0.00    -0.078 N 
HETATM   27  H   UNL     1     -35.773  38.253 -50.907  1.00  0.00     0.278 HD
HETATM   28  C   UNL     1     -34.353  38.438 -49.427  1.00  0.00     0.269 C 
HETATM   29  C   UNL     1     -36.587  37.384 -49.246  1.00  0.00     0.269 C 
ENDBRANCH  25  26
ENDBRANCH   7  25
TORSDOF 4
ENDMDL
