MODEL 1
REMARK VINA RESULT:      -9.5      0.000      0.000
REMARK  3 active torsions:
REMARK  status: ('A' for Active; 'I' for Inactive)
REMARK    1  A    between atoms: C_8  and  C_9 
REMARK    2  A    between atoms: C_12  and  C_13 
REMARK    3  A    between atoms: C_24  and  N_25 
ROOT
HETATM    1  C   UNL     1     -43.839  54.776 -59.069  1.00  0.00     0.073 C 
HETATM    2  C   UNL     1     -43.085  56.052 -59.101  1.00  0.00     0.062 A 
HETATM    3  N   UNL     1     -42.488  56.461 -60.233  1.00  0.00    -0.177 NA
HETATM    4  N   UNL     1     -41.899  57.628 -59.898  1.00  0.00    -0.256 N 
HETATM    5  H   UNL     1     -41.384  58.138 -60.607  1.00  0.00     0.191 HD
HETATM    6  C   UNL     1     -42.111  57.968 -58.602  1.00  0.00     0.175 A 
HETATM    7  C   UNL     1     -42.867  56.968 -58.046  1.00  0.00     0.034 A 
HETATM    8  C   UNL     1     -43.273  57.046 -56.613  1.00  0.00     0.104 A 
HETATM    9  C   UNL     1     -42.879  58.403 -56.037  1.00  0.00     0.067 A 
HETATM   10  C   UNL     1     -43.517  58.793 -54.714  1.00  0.00     0.020 C 
HETATM   11  N   UNL     1     -44.048  59.116 -53.616  1.00  0.00    -0.096 N 
HETATM   12  C   UNL     1     -42.132  59.319 -56.714  1.00  0.00     0.139 A 
HETATM   13  O   UNL     1     -41.664  59.075 -58.019  1.00  0.00    -0.279 OA
ENDROOT
BRANCH   8  14
HETATM   14  C   UNL     1     -42.586  55.872 -55.930  1.00  0.00    -0.044 A 
HETATM   15  C   UNL     1     -43.244  54.655 -55.686  1.00  0.00     0.009 A 
HETATM   16  C   UNL     1     -42.610  53.620 -54.991  1.00  0.00     0.013 A 
HETATM   17  C   UNL     1     -41.292  53.754 -54.530  1.00  0.00    -0.026 A 
HETATM   18  C   UNL     1     -40.622  54.954 -54.816  1.00  0.00     0.013 A 
HETATM   19  C   UNL     1     -41.255  55.997 -55.505  1.00  0.00     0.009 A 
BRANCH  17  20
HETATM   20  C   UNL     1     -40.647  52.680 -53.750  1.00  0.00    -0.026 A 
HETATM   21  C   UNL     1     -40.351  51.433 -54.329  1.00  0.00     0.012 A 
HETATM   22  C   UNL     1     -39.765  50.409 -53.580  1.00  0.00     0.001 A 
HETATM   23  C   UNL     1     -39.459  50.612 -52.238  1.00  0.00     0.000 A 
HETATM   24  C   UNL     1     -39.738  51.840 -51.644  1.00  0.00     0.001 A 
HETATM   25  C   UNL     1     -40.327  52.862 -52.393  1.00  0.00     0.012 A 
ENDBRANCH  17  20
ENDBRANCH   8  14
BRANCH  12  26
HETATM   26  N   UNL     1     -41.778  60.563 -56.245  1.00  0.00    -0.282 NA
HETATM   27  H   UNL     1     -42.468  61.024 -55.657  1.00  0.00     0.126 HD
HETATM   28  H   UNL     1     -40.845  60.570 -55.843  1.00  0.00     0.126 HD
ENDBRANCH  12  26
TORSDOF 3
ENDMDL
MODEL 2
REMARK VINA RESULT:      -9.3      2.203      4.436
REMARK  3 active torsions:
REMARK  status: ('A' for Active; 'I' for Inactive)
REMARK    1  A    between atoms: C_8  and  C_9 
REMARK    2  A    between atoms: C_12  and  C_13 
REMARK    3  A    between atoms: C_24  and  N_25 
ROOT
HETATM    1  C   UNL     1     -40.290  58.605 -52.240  1.00  0.00     0.073 C 
HETATM    2  C   UNL     1     -41.766  58.669 -52.365  1.00  0.00     0.062 A 
HETATM    3  N   UNL     1     -42.505  59.250 -51.405  1.00  0.00    -0.177 NA
HETATM    4  N   UNL     1     -43.777  59.116 -51.835  1.00  0.00    -0.256 N 
HETATM    5  H   UNL     1     -44.529  59.493 -51.269  1.00  0.00     0.191 HD
HETATM    6  C   UNL     1     -43.862  58.479 -53.031  1.00  0.00     0.175 A 
HETATM    7  C   UNL     1     -42.581  58.163 -53.405  1.00  0.00     0.034 A 
HETATM    8  C   UNL     1     -42.332  57.447 -54.689  1.00  0.00     0.104 A 
HETATM    9  C   UNL     1     -43.632  57.338 -55.481  1.00  0.00     0.067 A 
HETATM   10  C   UNL     1     -43.506  56.961 -56.948  1.00  0.00     0.020 C 
HETATM   11  N   UNL     1     -43.402  56.648 -58.166  1.00  0.00    -0.096 N 
HETATM   12  C   UNL     1     -44.845  57.711 -54.989  1.00  0.00     0.139 A 
HETATM   13  O   UNL     1     -44.989  58.236 -53.690  1.00  0.00    -0.279 OA
ENDROOT
BRANCH   8  14
HETATM   14  C   UNL     1     -41.743  56.099 -54.297  1.00  0.00    -0.044 A 
HETATM   15  C   UNL     1     -40.635  55.543 -54.957  1.00  0.00     0.009 A 
HETATM   16  C   UNL     1     -40.162  54.269 -54.623  1.00  0.00     0.013 A 
HETATM   17  C   UNL     1     -40.765  53.512 -53.608  1.00  0.00    -0.026 A 
HETATM   18  C   UNL     1     -41.844  54.091 -52.919  1.00  0.00     0.013 A 
HETATM   19  C   UNL     1     -42.327  55.362 -53.256  1.00  0.00     0.009 A 
BRANCH  17  20
HETATM   20  C   UNL     1     -40.297  52.148 -53.297  1.00  0.00    -0.026 A 
HETATM   21  C   UNL     1     -40.235  51.153 -54.288  1.00  0.00     0.012 A 
HETATM   22  C   UNL     1     -39.818  49.854 -53.985  1.00  0.00     0.001 A 
HETATM   23  C   UNL     1     -39.449  49.525 -52.683  1.00  0.00     0.000 A 
HETATM   24  C   UNL     1     -39.498  50.494 -51.685  1.00  0.00     0.001 A 
HETATM   25  C   UNL     1     -39.919  51.792 -51.990  1.00  0.00     0.012 A 
ENDBRANCH  17  20
ENDBRANCH   8  14
BRANCH  12  26
HETATM   26  N   UNL     1     -46.036  57.657 -55.676  1.00  0.00    -0.282 NA
HETATM   27  H   UNL     1     -46.034  58.092 -56.595  1.00  0.00     0.126 HD
HETATM   28  H   UNL     1     -46.434  56.722 -55.680  1.00  0.00     0.126 HD
ENDBRANCH  12  26
TORSDOF 3
ENDMDL
MODEL 3
REMARK VINA RESULT:      -9.1      1.032      1.227
REMARK  3 active torsions:
REMARK  status: ('A' for Active; 'I' for Inactive)
REMARK    1  A    between atoms: C_8  and  C_9 
REMARK    2  A    between atoms: C_12  and  C_13 
REMARK    3  A    between atoms: C_24  and  N_25 
ROOT
HETATM    1  C   UNL     1     -43.530  55.760 -58.522  1.00  0.00     0.073 C 
HETATM    2  C   UNL     1     -42.843  57.024 -58.163  1.00  0.00     0.062 A 
HETATM    3  N   UNL     1     -42.191  57.734 -59.099  1.00  0.00    -0.177 NA
HETATM    4  N   UNL     1     -41.688  58.791 -58.427  1.00  0.00    -0.256 N 
HETATM    5  H   UNL     1     -41.152  59.485 -58.936  1.00  0.00     0.191 HD
HETATM    6  C   UNL     1     -42.006  58.773 -57.108  1.00  0.00     0.175 A 
HETATM    7  C   UNL     1     -42.745  57.639 -56.893  1.00  0.00     0.034 A 
HETATM    8  C   UNL     1     -43.252  57.325 -55.525  1.00  0.00     0.104 A 
HETATM    9  C   UNL     1     -42.969  58.495 -54.588  1.00  0.00     0.067 A 
HETATM   10  C   UNL     1     -43.716  58.504 -53.264  1.00  0.00     0.020 C 
HETATM   11  N   UNL     1     -44.336  58.512 -52.166  1.00  0.00    -0.096 N 
HETATM   12  C   UNL     1     -42.226  59.580 -54.943  1.00  0.00     0.139 A 
HETATM   13  O   UNL     1     -41.657  59.702 -56.225  1.00  0.00    -0.279 OA
ENDROOT
BRANCH   8  14
HETATM   14  C   UNL     1     -42.553  56.035 -55.117  1.00  0.00    -0.044 A 
HETATM   15  C   UNL     1     -43.208  54.793 -55.120  1.00  0.00     0.009 A 
HETATM   16  C   UNL     1     -42.562  53.637 -54.669  1.00  0.00     0.013 A 
HETATM   17  C   UNL     1     -41.235  53.675 -54.217  1.00  0.00    -0.026 A 
HETATM   18  C   UNL     1     -40.569  54.910 -54.259  1.00  0.00     0.013 A 
HETATM   19  C   UNL     1     -41.214  56.072 -54.701  1.00  0.00     0.009 A 
BRANCH  17  20
HETATM   20  C   UNL     1     -40.576  52.463 -53.692  1.00  0.00    -0.026 A 
HETATM   21  C   UNL     1     -40.462  51.298 -54.471  1.00  0.00     0.012 A 
HETATM   22  C   UNL     1     -39.862  50.143 -53.961  1.00  0.00     0.001 A 
HETATM   23  C   UNL     1     -39.360  50.132 -52.663  1.00  0.00     0.000 A 
HETATM   24  C   UNL     1     -39.457  51.275 -51.875  1.00  0.00     0.001 A 
HETATM   25  C   UNL     1     -40.060  52.427 -52.385  1.00  0.00     0.012 A 
ENDBRANCH  17  20
ENDBRANCH   8  14
BRANCH  12  26
HETATM   26  N   UNL     1     -41.970  60.669 -54.142  1.00  0.00    -0.282 NA
HETATM   27  H   UNL     1     -42.095  60.520 -53.143  1.00  0.00     0.126 HD
HETATM   28  H   UNL     1     -41.084  61.112 -54.369  1.00  0.00     0.126 HD
ENDBRANCH  12  26
TORSDOF 3
ENDMDL
MODEL 4
REMARK VINA RESULT:      -8.4      1.504      3.930
REMARK  3 active torsions:
REMARK  status: ('A' for Active; 'I' for Inactive)
REMARK    1  A    between atoms: C_8  and  C_9 
REMARK    2  A    between atoms: C_12  and  C_13 
REMARK    3  A    between atoms: C_24  and  N_25 
ROOT
HETATM    1  C   UNL     1     -42.036  58.830 -53.161  1.00  0.00     0.073 C 
HETATM    2  C   UNL     1     -43.341  58.715 -53.854  1.00  0.00     0.062 A 
HETATM    3  N   UNL     1     -44.465  59.154 -53.264  1.00  0.00    -0.177 NA
HETATM    4  N   UNL     1     -45.440  58.884 -54.157  1.00  0.00    -0.256 N 
HETATM    5  H   UNL     1     -46.395  59.138 -53.932  1.00  0.00     0.191 HD
HETATM    6  C   UNL     1     -44.967  58.299 -55.287  1.00  0.00     0.175 A 
HETATM    7  C   UNL     1     -43.612  58.162 -55.127  1.00  0.00     0.034 A 
HETATM    8  C   UNL     1     -42.791  57.544 -56.208  1.00  0.00     0.104 A 
HETATM    9  C   UNL     1     -43.654  57.312 -57.444  1.00  0.00     0.067 A 
HETATM   10  C   UNL     1     -42.918  57.023 -58.743  1.00  0.00     0.020 C 
HETATM   11  N   UNL     1     -42.308  56.784 -59.821  1.00  0.00    -0.096 N 
HETATM   12  C   UNL     1     -45.001  57.508 -57.469  1.00  0.00     0.139 A 
HETATM   13  O   UNL     1     -45.707  57.949 -56.333  1.00  0.00    -0.279 OA
ENDROOT
BRANCH   8  14
HETATM   14  C   UNL     1     -42.228  56.262 -55.609  1.00  0.00    -0.044 A 
HETATM   15  C   UNL     1     -43.019  55.119 -55.402  1.00  0.00     0.009 A 
HETATM   16  C   UNL     1     -42.492  53.982 -54.781  1.00  0.00     0.013 A 
HETATM   17  C   UNL     1     -41.155  53.936 -54.361  1.00  0.00    -0.026 A 
HETATM   18  C   UNL     1     -40.355  55.063 -54.611  1.00  0.00     0.013 A 
HETATM   19  C   UNL     1     -40.880  56.208 -55.224  1.00  0.00     0.009 A 
BRANCH  17  20
HETATM   20  C   UNL     1     -40.619  52.754 -53.658  1.00  0.00    -0.026 A 
HETATM   21  C   UNL     1     -40.311  52.797 -52.287  1.00  0.00     0.012 A 
HETATM   22  C   UNL     1     -39.778  51.684 -51.630  1.00  0.00     0.001 A 
HETATM   23  C   UNL     1     -39.546  50.504 -52.331  1.00  0.00     0.000 A 
HETATM   24  C   UNL     1     -39.847  50.436 -53.688  1.00  0.00     0.001 A 
HETATM   25  C   UNL     1     -40.377  51.551 -54.344  1.00  0.00     0.012 A 
ENDBRANCH  17  20
ENDBRANCH   8  14
BRANCH  12  26
HETATM   26  N   UNL     1     -45.812  57.340 -58.567  1.00  0.00    -0.282 NA
HETATM   27  H   UNL     1     -46.697  56.869 -58.393  1.00  0.00     0.126 HD
HETATM   28  H   UNL     1     -45.917  58.198 -59.102  1.00  0.00     0.126 HD
ENDBRANCH  12  26
TORSDOF 3
ENDMDL
MODEL 5
REMARK VINA RESULT:      -8.4      2.024      3.210
REMARK  3 active torsions:
REMARK  status: ('A' for Active; 'I' for Inactive)
REMARK    1  A    between atoms: C_8  and  C_9 
REMARK    2  A    between atoms: C_12  and  C_13 
REMARK    3  A    between atoms: C_24  and  N_25 
ROOT
HETATM    1  C   UNL     1     -43.290  57.333 -57.315  1.00  0.00     0.073 C 
HETATM    2  C   UNL     1     -42.794  58.522 -56.580  1.00  0.00     0.062 A 
HETATM    3  N   UNL     1     -42.037  59.440 -57.204  1.00  0.00    -0.177 NA
HETATM    4  N   UNL     1     -41.763  60.353 -56.249  1.00  0.00    -0.256 N 
HETATM    5  H   UNL     1     -41.200  61.161 -56.491  1.00  0.00     0.191 HD
HETATM    6  C   UNL     1     -42.325  60.045 -55.053  1.00  0.00     0.175 A 
HETATM    7  C   UNL     1     -42.994  58.859 -55.222  1.00  0.00     0.034 A 
HETATM    8  C   UNL     1     -43.725  58.245 -54.076  1.00  0.00     0.104 A 
HETATM    9  C   UNL     1     -43.727  59.203 -52.889  1.00  0.00     0.067 A 
HETATM   10  C   UNL     1     -44.712  58.902 -51.772  1.00  0.00     0.020 C 
HETATM   11  N   UNL     1     -45.530  58.652 -50.844  1.00  0.00    -0.096 N 
HETATM   12  C   UNL     1     -43.024  60.369 -52.863  1.00  0.00     0.139 A 
HETATM   13  O   UNL     1     -42.232  60.782 -53.952  1.00  0.00    -0.279 OA
ENDROOT
BRANCH   8  14
HETATM   14  C   UNL     1     -43.011  56.929 -53.796  1.00  0.00    -0.044 A 
HETATM   15  C   UNL     1     -41.688  56.878 -53.327  1.00  0.00     0.009 A 
HETATM   16  C   UNL     1     -41.034  55.655 -53.151  1.00  0.00     0.013 A 
HETATM   17  C   UNL     1     -41.680  54.439 -53.416  1.00  0.00    -0.026 A 
HETATM   18  C   UNL     1     -43.018  54.493 -53.840  1.00  0.00     0.013 A 
HETATM   19  C   UNL     1     -43.675  55.715 -54.028  1.00  0.00     0.009 A 
BRANCH  17  20
HETATM   20  C   UNL     1     -40.968  53.153 -53.280  1.00  0.00    -0.026 A 
HETATM   21  C   UNL     1     -40.307  52.808 -52.088  1.00  0.00     0.012 A 
HETATM   22  C   UNL     1     -39.610  51.602 -51.971  1.00  0.00     0.001 A 
HETATM   23  C   UNL     1     -39.564  50.714 -53.043  1.00  0.00     0.000 A 
HETATM   24  C   UNL     1     -40.216  51.033 -54.231  1.00  0.00     0.001 A 
HETATM   25  C   UNL     1     -40.909  52.240 -54.347  1.00  0.00     0.012 A 
ENDBRANCH  17  20
ENDBRANCH   8  14
BRANCH  12  26
HETATM   26  N   UNL     1     -43.019  61.275 -51.828  1.00  0.00    -0.282 NA
HETATM   27  H   UNL     1     -42.423  62.089 -51.959  1.00  0.00     0.126 HD
HETATM   28  H   UNL     1     -43.959  61.516 -51.525  1.00  0.00     0.126 HD
ENDBRANCH  12  26
TORSDOF 3
ENDMDL
MODEL 6
REMARK VINA RESULT:      -7.3      2.961      5.245
REMARK  3 active torsions:
REMARK  status: ('A' for Active; 'I' for Inactive)
REMARK    1  A    between atoms: C_8  and  C_9 
REMARK    2  A    between atoms: C_12  and  C_13 
REMARK    3  A    between atoms: C_24  and  N_25 
ROOT
HETATM    1  C   UNL     1     -41.645  59.850 -50.597  1.00  0.00     0.073 C 
HETATM    2  C   UNL     1     -43.038  60.033 -51.072  1.00  0.00     0.062 A 
HETATM    3  N   UNL     1     -44.020  60.322 -50.201  1.00  0.00    -0.177 NA
HETATM    4  N   UNL     1     -45.130  60.402 -50.964  1.00  0.00    -0.256 N 
HETATM    5  H   UNL     1     -46.014  60.623 -50.521  1.00  0.00     0.191 HD
HETATM    6  C   UNL     1     -44.878  60.182 -52.280  1.00  0.00     0.175 A 
HETATM    7  C   UNL     1     -43.535  59.928 -52.391  1.00  0.00     0.034 A 
HETATM    8  C   UNL     1     -42.937  59.642 -53.727  1.00  0.00     0.104 A 
HETATM    9  C   UNL     1     -43.979  59.862 -54.819  1.00  0.00     0.067 A 
HETATM   10  C   UNL     1     -43.462  59.962 -56.244  1.00  0.00     0.020 C 
HETATM   11  N   UNL     1     -43.032  60.045 -57.428  1.00  0.00    -0.096 N 
HETATM   12  C   UNL     1     -45.290  60.129 -54.564  1.00  0.00     0.139 A 
HETATM   13  O   UNL     1     -45.785  60.224 -53.249  1.00  0.00    -0.279 OA
ENDROOT
BRANCH   8  14
HETATM   14  C   UNL     1     -42.431  58.208 -53.648  1.00  0.00    -0.044 A 
HETATM   15  C   UNL     1     -43.284  57.125 -53.378  1.00  0.00     0.009 A 
HETATM   16  C   UNL     1     -42.779  55.828 -53.237  1.00  0.00     0.013 A 
HETATM   17  C   UNL     1     -41.410  55.561 -53.380  1.00  0.00    -0.026 A 
HETATM   18  C   UNL     1     -40.567  56.640 -53.695  1.00  0.00     0.013 A 
HETATM   19  C   UNL     1     -41.066  57.941 -53.828  1.00  0.00     0.009 A 
BRANCH  17  20
HETATM   20  C   UNL     1     -40.875  54.201 -53.177  1.00  0.00    -0.026 A 
HETATM   21  C   UNL     1     -40.560  53.724 -51.893  1.00  0.00     0.012 A 
HETATM   22  C   UNL     1     -40.028  52.445 -51.707  1.00  0.00     0.001 A 
HETATM   23  C   UNL     1     -39.804  51.615 -52.802  1.00  0.00     0.000 A 
HETATM   24  C   UNL     1     -40.113  52.064 -54.083  1.00  0.00     0.001 A 
HETATM   25  C   UNL     1     -40.642  53.344 -54.267  1.00  0.00     0.012 A 
ENDBRANCH  17  20
ENDBRANCH   8  14
BRANCH  12  26
HETATM   26  N   UNL     1     -46.257  60.362 -55.515  1.00  0.00    -0.282 NA
HETATM   27  H   UNL     1     -47.098  60.826 -55.182  1.00  0.00     0.126 HD
HETATM   28  H   UNL     1     -45.873  60.789 -56.354  1.00  0.00     0.126 HD
ENDBRANCH  12  26
TORSDOF 3
ENDMDL
MODEL 7
REMARK VINA RESULT:      -7.3      2.376      3.642
REMARK  3 active torsions:
REMARK  status: ('A' for Active; 'I' for Inactive)
REMARK    1  A    between atoms: C_8  and  C_9 
REMARK    2  A    between atoms: C_12  and  C_13 
REMARK    3  A    between atoms: C_24  and  N_25 
ROOT
HETATM    1  C   UNL     1     -46.923  58.017 -57.318  1.00  0.00     0.073 C 
HETATM    2  C   UNL     1     -46.258  58.068 -58.642  1.00  0.00     0.062 A 
HETATM    3  N   UNL     1     -46.886  57.607 -59.736  1.00  0.00    -0.177 NA
HETATM    4  N   UNL     1     -45.999  57.796 -60.735  1.00  0.00    -0.256 N 
HETATM    5  H   UNL     1     -46.257  57.526 -61.678  1.00  0.00     0.191 HD
HETATM    6  C   UNL     1     -44.842  58.364 -60.309  1.00  0.00     0.175 A 
HETATM    7  C   UNL     1     -44.965  58.547 -58.956  1.00  0.00     0.034 A 
HETATM    8  C   UNL     1     -43.846  59.158 -58.180  1.00  0.00     0.104 A 
HETATM    9  C   UNL     1     -42.762  59.648 -59.135  1.00  0.00     0.067 A 
HETATM   10  C   UNL     1     -41.728  60.601 -58.558  1.00  0.00     0.020 C 
HETATM   11  N   UNL     1     -40.869  61.392 -58.080  1.00  0.00    -0.096 N 
HETATM   12  C   UNL     1     -42.776  59.408 -60.475  1.00  0.00     0.139 A 
HETATM   13  O   UNL     1     -43.813  58.678 -61.087  1.00  0.00    -0.279 OA
ENDROOT
BRANCH   8  14
HETATM   14  C   UNL     1     -43.371  58.071 -57.226  1.00  0.00    -0.044 A 
HETATM   15  C   UNL     1     -43.224  58.294 -55.846  1.00  0.00     0.009 A 
HETATM   16  C   UNL     1     -42.715  57.299 -55.006  1.00  0.00     0.013 A 
HETATM   17  C   UNL     1     -42.352  56.040 -55.507  1.00  0.00    -0.026 A 
HETATM   18  C   UNL     1     -42.543  55.805 -56.878  1.00  0.00     0.013 A 
HETATM   19  C   UNL     1     -43.045  56.802 -57.725  1.00  0.00     0.009 A 
BRANCH  17  20
HETATM   20  C   UNL     1     -41.764  55.012 -54.625  1.00  0.00    -0.026 A 
HETATM   21  C   UNL     1     -40.767  54.136 -55.089  1.00  0.00     0.012 A 
HETATM   22  C   UNL     1     -40.232  53.146 -54.260  1.00  0.00     0.001 A 
HETATM   23  C   UNL     1     -40.681  53.014 -52.949  1.00  0.00     0.000 A 
HETATM   24  C   UNL     1     -41.664  53.873 -52.467  1.00  0.00     0.001 A 
HETATM   25  C   UNL     1     -42.200  54.860 -53.298  1.00  0.00     0.012 A 
ENDBRANCH  17  20
ENDBRANCH   8  14
BRANCH  12  26
HETATM   26  N   UNL     1     -41.836  59.855 -61.375  1.00  0.00    -0.282 NA
HETATM   27  H   UNL     1     -41.243  59.137 -61.785  1.00  0.00     0.126 HD
HETATM   28  H   UNL     1     -42.237  60.482 -62.067  1.00  0.00     0.126 HD
ENDBRANCH  12  26
TORSDOF 3
ENDMDL
MODEL 8
REMARK VINA RESULT:      -7.2      2.960      4.245
REMARK  3 active torsions:
REMARK  status: ('A' for Active; 'I' for Inactive)
REMARK    1  A    between atoms: C_8  and  C_9 
REMARK    2  A    between atoms: C_12  and  C_13 
REMARK    3  A    between atoms: C_24  and  N_25 
ROOT
HETATM    1  C   UNL     1     -47.334  57.946 -57.707  1.00  0.00     0.073 C 
HETATM    2  C   UNL     1     -46.416  57.571 -58.809  1.00  0.00     0.062 A 
HETATM    3  N   UNL     1     -46.836  56.766 -59.800  1.00  0.00    -0.177 NA
HETATM    4  N   UNL     1     -45.758  56.631 -60.600  1.00  0.00    -0.256 N 
HETATM    5  H   UNL     1     -45.836  56.063 -61.436  1.00  0.00     0.191 HD
HETATM    6  C   UNL     1     -44.682  57.326 -60.152  1.00  0.00     0.175 A 
HETATM    7  C   UNL     1     -45.063  57.941 -58.987  1.00  0.00     0.034 A 
HETATM    8  C   UNL     1     -44.092  58.790 -58.238  1.00  0.00     0.104 A 
HETATM    9  C   UNL     1     -42.814  58.958 -59.055  1.00  0.00     0.067 A 
HETATM   10  C   UNL     1     -41.867  60.063 -58.618  1.00  0.00     0.020 C 
HETATM   11  N   UNL     1     -41.081  60.981 -58.256  1.00  0.00    -0.096 N 
HETATM   12  C   UNL     1     -42.572  58.291 -60.217  1.00  0.00     0.139 A 
HETATM   13  O   UNL     1     -43.502  57.384 -60.760  1.00  0.00    -0.279 OA
ENDROOT
BRANCH   8  14
HETATM   14  C   UNL     1     -43.875  58.084 -56.907  1.00  0.00    -0.044 A 
HETATM   15  C   UNL     1     -43.268  56.821 -56.817  1.00  0.00     0.009 A 
HETATM   16  C   UNL     1     -43.151  56.164 -55.588  1.00  0.00     0.013 A 
HETATM   17  C   UNL     1     -43.616  56.751 -54.402  1.00  0.00    -0.026 A 
HETATM   18  C   UNL     1     -44.181  58.034 -54.490  1.00  0.00     0.013 A 
HETATM   19  C   UNL     1     -44.310  58.692 -55.720  1.00  0.00     0.009 A 
BRANCH  17  20
HETATM   20  C   UNL     1     -43.539  56.031 -53.116  1.00  0.00    -0.026 A 
HETATM   21  C   UNL     1     -43.161  54.678 -53.058  1.00  0.00     0.012 A 
HETATM   22  C   UNL     1     -43.115  53.991 -51.841  1.00  0.00     0.001 A 
HETATM   23  C   UNL     1     -43.442  54.646 -50.657  1.00  0.00     0.000 A 
HETATM   24  C   UNL     1     -43.814  55.987 -50.689  1.00  0.00     0.001 A 
HETATM   25  C   UNL     1     -43.863  56.671 -51.907  1.00  0.00     0.012 A 
ENDBRANCH  17  20
ENDBRANCH   8  14
BRANCH  12  26
HETATM   26  N   UNL     1     -41.449  58.433 -61.000  1.00  0.00    -0.282 NA
HETATM   27  H   UNL     1     -41.530  58.087 -61.953  1.00  0.00     0.126 HD
HETATM   28  H   UNL     1     -41.063  59.372 -60.949  1.00  0.00     0.126 HD
ENDBRANCH  12  26
TORSDOF 3
ENDMDL
MODEL 9
REMARK VINA RESULT:      -7.2      4.108      7.093
REMARK  3 active torsions:
REMARK  status: ('A' for Active; 'I' for Inactive)
REMARK    1  A    between atoms: C_8  and  C_9 
REMARK    2  A    between atoms: C_12  and  C_13 
REMARK    3  A    between atoms: C_24  and  N_25 
ROOT
HETATM    1  C   UNL     1     -41.091  54.876 -52.448  1.00  0.00     0.073 C 
HETATM    2  C   UNL     1     -42.382  55.137 -51.768  1.00  0.00     0.062 A 
HETATM    3  N   UNL     1     -43.089  54.124 -51.239  1.00  0.00    -0.177 NA
HETATM    4  N   UNL     1     -44.188  54.715 -50.725  1.00  0.00    -0.256 N 
HETATM    5  H   UNL     1     -44.880  54.141 -50.256  1.00  0.00     0.191 HD
HETATM    6  C   UNL     1     -44.192  56.060 -50.906  1.00  0.00     0.175 A 
HETATM    7  C   UNL     1     -43.044  56.374 -51.587  1.00  0.00     0.034 A 
HETATM    8  C   UNL     1     -42.752  57.792 -51.946  1.00  0.00     0.104 A 
HETATM    9  C   UNL     1     -43.781  58.712 -51.297  1.00  0.00     0.067 A 
HETATM   10  C   UNL     1     -43.441  60.193 -51.259  1.00  0.00     0.020 C 
HETATM   11  N   UNL     1     -43.159  61.423 -51.227  1.00  0.00    -0.096 N 
HETATM   12  C   UNL     1     -44.876  58.261 -50.626  1.00  0.00     0.139 A 
HETATM   13  O   UNL     1     -45.142  56.886 -50.480  1.00  0.00    -0.279 OA
ENDROOT
BRANCH   8  14
HETATM   14  C   UNL     1     -42.767  57.838 -53.468  1.00  0.00    -0.044 A 
HETATM   15  C   UNL     1     -43.701  57.118 -54.232  1.00  0.00     0.009 A 
HETATM   16  C   UNL     1     -43.643  57.122 -55.629  1.00  0.00     0.013 A 
HETATM   17  C   UNL     1     -42.666  57.858 -56.316  1.00  0.00    -0.026 A 
HETATM   18  C   UNL     1     -41.764  58.613 -55.549  1.00  0.00     0.013 A 
HETATM   19  C   UNL     1     -41.811  58.605 -54.149  1.00  0.00     0.009 A 
BRANCH  17  20
HETATM   20  C   UNL     1     -42.577  57.815 -57.788  1.00  0.00    -0.026 A 
HETATM   21  C   UNL     1     -42.197  58.947 -58.530  1.00  0.00     0.012 A 
HETATM   22  C   UNL     1     -42.140  58.912 -59.926  1.00  0.00     0.001 A 
HETATM   23  C   UNL     1     -42.457  57.740 -60.608  1.00  0.00     0.000 A 
HETATM   24  C   UNL     1     -42.830  56.605 -59.895  1.00  0.00     0.001 A 
HETATM   25  C   UNL     1     -42.890  56.644 -58.499  1.00  0.00     0.012 A 
ENDBRANCH  17  20
ENDBRANCH   8  14
BRANCH  12  26
HETATM   26  N   UNL     1     -45.812  59.052 -50.002  1.00  0.00    -0.282 NA
HETATM   27  H   UNL     1     -45.473  59.596 -49.212  1.00  0.00     0.126 HD
HETATM   28  H   UNL     1     -46.348  59.607 -50.664  1.00  0.00     0.126 HD
ENDBRANCH  12  26
TORSDOF 3
ENDMDL
MODEL 10
REMARK VINA RESULT:      -7.0      5.275      8.017
REMARK  3 active torsions:
REMARK  status: ('A' for Active; 'I' for Inactive)
REMARK    1  A    between atoms: C_8  and  C_9 
REMARK    2  A    between atoms: C_12  and  C_13 
REMARK    3  A    between atoms: C_24  and  N_25 
ROOT
HETATM    1  C   UNL     1     -42.211  56.266 -59.942  1.00  0.00     0.073 C 
HETATM    2  C   UNL     1     -43.671  56.519 -59.986  1.00  0.00     0.062 A 
HETATM    3  N   UNL     1     -44.431  55.956 -60.940  1.00  0.00    -0.177 NA
HETATM    4  N   UNL     1     -45.677  56.406 -60.685  1.00  0.00    -0.256 N 
HETATM    5  H   UNL     1     -46.439  56.104 -61.281  1.00  0.00     0.191 HD
HETATM    6  C   UNL     1     -45.727  57.224 -59.603  1.00  0.00     0.175 A 
HETATM    7  C   UNL     1     -44.446  57.332 -59.126  1.00  0.00     0.034 A 
HETATM    8  C   UNL     1     -44.163  58.174 -57.928  1.00  0.00     0.104 A 
HETATM    9  C   UNL     1     -45.474  58.661 -57.317  1.00  0.00     0.067 A 
HETATM   10  C   UNL     1     -45.399  59.228 -55.909  1.00  0.00     0.020 C 
HETATM   11  N   UNL     1     -45.338  59.698 -54.740  1.00  0.00    -0.096 N 
HETATM   12  C   UNL     1     -46.691  58.467 -57.896  1.00  0.00     0.139 A 
HETATM   13  O   UNL     1     -46.829  57.786 -59.121  1.00  0.00    -0.279 OA
ENDROOT
BRANCH   8  14
HETATM   14  C   UNL     1     -43.266  59.300 -58.424  1.00  0.00    -0.044 A 
HETATM   15  C   UNL     1     -43.584  60.071 -59.554  1.00  0.00     0.009 A 
HETATM   16  C   UNL     1     -42.705  61.049 -60.030  1.00  0.00     0.013 A 
HETATM   17  C   UNL     1     -41.486  61.306 -59.386  1.00  0.00    -0.026 A 
HETATM   18  C   UNL     1     -41.193  60.565 -58.229  1.00  0.00     0.013 A 
HETATM   19  C   UNL     1     -42.066  59.579 -57.754  1.00  0.00     0.009 A 
BRANCH  17  20
HETATM   20  C   UNL     1     -40.537  62.301 -59.922  1.00  0.00    -0.026 A 
HETATM   21  C   UNL     1     -40.373  62.481 -61.307  1.00  0.00     0.012 A 
HETATM   22  C   UNL     1     -39.454  63.404 -61.813  1.00  0.00     0.001 A 
HETATM   23  C   UNL     1     -38.683  64.171 -60.943  1.00  0.00     0.000 A 
HETATM   24  C   UNL     1     -38.832  64.014 -59.568  1.00  0.00     0.001 A 
HETATM   25  C   UNL     1     -39.749  63.088 -59.064  1.00  0.00     0.012 A 
ENDBRANCH  17  20
ENDBRANCH   8  14
BRANCH  12  26
HETATM   26  N   UNL     1     -47.898  58.863 -57.367  1.00  0.00    -0.282 NA
HETATM   27  H   UNL     1     -47.850  59.588 -56.655  1.00  0.00     0.126 HD
HETATM   28  H   UNL     1     -48.586  59.060 -58.090  1.00  0.00     0.126 HD
ENDBRANCH  12  26
TORSDOF 3
ENDMDL
