MODEL 1
REMARK VINA RESULT:      -8.6      0.000      0.000
REMARK  5 active torsions:
REMARK  status: ('A' for Active; 'I' for Inactive)
REMARK    1  A    between atoms: C_2  and  C_3 
REMARK    2  A    between atoms: C_8  and  C_9 
REMARK       I    between atoms: C_9  and  N_10 
REMARK    3  A    between atoms: N_10  and  C_11 
REMARK    4  A    between atoms: C_11  and  C_12 
REMARK    5  A    between atoms: C_19  and  C_20 
ROOT
HETATM    1  C   UNL     1     -40.692  54.657 -54.571  1.00  0.00     0.118 C 
HETATM    2  N   UNL     1     -41.789  54.318 -55.482  1.00  0.00    -0.366 N 
HETATM    3  C   UNL     1     -42.442  55.325 -56.099  1.00  0.00     0.123 A 
HETATM    4  N   UNL     1     -42.651  56.498 -55.440  1.00  0.00    -0.240 N 
HETATM    5  N   UNL     1     -43.249  57.448 -56.178  1.00  0.00    -0.165 NA
HETATM    6  C   UNL     1     -43.518  56.810 -57.342  1.00  0.00     0.148 A 
HETATM    7  C   UNL     1     -43.037  55.469 -57.321  1.00  0.00     0.088 A 
HETATM    8  C   UNL     1     -42.239  56.707 -54.071  1.00  0.00     0.221 C 
HETATM    9  C   UNL     1     -40.920  55.967 -53.780  1.00  0.00     0.066 C 
HETATM   10  H   UNL     1     -41.602  53.470 -56.019  1.00  0.00     0.161 HD
ENDROOT
BRANCH   6  11
HETATM   11  C   UNL     1     -44.226  57.467 -58.452  1.00  0.00     0.272 C 
HETATM   12  N   UNL     1     -45.123  56.647 -59.097  1.00  0.00    -0.353 N 
HETATM   13  H   UNL     1     -45.065  55.660 -58.851  1.00  0.00     0.162 HD
HETATM   14  O   UNL     1     -44.017  58.633 -58.777  1.00  0.00    -0.266 OA
BRANCH  12  15
HETATM   15  C   UNL     1     -45.719  57.014 -60.364  1.00  0.00     0.155 C 
BRANCH  15  16
HETATM   16  C   UNL     1     -47.235  57.212 -60.235  1.00  0.00     0.139 C 
HETATM   17  O   UNL     1     -47.904  56.284 -61.118  1.00  0.00    -0.384 OA
HETATM   18  C   UNL     1     -48.517  57.020 -62.186  1.00  0.00     0.168 C 
HETATM   19  C   UNL     1     -47.951  58.422 -62.137  1.00  0.00     0.029 C 
HETATM   20  C   UNL     1     -47.681  58.602 -60.665  1.00  0.00     0.035 C 
ENDBRANCH  15  16
ENDBRANCH  12  15
ENDBRANCH   6  11
BRANCH   8  21
HETATM   21  C   UNL     1     -43.350  56.295 -53.130  1.00  0.00     0.409 C 
HETATM   22  F   UNL     1     -44.549  56.799 -53.499  1.00  0.00    -0.169 F 
HETATM   23  F   UNL     1     -43.491  54.961 -52.999  1.00  0.00    -0.169 F 
HETATM   24  F   UNL     1     -43.100  56.784 -51.885  1.00  0.00    -0.169 F 
ENDBRANCH   8  21
BRANCH   1  25
HETATM   25  C   UNL     1     -40.380  53.478 -53.666  1.00  0.00    -0.035 A 
HETATM   26  C   UNL     1     -40.043  52.236 -54.231  1.00  0.00     0.010 A 
HETATM   27  C   UNL     1     -39.752  51.137 -53.418  1.00  0.00     0.019 A 
HETATM   28  C   UNL     1     -39.789  51.272 -52.033  1.00  0.00     0.011 A 
HETATM   29  C   UNL     1     -40.113  52.495 -51.453  1.00  0.00     0.019 A 
HETATM   30 BR   UNL     1     -39.402  49.784 -50.934  1.00  0.00    -0.051 Br
HETATM   31  C   UNL     1     -40.408  53.593 -52.267  1.00  0.00     0.010 A 
ENDBRANCH   1  25
TORSDOF 5
ENDMDL
MODEL 2
REMARK VINA RESULT:      -8.3      5.733      8.490
REMARK  5 active torsions:
REMARK  status: ('A' for Active; 'I' for Inactive)
REMARK    1  A    between atoms: C_2  and  C_3 
REMARK    2  A    between atoms: C_8  and  C_9 
REMARK       I    between atoms: C_9  and  N_10 
REMARK    3  A    between atoms: N_10  and  C_11 
REMARK    4  A    between atoms: C_11  and  C_12 
REMARK    5  A    between atoms: C_19  and  C_20 
ROOT
HETATM    1  C   UNL     1     -42.024  57.201 -53.309  1.00  0.00     0.118 C 
HETATM    2  N   UNL     1     -43.022  57.245 -52.237  1.00  0.00    -0.366 N 
HETATM    3  C   UNL     1     -43.350  58.448 -51.718  1.00  0.00     0.123 A 
HETATM    4  N   UNL     1     -42.396  59.409 -51.587  1.00  0.00    -0.240 N 
HETATM    5  N   UNL     1     -42.854  60.584 -51.125  1.00  0.00    -0.165 NA
HETATM    6  C   UNL     1     -44.157  60.324 -50.861  1.00  0.00     0.148 A 
HETATM    7  C   UNL     1     -44.499  58.985 -51.209  1.00  0.00     0.088 A 
HETATM    8  C   UNL     1     -41.012  59.187 -51.940  1.00  0.00     0.221 C 
HETATM    9  C   UNL     1     -40.904  58.259 -53.164  1.00  0.00     0.066 C 
HETATM   10  H   UNL     1     -43.770  56.563 -52.371  1.00  0.00     0.161 HD
ENDROOT
BRANCH   6  11
HETATM   11  C   UNL     1     -45.058  61.334 -50.282  1.00  0.00     0.272 C 
HETATM   12  N   UNL     1     -44.506  62.029 -49.231  1.00  0.00    -0.353 N 
HETATM   13  H   UNL     1     -43.629  61.653 -48.873  1.00  0.00     0.162 HD
HETATM   14  O   UNL     1     -46.199  61.519 -50.694  1.00  0.00    -0.266 OA
BRANCH  12  15
HETATM   15  C   UNL     1     -45.307  62.868 -48.366  1.00  0.00     0.155 C 
BRANCH  15  16
HETATM   16  C   UNL     1     -45.134  62.481 -46.891  1.00  0.00     0.139 C 
HETATM   17  O   UNL     1     -44.774  61.084 -46.814  1.00  0.00    -0.384 OA
HETATM   18  C   UNL     1     -45.868  60.354 -46.242  1.00  0.00     0.168 C 
HETATM   19  C   UNL     1     -47.066  61.277 -46.248  1.00  0.00     0.029 C 
HETATM   20  C   UNL     1     -46.421  62.631 -46.093  1.00  0.00     0.035 C 
ENDBRANCH  15  16
ENDBRANCH  12  15
ENDBRANCH   6  11
BRANCH   8  21
HETATM   21  C   UNL     1     -40.254  58.655 -50.744  1.00  0.00     0.409 C 
HETATM   22  F   UNL     1     -40.706  59.169 -49.578  1.00  0.00    -0.169 F 
HETATM   23  F   UNL     1     -40.277  57.312 -50.635  1.00  0.00    -0.169 F 
HETATM   24  F   UNL     1     -38.945  59.015 -50.835  1.00  0.00    -0.169 F 
ENDBRANCH   8  21
BRANCH   1  25
HETATM   25  C   UNL     1     -41.476  55.792 -53.456  1.00  0.00    -0.035 A 
HETATM   26  C   UNL     1     -41.739  54.835 -52.460  1.00  0.00     0.010 A 
HETATM   27  C   UNL     1     -41.245  53.532 -52.573  1.00  0.00     0.019 A 
HETATM   28  C   UNL     1     -40.490  53.173 -53.686  1.00  0.00     0.011 A 
HETATM   29  C   UNL     1     -40.226  54.103 -54.687  1.00  0.00     0.019 A 
HETATM   30 BR   UNL     1     -39.818  51.413 -53.836  1.00  0.00    -0.051 Br
HETATM   31  C   UNL     1     -40.716  55.406 -54.571  1.00  0.00     0.010 A 
ENDBRANCH   1  25
TORSDOF 5
ENDMDL
MODEL 3
REMARK VINA RESULT:      -8.2      2.029      2.910
REMARK  5 active torsions:
REMARK  status: ('A' for Active; 'I' for Inactive)
REMARK    1  A    between atoms: C_2  and  C_3 
REMARK    2  A    between atoms: C_8  and  C_9 
REMARK       I    between atoms: C_9  and  N_10 
REMARK    3  A    between atoms: N_10  and  C_11 
REMARK    4  A    between atoms: C_11  and  C_12 
REMARK    5  A    between atoms: C_19  and  C_20 
ROOT
HETATM    1  C   UNL     1     -40.747  54.748 -54.706  1.00  0.00     0.118 C 
HETATM    2  N   UNL     1     -41.842  54.395 -55.614  1.00  0.00    -0.366 N 
HETATM    3  C   UNL     1     -42.492  55.393 -56.249  1.00  0.00     0.123 A 
HETATM    4  N   UNL     1     -42.703  56.576 -55.610  1.00  0.00    -0.240 N 
HETATM    5  N   UNL     1     -43.298  57.515 -56.363  1.00  0.00    -0.165 NA
HETATM    6  C   UNL     1     -43.563  56.860 -57.518  1.00  0.00     0.148 A 
HETATM    7  C   UNL     1     -43.083  55.519 -57.476  1.00  0.00     0.088 A 
HETATM    8  C   UNL     1     -42.295  56.806 -54.242  1.00  0.00     0.221 C 
HETATM    9  C   UNL     1     -40.977  56.070 -53.936  1.00  0.00     0.066 C 
HETATM   10  H   UNL     1     -41.654  53.539 -56.138  1.00  0.00     0.161 HD
ENDROOT
BRANCH   6  11
HETATM   11  C   UNL     1     -44.267  57.500 -58.641  1.00  0.00     0.272 C 
HETATM   12  N   UNL     1     -43.486  58.382 -59.351  1.00  0.00    -0.353 N 
HETATM   13  H   UNL     1     -42.592  58.615 -58.922  1.00  0.00     0.162 HD
HETATM   14  O   UNL     1     -45.445  57.274 -58.902  1.00  0.00    -0.266 OA
BRANCH  12  15
HETATM   15  C   UNL     1     -44.055  59.300 -60.315  1.00  0.00     0.155 C 
BRANCH  15  16
HETATM   16  C   UNL     1     -42.963  60.051 -61.088  1.00  0.00     0.139 C 
HETATM   17  O   UNL     1     -41.749  60.046 -60.304  1.00  0.00    -0.384 OA
HETATM   18  C   UNL     1     -41.485  61.381 -59.849  1.00  0.00     0.168 C 
HETATM   19  C   UNL     1     -42.741  62.187 -60.098  1.00  0.00     0.029 C 
HETATM   20  C   UNL     1     -43.311  61.513 -61.320  1.00  0.00     0.035 C 
ENDBRANCH  15  16
ENDBRANCH  12  15
ENDBRANCH   6  11
BRANCH   8  21
HETATM   21  C   UNL     1     -43.409  56.409 -53.299  1.00  0.00     0.409 C 
HETATM   22  F   UNL     1     -44.594  56.963 -53.641  1.00  0.00    -0.169 F 
HETATM   23  F   UNL     1     -43.594  55.078 -53.198  1.00  0.00    -0.169 F 
HETATM   24  F   UNL     1     -43.129  56.858 -52.045  1.00  0.00    -0.169 F 
ENDBRANCH   8  21
BRANCH   1  25
HETATM   25  C   UNL     1     -40.439  53.583 -53.782  1.00  0.00    -0.035 A 
HETATM   26  C   UNL     1     -40.100  52.332 -54.326  1.00  0.00     0.010 A 
HETATM   27  C   UNL     1     -39.813  51.245 -53.496  1.00  0.00     0.019 A 
HETATM   28  C   UNL     1     -39.855  51.402 -52.112  1.00  0.00     0.011 A 
HETATM   29  C   UNL     1     -40.180  52.634 -51.553  1.00  0.00     0.019 A 
HETATM   30 BR   UNL     1     -39.472  49.931 -50.990  1.00  0.00    -0.051 Br
HETATM   31  C   UNL     1     -40.472  53.719 -52.385  1.00  0.00     0.010 A 
ENDBRANCH   1  25
TORSDOF 5
ENDMDL
MODEL 4
REMARK VINA RESULT:      -8.2      0.918      1.686
REMARK  5 active torsions:
REMARK  status: ('A' for Active; 'I' for Inactive)
REMARK    1  A    between atoms: C_2  and  C_3 
REMARK    2  A    between atoms: C_8  and  C_9 
REMARK       I    between atoms: C_9  and  N_10 
REMARK    3  A    between atoms: N_10  and  C_11 
REMARK    4  A    between atoms: C_11  and  C_12 
REMARK    5  A    between atoms: C_19  and  C_20 
ROOT
HETATM    1  C   UNL     1     -40.681  54.647 -54.641  1.00  0.00     0.118 C 
HETATM    2  N   UNL     1     -41.735  54.317 -55.605  1.00  0.00    -0.366 N 
HETATM    3  C   UNL     1     -42.380  55.332 -56.219  1.00  0.00     0.123 A 
HETATM    4  N   UNL     1     -42.635  56.482 -55.536  1.00  0.00    -0.240 N 
HETATM    5  N   UNL     1     -43.218  57.443 -56.269  1.00  0.00    -0.165 NA
HETATM    6  C   UNL     1     -43.430  56.836 -57.461  1.00  0.00     0.148 A 
HETATM    7  C   UNL     1     -42.927  55.502 -57.460  1.00  0.00     0.088 A 
HETATM    8  C   UNL     1     -42.281  56.656 -54.145  1.00  0.00     0.221 C 
HETATM    9  C   UNL     1     -40.962  55.929 -53.823  1.00  0.00     0.066 C 
HETATM   10  H   UNL     1     -41.513  53.489 -56.159  1.00  0.00     0.161 HD
ENDROOT
BRANCH   6  11
HETATM   11  C   UNL     1     -44.103  57.514 -58.580  1.00  0.00     0.272 C 
HETATM   12  N   UNL     1     -45.325  56.969 -58.901  1.00  0.00    -0.353 N 
HETATM   13  H   UNL     1     -45.534  56.077 -58.456  1.00  0.00     0.162 HD
HETATM   14  O   UNL     1     -43.606  58.465 -59.177  1.00  0.00    -0.266 OA
BRANCH  12  15
HETATM   15  C   UNL     1     -46.019  57.316 -60.123  1.00  0.00     0.155 C 
BRANCH  15  16
HETATM   16  C   UNL     1     -47.359  58.003 -59.833  1.00  0.00     0.139 C 
HETATM   17  O   UNL     1     -47.616  58.980 -60.866  1.00  0.00    -0.384 OA
HETATM   18  C   UNL     1     -47.519  60.293 -60.298  1.00  0.00     0.168 C 
HETATM   19  C   UNL     1     -46.876  60.138 -58.937  1.00  0.00     0.029 C 
HETATM   20  C   UNL     1     -47.350  58.769 -58.519  1.00  0.00     0.035 C 
ENDBRANCH  15  16
ENDBRANCH  12  15
ENDBRANCH   6  11
BRANCH   8  21
HETATM   21  C   UNL     1     -43.422  56.200 -53.263  1.00  0.00     0.409 C 
HETATM   22  F   UNL     1     -43.439  54.859 -53.096  1.00  0.00    -0.169 F 
HETATM   23  F   UNL     1     -43.427  56.764 -52.039  1.00  0.00    -0.169 F 
HETATM   24  F   UNL     1     -44.608  56.525 -53.844  1.00  0.00    -0.169 F 
ENDBRANCH   8  21
BRANCH   1  25
HETATM   25  C   UNL     1     -40.386  53.447 -53.758  1.00  0.00    -0.035 A 
HETATM   26  C   UNL     1     -40.404  53.589 -52.360  1.00  0.00     0.010 A 
HETATM   27  C   UNL     1     -40.135  52.499 -51.527  1.00  0.00     0.019 A 
HETATM   28  C   UNL     1     -39.853  51.255 -52.086  1.00  0.00     0.011 A 
HETATM   29  C   UNL     1     -39.838  51.091 -53.468  1.00  0.00     0.019 A 
HETATM   30 BR   UNL     1     -39.484  49.783 -50.960  1.00  0.00    -0.051 Br
HETATM   31  C   UNL     1     -40.103  52.182 -54.300  1.00  0.00     0.010 A 
ENDBRANCH   1  25
TORSDOF 5
ENDMDL
MODEL 5
REMARK VINA RESULT:      -8.1      5.284      7.948
REMARK  5 active torsions:
REMARK  status: ('A' for Active; 'I' for Inactive)
REMARK    1  A    between atoms: C_2  and  C_3 
REMARK    2  A    between atoms: C_8  and  C_9 
REMARK       I    between atoms: C_9  and  N_10 
REMARK    3  A    between atoms: N_10  and  C_11 
REMARK    4  A    between atoms: C_11  and  C_12 
REMARK    5  A    between atoms: C_19  and  C_20 
ROOT
HETATM    1  C   UNL     1     -41.883  54.679 -51.382  1.00  0.00     0.118 C 
HETATM    2  N   UNL     1     -41.162  55.933 -51.619  1.00  0.00    -0.366 N 
HETATM    3  C   UNL     1     -41.804  57.095 -51.375  1.00  0.00     0.123 A 
HETATM    4  N   UNL     1     -43.136  57.199 -51.635  1.00  0.00    -0.240 N 
HETATM    5  N   UNL     1     -43.677  58.377 -51.288  1.00  0.00    -0.165 NA
HETATM    6  C   UNL     1     -42.609  59.096 -50.868  1.00  0.00     0.148 A 
HETATM    7  C   UNL     1     -41.412  58.324 -50.923  1.00  0.00     0.088 A 
HETATM    8  C   UNL     1     -43.903  56.119 -52.214  1.00  0.00     0.221 C 
HETATM    9  C   UNL     1     -43.394  54.756 -51.707  1.00  0.00     0.066 C 
HETATM   10  H   UNL     1     -40.175  55.870 -51.364  1.00  0.00     0.161 HD
ENDROOT
BRANCH   6  11
HETATM   11  C   UNL     1     -42.727  60.495 -50.427  1.00  0.00     0.272 C 
HETATM   12  N   UNL     1     -43.729  60.701 -49.507  1.00  0.00    -0.353 N 
HETATM   13  H   UNL     1     -44.367  59.918 -49.376  1.00  0.00     0.162 HD
HETATM   14  O   UNL     1     -42.005  61.390 -50.858  1.00  0.00    -0.266 OA
BRANCH  12  15
HETATM   15  C   UNL     1     -44.176  62.031 -49.151  1.00  0.00     0.155 C 
BRANCH  15  16
HETATM   16  C   UNL     1     -45.460  61.986 -48.313  1.00  0.00     0.139 C 
HETATM   17  O   UNL     1     -45.423  63.058 -47.345  1.00  0.00    -0.384 OA
HETATM   18  C   UNL     1     -45.278  62.494 -46.034  1.00  0.00     0.168 C 
HETATM   19  C   UNL     1     -44.901  61.041 -46.218  1.00  0.00     0.029 C 
HETATM   20  C   UNL     1     -45.591  60.698 -47.514  1.00  0.00     0.035 C 
ENDBRANCH  15  16
ENDBRANCH  12  15
ENDBRANCH   6  11
BRANCH   8  21
HETATM   21  C   UNL     1     -43.876  56.219 -53.723  1.00  0.00     0.409 C 
HETATM   22  F   UNL     1     -42.680  56.641 -54.190  1.00  0.00    -0.169 F 
HETATM   23  F   UNL     1     -44.177  55.066 -54.354  1.00  0.00    -0.169 F 
HETATM   24  F   UNL     1     -44.790  57.137 -54.136  1.00  0.00    -0.169 F 
ENDBRANCH   8  21
BRANCH   1  25
HETATM   25  C   UNL     1     -41.192  53.534 -52.102  1.00  0.00    -0.035 A 
HETATM   26  C   UNL     1     -41.445  53.314 -53.467  1.00  0.00     0.010 A 
HETATM   27  C   UNL     1     -40.821  52.267 -54.150  1.00  0.00     0.019 A 
HETATM   28  C   UNL     1     -39.932  51.434 -53.476  1.00  0.00     0.011 A 
HETATM   29  C   UNL     1     -39.661  51.639 -52.126  1.00  0.00     0.019 A 
HETATM   30 BR   UNL     1     -39.093  50.014 -54.398  1.00  0.00    -0.051 Br
HETATM   31  C   UNL     1     -40.289  52.684 -51.443  1.00  0.00     0.010 A 
ENDBRANCH   1  25
TORSDOF 5
ENDMDL
MODEL 6
REMARK VINA RESULT:      -7.5      4.138      4.847
REMARK  5 active torsions:
REMARK  status: ('A' for Active; 'I' for Inactive)
REMARK    1  A    between atoms: C_2  and  C_3 
REMARK    2  A    between atoms: C_8  and  C_9 
REMARK       I    between atoms: C_9  and  N_10 
REMARK    3  A    between atoms: N_10  and  C_11 
REMARK    4  A    between atoms: C_11  and  C_12 
REMARK    5  A    between atoms: C_19  and  C_20 
ROOT
HETATM    1  C   UNL     1     -41.938  55.006 -52.525  1.00  0.00     0.118 C 
HETATM    2  N   UNL     1     -41.029  55.938 -53.199  1.00  0.00    -0.366 N 
HETATM    3  C   UNL     1     -41.566  56.955 -53.905  1.00  0.00     0.123 A 
HETATM    4  N   UNL     1     -42.724  56.763 -54.593  1.00  0.00    -0.240 N 
HETATM    5  N   UNL     1     -43.197  57.863 -55.200  1.00  0.00    -0.165 NA
HETATM    6  C   UNL     1     -42.235  58.786 -54.959  1.00  0.00     0.148 A 
HETATM    7  C   UNL     1     -41.187  58.244 -54.159  1.00  0.00     0.088 A 
HETATM    8  C   UNL     1     -43.397  55.485 -54.642  1.00  0.00     0.221 C 
HETATM    9  C   UNL     1     -43.247  54.738 -53.304  1.00  0.00     0.066 C 
HETATM   10  H   UNL     1     -40.189  56.128 -52.651  1.00  0.00     0.161 HD
ENDROOT
BRANCH   6  11
HETATM   11  C   UNL     1     -42.311  60.157 -55.487  1.00  0.00     0.272 C 
HETATM   12  N   UNL     1     -42.146  60.234 -56.851  1.00  0.00    -0.353 N 
HETATM   13  H   UNL     1     -41.824  59.378 -57.299  1.00  0.00     0.162 HD
HETATM   14  O   UNL     1     -42.488  61.137 -54.768  1.00  0.00    -0.266 OA
BRANCH  12  15
HETATM   15  C   UNL     1     -41.925  61.496 -57.523  1.00  0.00     0.155 C 
BRANCH  15  16
HETATM   16  C   UNL     1     -40.984  61.336 -58.724  1.00  0.00     0.139 C 
HETATM   17  O   UNL     1     -39.841  62.201 -58.539  1.00  0.00    -0.384 OA
HETATM   18  C   UNL     1     -39.899  63.259 -59.507  1.00  0.00     0.168 C 
HETATM   19  C   UNL     1     -41.285  63.228 -60.112  1.00  0.00     0.029 C 
HETATM   20  C   UNL     1     -41.630  61.762 -60.034  1.00  0.00     0.035 C 
ENDBRANCH  15  16
ENDBRANCH  12  15
ENDBRANCH   6  11
BRANCH   8  21
HETATM   21  C   UNL     1     -42.885  54.677 -55.814  1.00  0.00     0.409 C 
HETATM   22  F   UNL     1     -43.210  55.233 -57.003  1.00  0.00    -0.169 F 
HETATM   23  F   UNL     1     -41.551  54.484 -55.805  1.00  0.00    -0.169 F 
HETATM   24  F   UNL     1     -43.456  53.442 -55.804  1.00  0.00    -0.169 F 
ENDBRANCH   8  21
BRANCH   1  25
HETATM   25  C   UNL     1     -41.202  53.726 -52.166  1.00  0.00    -0.035 A 
HETATM   26  C   UNL     1     -41.132  53.316 -50.823  1.00  0.00     0.010 A 
HETATM   27  C   UNL     1     -40.460  52.143 -50.469  1.00  0.00     0.019 A 
HETATM   28  C   UNL     1     -39.859  51.365 -51.456  1.00  0.00     0.011 A 
HETATM   29  C   UNL     1     -39.924  51.749 -52.792  1.00  0.00     0.019 A 
HETATM   30 BR   UNL     1     -38.946  49.782 -50.976  1.00  0.00    -0.051 Br
HETATM   31  C   UNL     1     -40.592  52.925 -53.145  1.00  0.00     0.010 A 
ENDBRANCH   1  25
TORSDOF 5
ENDMDL
MODEL 7
REMARK VINA RESULT:      -7.5      5.106      6.517
REMARK  5 active torsions:
REMARK  status: ('A' for Active; 'I' for Inactive)
REMARK    1  A    between atoms: C_2  and  C_3 
REMARK    2  A    between atoms: C_8  and  C_9 
REMARK       I    between atoms: C_9  and  N_10 
REMARK    3  A    between atoms: N_10  and  C_11 
REMARK    4  A    between atoms: C_11  and  C_12 
REMARK    5  A    between atoms: C_19  and  C_20 
ROOT
HETATM    1  C   UNL     1     -41.770  54.783 -51.665  1.00  0.00     0.118 C 
HETATM    2  N   UNL     1     -41.089  56.012 -52.080  1.00  0.00    -0.366 N 
HETATM    3  C   UNL     1     -41.717  57.190 -51.881  1.00  0.00     0.123 A 
HETATM    4  N   UNL     1     -43.069  57.266 -52.021  1.00  0.00    -0.240 N 
HETATM    5  N   UNL     1     -43.589  58.470 -51.730  1.00  0.00    -0.165 NA
HETATM    6  C   UNL     1     -42.493  59.226 -51.480  1.00  0.00     0.148 A 
HETATM    7  C   UNL     1     -41.298  58.456 -51.580  1.00  0.00     0.088 A 
HETATM    8  C   UNL     1     -43.875  56.136 -52.425  1.00  0.00     0.221 C 
HETATM    9  C   UNL     1     -43.306  54.827 -51.849  1.00  0.00     0.066 C 
HETATM   10  H   UNL     1     -40.082  55.975 -51.917  1.00  0.00     0.161 HD
ENDROOT
BRANCH   6  11
HETATM   11  C   UNL     1     -42.584  60.659 -51.156  1.00  0.00     0.272 C 
HETATM   12  N   UNL     1     -43.591  61.314 -51.828  1.00  0.00    -0.353 N 
HETATM   13  H   UNL     1     -44.028  60.784 -52.581  1.00  0.00     0.162 HD
HETATM   14  O   UNL     1     -41.819  61.213 -50.372  1.00  0.00    -0.266 OA
BRANCH  12  15
HETATM   15  C   UNL     1     -43.679  62.758 -51.852  1.00  0.00     0.155 C 
BRANCH  15  16
HETATM   16  C   UNL     1     -44.853  63.263 -51.005  1.00  0.00     0.139 C 
HETATM   17  O   UNL     1     -45.809  62.192 -50.847  1.00  0.00    -0.384 OA
HETATM   18  C   UNL     1     -46.998  62.518 -51.581  1.00  0.00     0.168 C 
HETATM   19  C   UNL     1     -46.654  63.686 -52.479  1.00  0.00     0.029 C 
HETATM   20  C   UNL     1     -45.605  64.406 -51.670  1.00  0.00     0.035 C 
ENDBRANCH  15  16
ENDBRANCH  12  15
ENDBRANCH   6  11
BRANCH   8  21
HETATM   21  C   UNL     1     -43.994  56.101 -53.933  1.00  0.00     0.409 C 
HETATM   22  F   UNL     1     -45.048  56.817 -54.383  1.00  0.00    -0.169 F 
HETATM   23  F   UNL     1     -42.896  56.541 -54.579  1.00  0.00    -0.169 F 
HETATM   24  F   UNL     1     -44.201  54.821 -54.345  1.00  0.00    -0.169 F 
ENDBRANCH   8  21
BRANCH   1  25
HETATM   25  C   UNL     1     -41.137  53.580 -52.342  1.00  0.00    -0.035 A 
HETATM   26  C   UNL     1     -40.281  52.738 -51.611  1.00  0.00     0.010 A 
HETATM   27  C   UNL     1     -39.687  51.626 -52.214  1.00  0.00     0.019 A 
HETATM   28  C   UNL     1     -39.949  51.341 -53.551  1.00  0.00     0.011 A 
HETATM   29  C   UNL     1     -40.800  52.157 -54.291  1.00  0.00     0.019 A 
HETATM   30 BR   UNL     1     -39.142  49.840 -54.367  1.00  0.00    -0.051 Br
HETATM   31  C   UNL     1     -41.391  53.272 -53.689  1.00  0.00     0.010 A 
ENDBRANCH   1  25
TORSDOF 5
ENDMDL
MODEL 8
REMARK VINA RESULT:      -7.4      4.953      6.730
REMARK  5 active torsions:
REMARK  status: ('A' for Active; 'I' for Inactive)
REMARK    1  A    between atoms: C_2  and  C_3 
REMARK    2  A    between atoms: C_8  and  C_9 
REMARK       I    between atoms: C_9  and  N_10 
REMARK    3  A    between atoms: N_10  and  C_11 
REMARK    4  A    between atoms: C_11  and  C_12 
REMARK    5  A    between atoms: C_19  and  C_20 
ROOT
HETATM    1  C   UNL     1     -40.809  55.557 -52.442  1.00  0.00     0.118 C 
HETATM    2  N   UNL     1     -41.746  56.213 -53.358  1.00  0.00    -0.366 N 
HETATM    3  C   UNL     1     -42.403  57.309 -52.925  1.00  0.00     0.123 A 
HETATM    4  N   UNL     1     -42.799  57.389 -51.625  1.00  0.00    -0.240 N 
HETATM    5  N   UNL     1     -43.381  58.553 -51.294  1.00  0.00    -0.165 NA
HETATM    6  C   UNL     1     -43.441  59.214 -52.474  1.00  0.00     0.148 A 
HETATM    7  C   UNL     1     -42.848  58.455 -53.524  1.00  0.00     0.088 A 
HETATM    8  C   UNL     1     -42.586  56.317 -50.679  1.00  0.00     0.221 C 
HETATM    9  C   UNL     1     -41.254  55.599 -50.960  1.00  0.00     0.066 C 
HETATM   10  H   UNL     1     -41.417  56.206 -54.325  1.00  0.00     0.161 HD
ENDROOT
BRANCH   6  11
HETATM   11  C   UNL     1     -44.057  60.545 -52.599  1.00  0.00     0.272 C 
HETATM   12  N   UNL     1     -43.316  61.553 -52.026  1.00  0.00    -0.353 N 
HETATM   13  H   UNL     1     -42.538  61.244 -51.446  1.00  0.00     0.162 HD
HETATM   14  O   UNL     1     -45.140  60.726 -53.149  1.00  0.00    -0.266 OA
BRANCH  12  15
HETATM   15  C   UNL     1     -43.864  62.875 -51.811  1.00  0.00     0.155 C 
BRANCH  15  16
HETATM   16  C   UNL     1     -44.133  63.136 -50.323  1.00  0.00     0.139 C 
HETATM   17  O   UNL     1     -43.866  61.925 -49.582  1.00  0.00    -0.384 OA
HETATM   18  C   UNL     1     -45.106  61.403 -49.083  1.00  0.00     0.168 C 
HETATM   19  C   UNL     1     -46.214  62.143 -49.799  1.00  0.00     0.029 C 
HETATM   20  C   UNL     1     -45.586  63.491 -50.045  1.00  0.00     0.035 C 
ENDBRANCH  15  16
ENDBRANCH  12  15
ENDBRANCH   6  11
BRANCH   8  21
HETATM   21  C   UNL     1     -43.766  55.371 -50.697  1.00  0.00     0.409 C 
HETATM   22  F   UNL     1     -44.936  56.004 -50.454  1.00  0.00    -0.169 F 
HETATM   23  F   UNL     1     -43.904  54.689 -51.851  1.00  0.00    -0.169 F 
HETATM   24  F   UNL     1     -43.625  54.444 -49.712  1.00  0.00    -0.169 F 
ENDBRANCH   8  21
BRANCH   1  25
HETATM   25  C   UNL     1     -40.511  54.147 -52.920  1.00  0.00    -0.035 A 
HETATM   26  C   UNL     1     -40.127  53.163 -51.993  1.00  0.00     0.010 A 
HETATM   27  C   UNL     1     -39.847  51.859 -52.410  1.00  0.00     0.019 A 
HETATM   28  C   UNL     1     -39.954  51.525 -53.758  1.00  0.00     0.011 A 
HETATM   29  C   UNL     1     -40.340  52.483 -54.691  1.00  0.00     0.019 A 
HETATM   30 BR   UNL     1     -39.570  49.763 -54.322  1.00  0.00    -0.051 Br
HETATM   31  C   UNL     1     -40.616  53.788 -54.274  1.00  0.00     0.010 A 
ENDBRANCH   1  25
TORSDOF 5
ENDMDL
MODEL 9
REMARK VINA RESULT:      -7.3      4.778      9.722
REMARK  5 active torsions:
REMARK  status: ('A' for Active; 'I' for Inactive)
REMARK    1  A    between atoms: C_2  and  C_3 
REMARK    2  A    between atoms: C_8  and  C_9 
REMARK       I    between atoms: C_9  and  N_10 
REMARK    3  A    between atoms: N_10  and  C_11 
REMARK    4  A    between atoms: C_11  and  C_12 
REMARK    5  A    between atoms: C_19  and  C_20 
ROOT
HETATM    1  C   UNL     1     -45.275  58.872 -59.349  1.00  0.00     0.118 C 
HETATM    2  N   UNL     1     -45.404  58.303 -58.005  1.00  0.00    -0.366 N 
HETATM    3  C   UNL     1     -44.370  57.590 -57.510  1.00  0.00     0.123 A 
HETATM    4  N   UNL     1     -43.631  56.806 -58.342  1.00  0.00    -0.240 N 
HETATM    5  N   UNL     1     -42.589  56.200 -57.751  1.00  0.00    -0.165 NA
HETATM    6  C   UNL     1     -42.729  56.546 -56.449  1.00  0.00     0.148 A 
HETATM    7  C   UNL     1     -43.848  57.408 -56.260  1.00  0.00     0.088 A 
HETATM    8  C   UNL     1     -43.932  56.663 -59.749  1.00  0.00     0.221 C 
HETATM    9  C   UNL     1     -44.471  57.984 -60.329  1.00  0.00     0.066 C 
HETATM   10  H   UNL     1     -45.907  58.921 -57.366  1.00  0.00     0.161 HD
ENDROOT
BRANCH   6  11
HETATM   11  C   UNL     1     -41.816  56.058 -55.404  1.00  0.00     0.272 C 
HETATM   12  N   UNL     1     -40.989  55.041 -55.823  1.00  0.00    -0.353 N 
HETATM   13  H   UNL     1     -41.222  54.637 -56.729  1.00  0.00     0.162 HD
HETATM   14  O   UNL     1     -41.810  56.511 -54.263  1.00  0.00    -0.266 OA
BRANCH  12  15
HETATM   15  C   UNL     1     -40.213  54.254 -54.889  1.00  0.00     0.155 C 
BRANCH  15  16
HETATM   16  C   UNL     1     -41.091  53.242 -54.142  1.00  0.00     0.139 C 
HETATM   17  O   UNL     1     -41.028  53.525 -52.727  1.00  0.00    -0.384 OA
HETATM   18  C   UNL     1     -40.317  52.465 -52.072  1.00  0.00     0.168 C 
HETATM   19  C   UNL     1     -39.645  51.650 -53.156  1.00  0.00     0.029 C 
HETATM   20  C   UNL     1     -40.603  51.811 -54.309  1.00  0.00     0.035 C 
ENDBRANCH  15  16
ENDBRANCH  12  15
ENDBRANCH   6  11
BRANCH   8  21
HETATM   21  C   UNL     1     -44.889  55.510 -59.956  1.00  0.00     0.409 C 
HETATM   22  F   UNL     1     -44.522  54.406 -59.266  1.00  0.00    -0.169 F 
HETATM   23  F   UNL     1     -46.166  55.791 -59.626  1.00  0.00    -0.169 F 
HETATM   24  F   UNL     1     -44.897  55.151 -61.268  1.00  0.00    -0.169 F 
ENDBRANCH   8  21
BRANCH   1  25
HETATM   25  C   UNL     1     -46.643  59.246 -59.892  1.00  0.00    -0.035 A 
HETATM   26  C   UNL     1     -47.110  58.649 -61.076  1.00  0.00     0.010 A 
HETATM   27  C   UNL     1     -48.365  58.978 -61.595  1.00  0.00     0.019 A 
HETATM   28  C   UNL     1     -49.168  59.902 -60.931  1.00  0.00     0.011 A 
HETATM   29  C   UNL     1     -48.728  60.499 -59.754  1.00  0.00     0.019 A 
HETATM   30 BR   UNL     1     -50.863  60.351 -61.636  1.00  0.00    -0.051 Br
HETATM   31  C   UNL     1     -47.470  60.173 -59.238  1.00  0.00     0.010 A 
ENDBRANCH   1  25
TORSDOF 5
ENDMDL
MODEL 10
REMARK VINA RESULT:      -7.2      4.968      9.805
REMARK  5 active torsions:
REMARK  status: ('A' for Active; 'I' for Inactive)
REMARK    1  A    between atoms: C_2  and  C_3 
REMARK    2  A    between atoms: C_8  and  C_9 
REMARK       I    between atoms: C_9  and  N_10 
REMARK    3  A    between atoms: N_10  and  C_11 
REMARK    4  A    between atoms: C_11  and  C_12 
REMARK    5  A    between atoms: C_19  and  C_20 
ROOT
HETATM    1  C   UNL     1     -43.830  58.498 -59.584  1.00  0.00     0.118 C 
HETATM    2  N   UNL     1     -44.486  58.221 -58.302  1.00  0.00    -0.366 N 
HETATM    3  C   UNL     1     -43.957  57.267 -57.507  1.00  0.00     0.123 A 
HETATM    4  N   UNL     1     -43.402  56.156 -58.062  1.00  0.00    -0.240 N 
HETATM    5  N   UNL     1     -42.848  55.312 -57.177  1.00  0.00    -0.165 NA
HETATM    6  C   UNL     1     -43.150  55.876 -55.983  1.00  0.00     0.148 A 
HETATM    7  C   UNL     1     -43.860  57.100 -56.153  1.00  0.00     0.088 A 
HETATM    8  C   UNL     1     -43.390  55.921 -59.489  1.00  0.00     0.221 C 
HETATM    9  C   UNL     1     -43.223  57.244 -60.258  1.00  0.00     0.066 C 
HETATM   10  H   UNL     1     -44.848  59.066 -57.858  1.00  0.00     0.161 HD
ENDROOT
BRANCH   6  11
HETATM   11  C   UNL     1     -42.773  55.256 -54.703  1.00  0.00     0.272 C 
HETATM   12  N   UNL     1     -42.022  54.111 -54.844  1.00  0.00    -0.353 N 
HETATM   13  H   UNL     1     -41.967  53.741 -55.791  1.00  0.00     0.162 HD
HETATM   14  O   UNL     1     -43.115  55.714 -53.617  1.00  0.00    -0.266 OA
BRANCH  12  15
HETATM   15  C   UNL     1     -41.777  53.217 -53.732  1.00  0.00     0.155 C 
BRANCH  15  16
HETATM   16  C   UNL     1     -40.326  53.313 -53.244  1.00  0.00     0.139 C 
HETATM   17  O   UNL     1     -39.702  52.017 -53.381  1.00  0.00    -0.384 OA
HETATM   18  C   UNL     1     -39.460  51.478 -52.073  1.00  0.00     0.168 C 
HETATM   19  C   UNL     1     -40.240  52.328 -51.095  1.00  0.00     0.029 C 
HETATM   20  C   UNL     1     -40.228  53.676 -51.770  1.00  0.00     0.035 C 
ENDBRANCH  15  16
ENDBRANCH  12  15
ENDBRANCH   6  11
BRANCH   8  21
HETATM   21  C   UNL     1     -44.638  55.170 -59.897  1.00  0.00     0.409 C 
HETATM   22  F   UNL     1     -45.769  55.832 -59.565  1.00  0.00    -0.169 F 
HETATM   23  F   UNL     1     -44.702  54.889 -61.214  1.00  0.00    -0.169 F 
HETATM   24  F   UNL     1     -44.689  53.978 -59.243  1.00  0.00    -0.169 F 
ENDBRANCH   8  21
BRANCH   1  25
HETATM   25  C   UNL     1     -44.776  59.251 -60.503  1.00  0.00    -0.035 A 
HETATM   26  C   UNL     1     -44.275  60.261 -61.343  1.00  0.00     0.010 A 
HETATM   27  C   UNL     1     -45.126  60.968 -62.197  1.00  0.00     0.019 A 
HETATM   28  C   UNL     1     -46.485  60.667 -62.223  1.00  0.00     0.011 A 
HETATM   29  C   UNL     1     -47.001  59.666 -61.405  1.00  0.00     0.019 A 
HETATM   30 BR   UNL     1     -47.637  61.627 -63.373  1.00  0.00    -0.051 Br
HETATM   31  C   UNL     1     -46.149  58.962 -60.548  1.00  0.00     0.010 A 
ENDBRANCH   1  25
TORSDOF 5
ENDMDL
