MODEL 1
REMARK VINA RESULT:      -7.5      0.000      0.000
REMARK  6 active torsions:
REMARK  status: ('A' for Active; 'I' for Inactive)
REMARK    1  A    between atoms: C_2  and  C_3 
REMARK    2  A    between atoms: C_3  and  O_4 
REMARK    3  A    between atoms: O_4  and  C_5 
REMARK    4  A    between atoms: C_9  and  C_10 
REMARK       I    between atoms: C_10  and  N_11 
REMARK    5  A    between atoms: N_11  and  C_12 
REMARK    6  A    between atoms: C_25  and  O_26 
ROOT
HETATM    1  C   UNL     1     -42.626  55.098 -56.316  1.00  0.00     0.256 C 
HETATM    2  N   UNL     1     -41.473  55.292 -55.572  1.00  0.00    -0.323 N 
HETATM    3  O   UNL     1     -43.499  54.268 -56.085  1.00  0.00    -0.267 OA
HETATM    4  H   UNL     1     -40.795  55.952 -55.933  1.00  0.00     0.169 HD
ENDROOT
BRANCH   1   5
HETATM    5  C   UNL     1     -42.783  55.967 -57.519  1.00  0.00     0.036 A 
HETATM    6  C   UNL     1     -42.341  57.293 -57.439  1.00  0.00     0.044 A 
HETATM    7  C   UNL     1     -42.473  58.153 -58.535  1.00  0.00     0.071 A 
HETATM    8  C   UNL     1     -43.063  57.700 -59.725  1.00  0.00     0.123 A 
HETATM    9 CL   UNL     1     -41.835  59.748 -58.359  1.00  0.00    -0.081 Cl
HETATM   10  C   UNL     1     -43.416  56.345 -59.825  1.00  0.00     0.104 A 
HETATM   11  C   UNL     1     -43.305  55.491 -58.724  1.00  0.00     0.056 A 
BRANCH   8  12
HETATM   12  O   UNL     1     -43.267  58.498 -60.821  1.00  0.00    -0.346 OA
BRANCH  12  13
HETATM   13  C   UNL     1     -44.427  59.335 -60.714  1.00  0.00     0.179 C 
BRANCH  13  14
HETATM   14  C   UNL     1     -44.129  60.757 -61.217  1.00  0.00     0.002 C 
HETATM   15  C   UNL     1     -42.712  60.869 -61.777  1.00  0.00     0.011 C 
HETATM   16  C   UNL     1     -44.351  61.802 -60.124  1.00  0.00     0.011 C 
ENDBRANCH  13  14
ENDBRANCH  12  13
ENDBRANCH   8  12
BRANCH  10  17
HETATM   17  O   UNL     1     -43.944  55.767 -60.953  1.00  0.00    -0.353 OA
HETATM   18  C   UNL     1     -45.341  55.491 -60.827  1.00  0.00     0.210 C 
ENDBRANCH  10  17
ENDBRANCH   1   5
BRANCH   2  19
HETATM   19  C   UNL     1     -41.100  54.614 -54.392  1.00  0.00     0.035 A 
HETATM   20  C   UNL     1     -41.184  55.180 -53.117  1.00  0.00     0.039 A 
HETATM   21  C   UNL     1     -40.795  54.425 -52.019  1.00  0.00    -0.022 A 
HETATM   22  C   UNL     1     -40.324  53.119 -52.164  1.00  0.00    -0.025 A 
HETATM   23  C   UNL     1     -40.841  54.812 -50.581  1.00  0.00     0.274 C 
HETATM   24  C   UNL     1     -40.011  52.530 -50.831  1.00  0.00     0.273 C 
HETATM   25  C   UNL     1     -40.234  52.537 -53.416  1.00  0.00     0.012 A 
HETATM   26  N   UNL     1     -40.061  53.712 -49.871  1.00  0.00    -0.067 N 
HETATM   27  H   UNL     1     -39.097  54.059 -49.799  1.00  0.00     0.280 HD
HETATM   28  C   UNL     1     -40.554  53.387 -48.508  1.00  0.00     0.270 C 
HETATM   29  C   UNL     1     -40.623  53.294 -54.530  1.00  0.00     0.030 A 
ENDBRANCH   2  19
TORSDOF 6
ENDMDL
MODEL 2
REMARK VINA RESULT:      -7.2      1.209      2.118
REMARK  6 active torsions:
REMARK  status: ('A' for Active; 'I' for Inactive)
REMARK    1  A    between atoms: C_2  and  C_3 
REMARK    2  A    between atoms: C_3  and  O_4 
REMARK    3  A    between atoms: O_4  and  C_5 
REMARK    4  A    between atoms: C_9  and  C_10 
REMARK       I    between atoms: C_10  and  N_11 
REMARK    5  A    between atoms: N_11  and  C_12 
REMARK    6  A    between atoms: C_25  and  O_26 
ROOT
HETATM    1  C   UNL     1     -42.655  55.026 -56.332  1.00  0.00     0.256 C 
HETATM    2  N   UNL     1     -41.455  55.082 -55.639  1.00  0.00    -0.323 N 
HETATM    3  O   UNL     1     -43.595  54.280 -56.081  1.00  0.00    -0.267 OA
HETATM    4  H   UNL     1     -40.731  55.683 -56.014  1.00  0.00     0.169 HD
ENDROOT
BRANCH   1   5
HETATM    5  C   UNL     1     -42.778  55.944 -57.501  1.00  0.00     0.036 A 
HETATM    6  C   UNL     1     -42.308  57.256 -57.366  1.00  0.00     0.044 A 
HETATM    7  C   UNL     1     -42.408  58.160 -58.429  1.00  0.00     0.071 A 
HETATM    8  C   UNL     1     -42.994  57.767 -59.642  1.00  0.00     0.123 A 
HETATM    9 CL   UNL     1     -41.736  59.732 -58.185  1.00  0.00    -0.081 Cl
HETATM   10  C   UNL     1     -43.376  56.424 -59.798  1.00  0.00     0.104 A 
HETATM   11  C   UNL     1     -43.296  55.526 -58.730  1.00  0.00     0.056 A 
BRANCH   8  12
HETATM   12  O   UNL     1     -43.167  58.610 -60.709  1.00  0.00    -0.346 OA
BRANCH  12  13
HETATM   13  C   UNL     1     -44.307  59.472 -60.580  1.00  0.00     0.179 C 
BRANCH  13  14
HETATM   14  C   UNL     1     -45.378  58.838 -59.679  1.00  0.00     0.002 C 
HETATM   15  C   UNL     1     -46.601  58.401 -60.483  1.00  0.00     0.011 C 
HETATM   16  C   UNL     1     -45.795  59.778 -58.548  1.00  0.00     0.011 C 
ENDBRANCH  13  14
ENDBRANCH  12  13
ENDBRANCH   8  12
BRANCH  10  17
HETATM   17  O   UNL     1     -43.903  55.902 -60.953  1.00  0.00    -0.353 OA
HETATM   18  C   UNL     1     -44.932  54.941 -60.703  1.00  0.00     0.210 C 
ENDBRANCH  10  17
ENDBRANCH   1   5
BRANCH   2  19
HETATM   19  C   UNL     1     -41.099  54.334 -54.497  1.00  0.00     0.035 A 
HETATM   20  C   UNL     1     -40.647  53.013 -54.549  1.00  0.00     0.039 A 
HETATM   21  C   UNL     1     -40.317  52.367 -53.366  1.00  0.00    -0.022 A 
HETATM   22  C   UNL     1     -40.428  53.010 -52.131  1.00  0.00    -0.025 A 
HETATM   23  C   UNL     1     -39.780  50.987 -53.196  1.00  0.00     0.274 C 
HETATM   24  C   UNL     1     -39.979  52.105 -51.035  1.00  0.00     0.273 C 
HETATM   25  C   UNL     1     -40.871  54.318 -52.054  1.00  0.00     0.012 A 
HETATM   26  N   UNL     1     -39.857  50.737 -51.694  1.00  0.00    -0.067 N 
HETATM   27  H   UNL     1     -40.757  50.267 -51.539  1.00  0.00     0.280 HD
HETATM   28  C   UNL     1     -38.770  49.880 -51.155  1.00  0.00     0.270 C 
HETATM   29  C   UNL     1     -41.208  54.975 -53.246  1.00  0.00     0.030 A 
ENDBRANCH   2  19
TORSDOF 6
ENDMDL
MODEL 3
REMARK VINA RESULT:      -7.0      6.837      9.790
REMARK  6 active torsions:
REMARK  status: ('A' for Active; 'I' for Inactive)
REMARK    1  A    between atoms: C_2  and  C_3 
REMARK    2  A    between atoms: C_3  and  O_4 
REMARK    3  A    between atoms: O_4  and  C_5 
REMARK    4  A    between atoms: C_9  and  C_10 
REMARK       I    between atoms: C_10  and  N_11 
REMARK    5  A    between atoms: N_11  and  C_12 
REMARK    6  A    between atoms: C_25  and  O_26 
ROOT
HETATM    1  C   UNL     1     -44.999  58.390 -50.910  1.00  0.00     0.256 C 
HETATM    2  N   UNL     1     -44.537  59.598 -50.412  1.00  0.00    -0.323 N 
HETATM    3  O   UNL     1     -46.144  57.962 -50.810  1.00  0.00    -0.267 OA
HETATM    4  H   UNL     1     -43.544  59.781 -50.488  1.00  0.00     0.169 HD
ENDROOT
BRANCH   1   5
HETATM    5  C   UNL     1     -43.987  57.537 -51.599  1.00  0.00     0.036 A 
HETATM    6  C   UNL     1     -44.149  57.293 -52.968  1.00  0.00     0.044 A 
HETATM    7  C   UNL     1     -43.235  56.492 -53.661  1.00  0.00     0.071 A 
HETATM    8  C   UNL     1     -42.149  55.912 -52.988  1.00  0.00     0.123 A 
HETATM    9 CL   UNL     1     -43.484  56.309 -55.360  1.00  0.00    -0.081 Cl
HETATM   10  C   UNL     1     -41.943  56.239 -51.638  1.00  0.00     0.104 A 
HETATM   11  C   UNL     1     -42.869  57.021 -50.940  1.00  0.00     0.056 A 
BRANCH   8  12
HETATM   12  O   UNL     1     -41.240  55.080 -53.591  1.00  0.00    -0.346 OA
BRANCH  12  13
HETATM   13  C   UNL     1     -41.588  53.691 -53.505  1.00  0.00     0.179 C 
BRANCH  13  14
HETATM   14  C   UNL     1     -40.332  52.816 -53.375  1.00  0.00     0.002 C 
HETATM   15  C   UNL     1     -40.434  51.555 -54.232  1.00  0.00     0.011 C 
HETATM   16  C   UNL     1     -40.047  52.445 -51.919  1.00  0.00     0.011 C 
ENDBRANCH  13  14
ENDBRANCH  12  13
ENDBRANCH   8  12
BRANCH  10  17
HETATM   17  O   UNL     1     -40.887  55.787 -50.887  1.00  0.00    -0.353 OA
HETATM   18  C   UNL     1     -41.275  55.411 -49.562  1.00  0.00     0.210 C 
ENDBRANCH  10  17
ENDBRANCH   1   5
BRANCH   2  19
HETATM   19  C   UNL     1     -45.291  60.582 -49.738  1.00  0.00     0.035 A 
HETATM   20  C   UNL     1     -45.454  60.617 -48.351  1.00  0.00     0.039 A 
HETATM   21  C   UNL     1     -46.212  61.633 -47.787  1.00  0.00    -0.022 A 
HETATM   22  C   UNL     1     -46.814  62.615 -48.576  1.00  0.00    -0.025 A 
HETATM   23  C   UNL     1     -46.478  61.881 -46.342  1.00  0.00     0.274 C 
HETATM   24  C   UNL     1     -47.536  63.597 -47.718  1.00  0.00     0.273 C 
HETATM   25  C   UNL     1     -46.666  62.603 -49.951  1.00  0.00     0.012 A 
HETATM   26  N   UNL     1     -47.562  62.952 -46.338  1.00  0.00    -0.067 N 
HETATM   27  H   UNL     1     -48.452  62.443 -46.281  1.00  0.00     0.280 HD
HETATM   28  C   UNL     1     -47.484  63.906 -45.202  1.00  0.00     0.270 C 
HETATM   29  C   UNL     1     -45.902  61.579 -50.528  1.00  0.00     0.030 A 
ENDBRANCH   2  19
TORSDOF 6
ENDMDL
MODEL 4
REMARK VINA RESULT:      -6.9      7.227      9.706
REMARK  6 active torsions:
REMARK  status: ('A' for Active; 'I' for Inactive)
REMARK    1  A    between atoms: C_2  and  C_3 
REMARK    2  A    between atoms: C_3  and  O_4 
REMARK    3  A    between atoms: O_4  and  C_5 
REMARK    4  A    between atoms: C_9  and  C_10 
REMARK       I    between atoms: C_10  and  N_11 
REMARK    5  A    between atoms: N_11  and  C_12 
REMARK    6  A    between atoms: C_25  and  O_26 
ROOT
HETATM    1  C   UNL     1     -45.336  58.984 -50.534  1.00  0.00     0.256 C 
HETATM    2  N   UNL     1     -44.591  59.997 -49.951  1.00  0.00    -0.323 N 
HETATM    3  O   UNL     1     -46.538  58.798 -50.383  1.00  0.00    -0.267 OA
HETATM    4  H   UNL     1     -43.588  59.975 -50.092  1.00  0.00     0.169 HD
ENDROOT
BRANCH   1   5
HETATM    5  C   UNL     1     -44.579  58.028 -51.393  1.00  0.00     0.036 A 
HETATM    6  C   UNL     1     -44.376  56.727 -50.917  1.00  0.00     0.044 A 
HETATM    7  C   UNL     1     -43.664  55.794 -51.679  1.00  0.00     0.071 A 
HETATM    8  C   UNL     1     -43.133  56.154 -52.927  1.00  0.00     0.123 A 
HETATM    9 CL   UNL     1     -43.529  54.198 -51.034  1.00  0.00    -0.081 Cl
HETATM   10  C   UNL     1     -43.423  57.431 -53.436  1.00  0.00     0.104 A 
HETATM   11  C   UNL     1     -44.115  58.371 -52.666  1.00  0.00     0.056 A 
BRANCH   8  12
HETATM   12  O   UNL     1     -42.388  55.308 -53.706  1.00  0.00    -0.346 OA
BRANCH  12  13
HETATM   13  C   UNL     1     -41.014  55.216 -53.303  1.00  0.00     0.179 C 
BRANCH  13  14
HETATM   14  C   UNL     1     -40.502  53.772 -53.416  1.00  0.00     0.002 C 
HETATM   15  C   UNL     1     -41.459  52.899 -54.226  1.00  0.00     0.011 C 
HETATM   16  C   UNL     1     -40.252  53.150 -52.042  1.00  0.00     0.011 C 
ENDBRANCH  13  14
ENDBRANCH  12  13
ENDBRANCH   8  12
BRANCH  10  17
HETATM   17  O   UNL     1     -43.015  57.881 -54.666  1.00  0.00    -0.353 OA
HETATM   18  C   UNL     1     -41.901  58.774 -54.584  1.00  0.00     0.210 C 
ENDBRANCH  10  17
ENDBRANCH   1   5
BRANCH   2  19
HETATM   19  C   UNL     1     -45.069  61.029 -49.115  1.00  0.00     0.035 A 
HETATM   20  C   UNL     1     -44.883  61.050 -47.730  1.00  0.00     0.039 A 
HETATM   21  C   UNL     1     -45.390  62.116 -47.000  1.00  0.00    -0.022 A 
HETATM   22  C   UNL     1     -46.079  63.160 -47.619  1.00  0.00    -0.025 A 
HETATM   23  C   UNL     1     -45.271  62.358 -45.534  1.00  0.00     0.274 C 
HETATM   24  C   UNL     1     -46.482  64.183 -46.612  1.00  0.00     0.273 C 
HETATM   25  C   UNL     1     -46.274  63.162 -48.989  1.00  0.00     0.012 A 
HETATM   26  N   UNL     1     -46.224  63.517 -45.266  1.00  0.00    -0.067 N 
HETATM   27  H   UNL     1     -47.114  63.084 -44.991  1.00  0.00     0.280 HD
HETATM   28  C   UNL     1     -45.788  64.439 -44.187  1.00  0.00     0.270 C 
HETATM   29  C   UNL     1     -45.767  62.088 -49.732  1.00  0.00     0.030 A 
ENDBRANCH   2  19
TORSDOF 6
ENDMDL
MODEL 5
REMARK VINA RESULT:      -6.9     16.303     19.144
REMARK  6 active torsions:
REMARK  status: ('A' for Active; 'I' for Inactive)
REMARK    1  A    between atoms: C_2  and  C_3 
REMARK    2  A    between atoms: C_3  and  O_4 
REMARK    3  A    between atoms: O_4  and  C_5 
REMARK    4  A    between atoms: C_9  and  C_10 
REMARK       I    between atoms: C_10  and  N_11 
REMARK    5  A    between atoms: N_11  and  C_12 
REMARK    6  A    between atoms: C_25  and  O_26 
ROOT
HETATM    1  C   UNL     1     -32.543  39.340 -51.976  1.00  0.00     0.256 C 
HETATM    2  N   UNL     1     -32.996  39.886 -50.785  1.00  0.00    -0.323 N 
HETATM    3  O   UNL     1     -31.761  38.402 -52.084  1.00  0.00    -0.267 OA
HETATM    4  H   UNL     1     -33.570  40.719 -50.846  1.00  0.00     0.169 HD
ENDROOT
BRANCH   1   5
HETATM    5  C   UNL     1     -33.040  39.988 -53.224  1.00  0.00     0.036 A 
HETATM    6  C   UNL     1     -34.224  40.732 -53.157  1.00  0.00     0.044 A 
HETATM    7  C   UNL     1     -34.740  41.352 -54.301  1.00  0.00     0.071 A 
HETATM    8  C   UNL     1     -34.082  41.226 -55.534  1.00  0.00     0.123 A 
HETATM    9 CL   UNL     1     -36.167  42.303 -54.099  1.00  0.00    -0.081 Cl
HETATM   10  C   UNL     1     -32.847  40.557 -55.570  1.00  0.00     0.104 A 
HETATM   11  C   UNL     1     -32.343  39.919 -54.433  1.00  0.00     0.056 A 
BRANCH   8  12
HETATM   12  O   UNL     1     -34.552  41.766 -56.702  1.00  0.00    -0.346 OA
BRANCH  12  13
HETATM   13  C   UNL     1     -35.502  40.932 -57.380  1.00  0.00     0.179 C 
BRANCH  13  14
HETATM   14  C   UNL     1     -36.832  41.672 -57.594  1.00  0.00     0.002 C 
HETATM   15  C   UNL     1     -38.004  40.910 -56.976  1.00  0.00     0.011 C 
HETATM   16  C   UNL     1     -37.098  41.942 -59.075  1.00  0.00     0.011 C 
ENDBRANCH  13  14
ENDBRANCH  12  13
ENDBRANCH   8  12
BRANCH  10  17
HETATM   17  O   UNL     1     -32.078  40.419 -56.698  1.00  0.00    -0.353 OA
HETATM   18  C   UNL     1     -30.903  39.637 -56.471  1.00  0.00     0.210 C 
ENDBRANCH  10  17
ENDBRANCH   1   5
BRANCH   2  19
HETATM   19  C   UNL     1     -32.689  39.449 -49.479  1.00  0.00     0.035 A 
HETATM   20  C   UNL     1     -31.613  39.940 -48.734  1.00  0.00     0.039 A 
HETATM   21  C   UNL     1     -31.401  39.446 -47.454  1.00  0.00    -0.022 A 
HETATM   22  C   UNL     1     -32.235  38.473 -46.902  1.00  0.00    -0.025 A 
HETATM   23  C   UNL     1     -30.350  39.856 -46.479  1.00  0.00     0.274 C 
HETATM   24  C   UNL     1     -31.804  38.149 -45.512  1.00  0.00     0.273 C 
HETATM   25  C   UNL     1     -33.307  37.973 -47.620  1.00  0.00     0.012 A 
HETATM   26  N   UNL     1     -30.439  38.812 -45.372  1.00  0.00    -0.067 N 
HETATM   27  H   UNL     1     -29.749  38.092 -45.616  1.00  0.00     0.280 HD
HETATM   28  C   UNL     1     -30.132  39.327 -44.013  1.00  0.00     0.270 C 
HETATM   29  C   UNL     1     -33.526  38.465 -48.914  1.00  0.00     0.030 A 
ENDBRANCH   2  19
TORSDOF 6
ENDMDL
MODEL 6
REMARK VINA RESULT:      -6.8     15.921     18.301
REMARK  6 active torsions:
REMARK  status: ('A' for Active; 'I' for Inactive)
REMARK    1  A    between atoms: C_2  and  C_3 
REMARK    2  A    between atoms: C_3  and  O_4 
REMARK    3  A    between atoms: O_4  and  C_5 
REMARK    4  A    between atoms: C_9  and  C_10 
REMARK       I    between atoms: C_10  and  N_11 
REMARK    5  A    between atoms: N_11  and  C_12 
REMARK    6  A    between atoms: C_25  and  O_26 
ROOT
HETATM    1  C   UNL     1     -34.376  40.895 -51.922  1.00  0.00     0.256 C 
HETATM    2  N   UNL     1     -33.734  39.726 -51.544  1.00  0.00    -0.323 N 
HETATM    3  O   UNL     1     -34.757  41.781 -51.166  1.00  0.00    -0.267 OA
HETATM    4  H   UNL     1     -33.558  39.039 -52.268  1.00  0.00     0.169 HD
ENDROOT
BRANCH   1   5
HETATM    5  C   UNL     1     -34.644  41.052 -53.381  1.00  0.00     0.036 A 
HETATM    6  C   UNL     1     -33.667  40.617 -54.284  1.00  0.00     0.044 A 
HETATM    7  C   UNL     1     -33.864  40.750 -55.663  1.00  0.00     0.071 A 
HETATM    8  C   UNL     1     -35.040  41.333 -56.158  1.00  0.00     0.123 A 
HETATM    9 CL   UNL     1     -32.630  40.119 -56.694  1.00  0.00    -0.081 Cl
HETATM   10  C   UNL     1     -36.052  41.679 -55.249  1.00  0.00     0.104 A 
HETATM   11  C   UNL     1     -35.847  41.567 -53.870  1.00  0.00     0.056 A 
BRANCH   8  12
HETATM   12  O   UNL     1     -35.281  41.537 -57.493  1.00  0.00    -0.346 OA
BRANCH  12  13
HETATM   13  C   UNL     1     -35.847  40.397 -58.155  1.00  0.00     0.179 C 
BRANCH  13  14
HETATM   14  C   UNL     1     -36.921  40.826 -59.168  1.00  0.00     0.002 C 
HETATM   15  C   UNL     1     -37.129  42.339 -59.158  1.00  0.00     0.011 C 
HETATM   16  C   UNL     1     -38.248  40.106 -58.926  1.00  0.00     0.011 C 
ENDBRANCH  13  14
ENDBRANCH  12  13
ENDBRANCH   8  12
BRANCH  10  17
HETATM   17  O   UNL     1     -37.269  42.200 -55.610  1.00  0.00    -0.353 OA
HETATM   18  C   UNL     1     -38.334  41.254 -55.479  1.00  0.00     0.210 C 
ENDBRANCH  10  17
ENDBRANCH   1   5
BRANCH   2  19
HETATM   19  C   UNL     1     -33.355  39.348 -50.238  1.00  0.00     0.035 A 
HETATM   20  C   UNL     1     -32.222  39.844 -49.588  1.00  0.00     0.039 A 
HETATM   21  C   UNL     1     -31.942  39.412 -48.299  1.00  0.00    -0.022 A 
HETATM   22  C   UNL     1     -32.766  38.495 -47.645  1.00  0.00    -0.025 A 
HETATM   23  C   UNL     1     -30.821  39.839 -47.415  1.00  0.00     0.274 C 
HETATM   24  C   UNL     1     -32.257  38.231 -46.269  1.00  0.00     0.273 C 
HETATM   25  C   UNL     1     -33.895  37.991 -48.267  1.00  0.00     0.012 A 
HETATM   26  N   UNL     1     -30.868  38.858 -46.250  1.00  0.00    -0.067 N 
HETATM   27  H   UNL     1     -30.215  38.105 -46.496  1.00  0.00     0.280 HD
HETATM   28  C   UNL     1     -30.462  39.433 -44.942  1.00  0.00     0.270 C 
HETATM   29  C   UNL     1     -34.183  38.422 -49.569  1.00  0.00     0.030 A 
ENDBRANCH   2  19
TORSDOF 6
ENDMDL
MODEL 7
REMARK VINA RESULT:      -6.8     16.167     19.032
REMARK  6 active torsions:
REMARK  status: ('A' for Active; 'I' for Inactive)
REMARK    1  A    between atoms: C_2  and  C_3 
REMARK    2  A    between atoms: C_3  and  O_4 
REMARK    3  A    between atoms: O_4  and  C_5 
REMARK    4  A    between atoms: C_9  and  C_10 
REMARK       I    between atoms: C_10  and  N_11 
REMARK    5  A    between atoms: N_11  and  C_12 
REMARK    6  A    between atoms: C_25  and  O_26 
ROOT
HETATM    1  C   UNL     1     -32.601  39.514 -51.697  1.00  0.00     0.256 C 
HETATM    2  N   UNL     1     -33.137  39.879 -50.473  1.00  0.00    -0.323 N 
HETATM    3  O   UNL     1     -31.658  38.751 -51.870  1.00  0.00    -0.267 OA
HETATM    4  H   UNL     1     -33.858  40.591 -50.476  1.00  0.00     0.169 HD
ENDROOT
BRANCH   1   5
HETATM    5  C   UNL     1     -33.225  40.143 -52.898  1.00  0.00     0.036 A 
HETATM    6  C   UNL     1     -32.576  40.006 -54.130  1.00  0.00     0.044 A 
HETATM    7  C   UNL     1     -33.113  40.585 -55.286  1.00  0.00     0.071 A 
HETATM    8  C   UNL     1     -34.305  41.321 -55.221  1.00  0.00     0.123 A 
HETATM    9 CL   UNL     1     -32.273  40.299 -56.767  1.00  0.00    -0.081 Cl
HETATM   10  C   UNL     1     -34.997  41.373 -53.999  1.00  0.00     0.104 A 
HETATM   11  C   UNL     1     -34.449  40.814 -52.840  1.00  0.00     0.056 A 
BRANCH   8  12
HETATM   12  O   UNL     1     -34.865  41.954 -56.301  1.00  0.00    -0.346 OA
BRANCH  12  13
HETATM   13  C   UNL     1     -35.647  41.085 -57.133  1.00  0.00     0.179 C 
BRANCH  13  14
HETATM   14  C   UNL     1     -37.003  41.722 -57.474  1.00  0.00     0.002 C 
HETATM   15  C   UNL     1     -38.165  40.796 -57.116  1.00  0.00     0.011 C 
HETATM   16  C   UNL     1     -37.084  42.129 -58.945  1.00  0.00     0.011 C 
ENDBRANCH  13  14
ENDBRANCH  12  13
ENDBRANCH   8  12
BRANCH  10  17
HETATM   17  O   UNL     1     -36.200  42.009 -53.821  1.00  0.00    -0.353 OA
HETATM   18  C   UNL     1     -37.257  41.103 -53.492  1.00  0.00     0.210 C 
ENDBRANCH  10  17
ENDBRANCH   1   5
BRANCH   2  19
HETATM   19  C   UNL     1     -32.739  39.417 -49.200  1.00  0.00     0.035 A 
HETATM   20  C   UNL     1     -31.612  39.892 -48.524  1.00  0.00     0.039 A 
HETATM   21  C   UNL     1     -31.310  39.374 -47.272  1.00  0.00    -0.022 A 
HETATM   22  C   UNL     1     -32.107  38.392 -46.680  1.00  0.00    -0.025 A 
HETATM   23  C   UNL     1     -30.191  39.762 -46.367  1.00  0.00     0.274 C 
HETATM   24  C   UNL     1     -31.579  38.041 -45.331  1.00  0.00     0.273 C 
HETATM   25  C   UNL     1     -33.229  37.908 -47.329  1.00  0.00     0.012 A 
HETATM   26  N   UNL     1     -30.205  38.698 -45.276  1.00  0.00    -0.067 N 
HETATM   27  H   UNL     1     -29.536  37.981 -45.582  1.00  0.00     0.280 HD
HETATM   28  C   UNL     1     -29.800  39.187 -43.933  1.00  0.00     0.270 C 
HETATM   29  C   UNL     1     -33.538  38.425 -48.594  1.00  0.00     0.030 A 
ENDBRANCH   2  19
TORSDOF 6
ENDMDL
MODEL 8
REMARK VINA RESULT:      -6.8      1.671      2.799
REMARK  6 active torsions:
REMARK  status: ('A' for Active; 'I' for Inactive)
REMARK    1  A    between atoms: C_2  and  C_3 
REMARK    2  A    between atoms: C_3  and  O_4 
REMARK    3  A    between atoms: O_4  and  C_5 
REMARK    4  A    between atoms: C_9  and  C_10 
REMARK       I    between atoms: C_10  and  N_11 
REMARK    5  A    between atoms: N_11  and  C_12 
REMARK    6  A    between atoms: C_25  and  O_26 
ROOT
HETATM    1  C   UNL     1     -42.570  55.570 -55.840  1.00  0.00     0.256 C 
HETATM    2  N   UNL     1     -41.322  55.072 -55.499  1.00  0.00    -0.323 N 
HETATM    3  O   UNL     1     -43.612  55.381 -55.222  1.00  0.00    -0.267 OA
HETATM    4  H   UNL     1     -40.565  55.232 -56.153  1.00  0.00     0.169 HD
ENDROOT
BRANCH   1   5
HETATM    5  C   UNL     1     -42.631  56.379 -57.092  1.00  0.00     0.036 A 
HETATM    6  C   UNL     1     -43.290  55.835 -58.201  1.00  0.00     0.044 A 
HETATM    7  C   UNL     1     -43.368  56.549 -59.402  1.00  0.00     0.071 A 
HETATM    8  C   UNL     1     -42.776  57.816 -59.514  1.00  0.00     0.123 A 
HETATM    9 CL   UNL     1     -44.261  55.820 -60.688  1.00  0.00    -0.081 Cl
HETATM   10  C   UNL     1     -42.201  58.391 -58.369  1.00  0.00     0.104 A 
HETATM   11  C   UNL     1     -42.102  57.670 -57.175  1.00  0.00     0.056 A 
BRANCH   8  12
HETATM   12  O   UNL     1     -42.773  58.551 -60.671  1.00  0.00    -0.346 OA
BRANCH  12  13
HETATM   13  C   UNL     1     -43.909  59.418 -60.803  1.00  0.00     0.179 C 
BRANCH  13  14
HETATM   14  C   UNL     1     -43.500  60.775 -61.397  1.00  0.00     0.002 C 
HETATM   15  C   UNL     1     -41.995  60.844 -61.655  1.00  0.00     0.011 C 
HETATM   16  C   UNL     1     -43.939  61.938 -60.508  1.00  0.00     0.011 C 
ENDBRANCH  13  14
ENDBRANCH  12  13
ENDBRANCH   8  12
BRANCH  10  17
HETATM   17  O   UNL     1     -41.644  59.645 -58.333  1.00  0.00    -0.353 OA
HETATM   18  C   UNL     1     -42.310  60.516 -57.415  1.00  0.00     0.210 C 
ENDBRANCH  10  17
ENDBRANCH   1   5
BRANCH   2  19
HETATM   19  C   UNL     1     -40.998  54.297 -54.365  1.00  0.00     0.035 A 
HETATM   20  C   UNL     1     -40.583  52.964 -54.433  1.00  0.00     0.039 A 
HETATM   21  C   UNL     1     -40.283  52.292 -53.257  1.00  0.00    -0.022 A 
HETATM   22  C   UNL     1     -40.388  52.919 -52.014  1.00  0.00    -0.025 A 
HETATM   23  C   UNL     1     -39.788  50.895 -53.103  1.00  0.00     0.274 C 
HETATM   24  C   UNL     1     -39.975  51.986 -50.927  1.00  0.00     0.273 C 
HETATM   25  C   UNL     1     -40.794  54.238 -51.921  1.00  0.00     0.012 A 
HETATM   26  N   UNL     1     -39.886  50.624 -51.606  1.00  0.00    -0.067 N 
HETATM   27  H   UNL     1     -40.800  50.178 -51.466  1.00  0.00     0.280 HD
HETATM   28  C   UNL     1     -38.829  49.728 -51.070  1.00  0.00     0.270 C 
HETATM   29  C   UNL     1     -41.101  54.922 -53.106  1.00  0.00     0.030 A 
ENDBRANCH   2  19
TORSDOF 6
ENDMDL
MODEL 9
REMARK VINA RESULT:      -6.7      3.026      9.726
REMARK  6 active torsions:
REMARK  status: ('A' for Active; 'I' for Inactive)
REMARK    1  A    between atoms: C_2  and  C_3 
REMARK    2  A    between atoms: C_3  and  O_4 
REMARK    3  A    between atoms: O_4  and  C_5 
REMARK    4  A    between atoms: C_9  and  C_10 
REMARK       I    between atoms: C_10  and  N_11 
REMARK    5  A    between atoms: N_11  and  C_12 
REMARK    6  A    between atoms: C_25  and  O_26 
ROOT
HETATM    1  C   UNL     1     -42.936  55.981 -56.900  1.00  0.00     0.256 C 
HETATM    2  N   UNL     1     -42.905  57.359 -57.046  1.00  0.00    -0.323 N 
HETATM    3  O   UNL     1     -43.195  55.171 -57.783  1.00  0.00    -0.267 OA
HETATM    4  H   UNL     1     -42.765  57.911 -56.208  1.00  0.00     0.169 HD
ENDROOT
BRANCH   1   5
HETATM    5  C   UNL     1     -42.654  55.462 -55.530  1.00  0.00     0.036 A 
HETATM    6  C   UNL     1     -41.672  54.475 -55.385  1.00  0.00     0.044 A 
HETATM    7  C   UNL     1     -41.376  53.947 -54.124  1.00  0.00     0.071 A 
HETATM    8  C   UNL     1     -42.069  54.392 -52.988  1.00  0.00     0.123 A 
HETATM    9 CL   UNL     1     -40.101  52.784 -54.042  1.00  0.00    -0.081 Cl
HETATM   10  C   UNL     1     -42.984  55.448 -53.131  1.00  0.00     0.104 A 
HETATM   11  C   UNL     1     -43.297  55.960 -54.394  1.00  0.00     0.056 A 
BRANCH   8  12
HETATM   12  O   UNL     1     -41.864  53.888 -51.730  1.00  0.00    -0.346 OA
BRANCH  12  13
HETATM   13  C   UNL     1     -40.887  54.615 -50.972  1.00  0.00     0.179 C 
BRANCH  13  14
HETATM   14  C   UNL     1     -40.032  53.664 -50.119  1.00  0.00     0.002 C 
HETATM   15  C   UNL     1     -40.345  52.200 -50.426  1.00  0.00     0.011 C 
HETATM   16  C   UNL     1     -40.197  53.939 -48.625  1.00  0.00     0.011 C 
ENDBRANCH  13  14
ENDBRANCH  12  13
ENDBRANCH   8  12
BRANCH  10  17
HETATM   17  O   UNL     1     -43.679  56.012 -52.091  1.00  0.00    -0.353 OA
HETATM   18  C   UNL     1     -43.821  57.428 -52.229  1.00  0.00     0.210 C 
ENDBRANCH  10  17
ENDBRANCH   1   5
BRANCH   2  19
HETATM   19  C   UNL     1     -43.120  58.093 -58.232  1.00  0.00     0.035 A 
HETATM   20  C   UNL     1     -44.389  58.413 -58.724  1.00  0.00     0.039 A 
HETATM   21  C   UNL     1     -44.490  59.144 -59.899  1.00  0.00    -0.022 A 
HETATM   22  C   UNL     1     -43.355  59.562 -60.596  1.00  0.00    -0.025 A 
HETATM   23  C   UNL     1     -45.729  59.625 -60.572  1.00  0.00     0.274 C 
HETATM   24  C   UNL     1     -43.747  60.353 -61.797  1.00  0.00     0.273 C 
HETATM   25  C   UNL     1     -42.089  59.259 -60.128  1.00  0.00     0.012 A 
HETATM   26  N   UNL     1     -45.249  60.129 -61.928  1.00  0.00    -0.067 N 
HETATM   27  H   UNL     1     -45.361  59.338 -62.572  1.00  0.00     0.280 HD
HETATM   28  C   UNL     1     -46.008  61.290 -62.459  1.00  0.00     0.270 C 
HETATM   29  C   UNL     1     -41.979  58.519 -58.943  1.00  0.00     0.030 A 
ENDBRANCH   2  19
TORSDOF 6
ENDMDL
MODEL 10
REMARK VINA RESULT:      -6.7      5.444      7.346
REMARK  6 active torsions:
REMARK  status: ('A' for Active; 'I' for Inactive)
REMARK    1  A    between atoms: C_2  and  C_3 
REMARK    2  A    between atoms: C_3  and  O_4 
REMARK    3  A    between atoms: O_4  and  C_5 
REMARK    4  A    between atoms: C_9  and  C_10 
REMARK       I    between atoms: C_10  and  N_11 
REMARK    5  A    between atoms: N_11  and  C_12 
REMARK    6  A    between atoms: C_25  and  O_26 
ROOT
HETATM    1  C   UNL     1     -42.862  56.809 -52.999  1.00  0.00     0.256 C 
HETATM    2  N   UNL     1     -41.570  56.341 -52.813  1.00  0.00    -0.323 N 
HETATM    3  O   UNL     1     -43.789  56.181 -53.498  1.00  0.00    -0.267 OA
HETATM    4  H   UNL     1     -40.882  57.002 -52.473  1.00  0.00     0.169 HD
ENDROOT
BRANCH   1   5
HETATM    5  C   UNL     1     -43.115  58.217 -52.575  1.00  0.00     0.036 A 
HETATM    6  C   UNL     1     -44.246  58.868 -53.081  1.00  0.00     0.044 A 
HETATM    7  C   UNL     1     -44.524  60.192 -52.723  1.00  0.00     0.071 A 
HETATM    8  C   UNL     1     -43.664  60.888 -51.860  1.00  0.00     0.123 A 
HETATM    9 CL   UNL     1     -45.980  60.881 -53.346  1.00  0.00    -0.081 Cl
HETATM   10  C   UNL     1     -42.586  60.197 -51.285  1.00  0.00     0.104 A 
HETATM   11  C   UNL     1     -42.295  58.882 -51.660  1.00  0.00     0.056 A 
BRANCH   8  12
HETATM   12  O   UNL     1     -43.849  62.199 -51.503  1.00  0.00    -0.346 OA
BRANCH  12  13
HETATM   13  C   UNL     1     -44.697  62.368 -50.358  1.00  0.00     0.179 C 
BRANCH  13  14
HETATM   14  C   UNL     1     -43.985  63.172 -49.259  1.00  0.00     0.002 C 
HETATM   15  C   UNL     1     -44.972  64.007 -48.444  1.00  0.00     0.011 C 
HETATM   16  C   UNL     1     -42.883  64.063 -49.832  1.00  0.00     0.011 C 
ENDBRANCH  13  14
ENDBRANCH  12  13
ENDBRANCH   8  12
BRANCH  10  17
HETATM   17  O   UNL     1     -41.711  60.747 -50.382  1.00  0.00    -0.353 OA
HETATM   18  C   UNL     1     -40.572  59.916 -50.144  1.00  0.00     0.210 C 
ENDBRANCH  10  17
ENDBRANCH   1   5
BRANCH   2  19
HETATM   19  C   UNL     1     -41.083  55.052 -53.116  1.00  0.00     0.035 A 
HETATM   20  C   UNL     1     -40.809  54.082 -52.147  1.00  0.00     0.039 A 
HETATM   21  C   UNL     1     -40.337  52.842 -52.551  1.00  0.00    -0.022 A 
HETATM   22  C   UNL     1     -40.130  52.546 -53.899  1.00  0.00    -0.025 A 
HETATM   23  C   UNL     1     -40.023  51.661 -51.698  1.00  0.00     0.274 C 
HETATM   24  C   UNL     1     -39.654  51.142 -54.055  1.00  0.00     0.273 C 
HETATM   25  C   UNL     1     -40.395  53.489 -54.877  1.00  0.00     0.012 A 
HETATM   26  N   UNL     1     -39.309  50.697 -52.638  1.00  0.00    -0.067 N 
HETATM   27  H   UNL     1     -38.307  50.886 -52.519  1.00  0.00     0.280 HD
HETATM   28  C   UNL     1     -39.561  49.260 -52.357  1.00  0.00     0.270 C 
HETATM   29  C   UNL     1     -40.871  54.744 -54.476  1.00  0.00     0.030 A 
ENDBRANCH   2  19
TORSDOF 6
ENDMDL
