MODEL 1
REMARK VINA RESULT:      -8.3      0.000      0.000
REMARK  5 active torsions:
REMARK  status: ('A' for Active; 'I' for Inactive)
REMARK    1  A    between atoms: C_6  and  C_7 
REMARK    2  A    between atoms: C_7  and  C_8 
REMARK       I    between atoms: C_8  and  N_9 
REMARK    3  A    between atoms: N_9  and  C_10 
REMARK    4  A    between atoms: C_11  and  O_12 
REMARK    5  A    between atoms: O_12  and  C_13 
ROOT
HETATM    1  C   UNL     1     -39.816  52.179 -52.317  1.00  0.00     0.069 A 
HETATM    2  C   UNL     1     -39.808  52.006 -53.708  1.00  0.00     0.102 A 
HETATM    3  C   UNL     1     -39.728  50.714 -54.262  1.00  0.00     0.039 A 
HETATM    4  C   UNL     1     -39.693  49.587 -53.443  1.00  0.00     0.003 A 
HETATM    5  C   UNL     1     -39.714  49.743 -52.064  1.00  0.00     0.002 A 
HETATM    6  C   UNL     1     -39.769  51.024 -51.510  1.00  0.00     0.032 A 
ENDROOT
BRANCH   1   7
HETATM    7  N   UNL     1     -39.925  53.389 -51.594  1.00  0.00    -0.324 N 
HETATM    8  C   UNL     1     -40.989  53.953 -50.910  1.00  0.00     0.228 C 
HETATM    9  O   UNL     1     -42.172  53.642 -50.982  1.00  0.00    -0.273 OA
HETATM   10  H   UNL     1     -39.051  53.901 -51.485  1.00  0.00     0.169 HD
BRANCH   8  11
HETATM   11  C   UNL     1     -40.577  55.128 -50.026  1.00  0.00     0.164 C 
BRANCH  11  12
HETATM   12  C   UNL     1     -41.302  56.378 -50.400  1.00  0.00     0.065 A 
HETATM   13  N   UNL     1     -42.632  56.351 -50.581  1.00  0.00    -0.179 NA
HETATM   14  N   UNL     1     -42.933  57.607 -50.956  1.00  0.00    -0.282 N 
HETATM   15  C   UNL     1     -41.835  58.403 -51.123  1.00  0.00     0.026 A 
HETATM   16  H   UNL     1     -43.908  57.842 -51.113  1.00  0.00     0.189 HD
HETATM   17  C   UNL     1     -41.923  59.787 -51.638  1.00  0.00     0.070 C 
HETATM   18  C   UNL     1     -40.758  57.638 -50.734  1.00  0.00     0.055 A 
ENDBRANCH  11  12
ENDBRANCH   8  11
ENDBRANCH   1   7
BRANCH   2  19
HETATM   19  O   UNL     1     -39.786  53.066 -54.577  1.00  0.00    -0.308 OA
BRANCH  19  20
HETATM   20  C   UNL     1     -40.824  53.970 -54.506  1.00  0.00     0.082 A 
HETATM   21  C   UNL     1     -42.172  53.604 -54.492  1.00  0.00     0.079 A 
HETATM   22  C   UNL     1     -43.145  54.591 -54.366  1.00  0.00     0.122 A 
HETATM   23  F   UNL     1     -44.437  54.244 -54.354  1.00  0.00    -0.206 F 
HETATM   24  C   UNL     1     -42.799  55.932 -54.245  1.00  0.00     0.084 A 
HETATM   25  C   UNL     1     -41.455  56.278 -54.241  1.00  0.00     0.122 A 
HETATM   26  F   UNL     1     -41.108  57.565 -54.113  1.00  0.00    -0.206 F 
HETATM   27  C   UNL     1     -40.464  55.310 -54.363  1.00  0.00     0.079 A 
ENDBRANCH  19  20
ENDBRANCH   2  19
TORSDOF 5
ENDMDL
MODEL 2
REMARK VINA RESULT:      -8.1      2.316      3.679
REMARK  5 active torsions:
REMARK  status: ('A' for Active; 'I' for Inactive)
REMARK    1  A    between atoms: C_6  and  C_7 
REMARK    2  A    between atoms: C_7  and  C_8 
REMARK       I    between atoms: C_8  and  N_9 
REMARK    3  A    between atoms: N_9  and  C_10 
REMARK    4  A    between atoms: C_11  and  O_12 
REMARK    5  A    between atoms: O_12  and  C_13 
ROOT
HETATM    1  C   UNL     1     -40.780  52.456 -53.693  1.00  0.00     0.069 A 
HETATM    2  C   UNL     1     -40.110  52.611 -52.471  1.00  0.00     0.102 A 
HETATM    3  C   UNL     1     -39.494  51.505 -51.854  1.00  0.00     0.039 A 
HETATM    4  C   UNL     1     -39.507  50.251 -52.460  1.00  0.00     0.003 A 
HETATM    5  C   UNL     1     -40.156  50.086 -53.677  1.00  0.00     0.002 A 
HETATM    6  C   UNL     1     -40.788  51.176 -54.281  1.00  0.00     0.032 A 
ENDROOT
BRANCH   1   7
HETATM    7  N   UNL     1     -41.420  53.454 -54.464  1.00  0.00    -0.324 N 
HETATM    8  C   UNL     1     -40.914  54.554 -55.135  1.00  0.00     0.228 C 
HETATM    9  O   UNL     1     -39.806  55.062 -55.010  1.00  0.00    -0.273 OA
HETATM   10  H   UNL     1     -42.414  53.298 -54.624  1.00  0.00     0.169 HD
BRANCH   8  11
HETATM   11  C   UNL     1     -41.926  55.194 -56.083  1.00  0.00     0.164 C 
BRANCH  11  12
HETATM   12  C   UNL     1     -42.987  55.934 -55.336  1.00  0.00     0.065 A 
HETATM   13  N   UNL     1     -43.997  55.260 -54.766  1.00  0.00    -0.179 NA
HETATM   14  N   UNL     1     -44.775  56.224 -54.243  1.00  0.00    -0.282 N 
HETATM   15  C   UNL     1     -44.356  57.488 -54.550  1.00  0.00     0.026 A 
HETATM   16  H   UNL     1     -45.597  55.947 -53.716  1.00  0.00     0.189 HD
HETATM   17  C   UNL     1     -45.122  58.697 -54.174  1.00  0.00     0.070 C 
HETATM   18  C   UNL     1     -43.171  57.331 -55.233  1.00  0.00     0.055 A 
ENDBRANCH  11  12
ENDBRANCH   8  11
ENDBRANCH   1   7
BRANCH   2  19
HETATM   19  O   UNL     1     -40.099  53.801 -51.787  1.00  0.00    -0.308 OA
BRANCH  19  20
HETATM   20  C   UNL     1     -41.314  54.404 -51.540  1.00  0.00     0.082 A 
HETATM   21  C   UNL     1     -42.428  53.728 -51.038  1.00  0.00     0.079 A 
HETATM   22  C   UNL     1     -43.595  54.439 -50.774  1.00  0.00     0.122 A 
HETATM   23  F   UNL     1     -44.665  53.793 -50.294  1.00  0.00    -0.206 F 
HETATM   24  C   UNL     1     -43.667  55.810 -50.991  1.00  0.00     0.084 A 
HETATM   25  C   UNL     1     -42.545  56.471 -51.470  1.00  0.00     0.122 A 
HETATM   26  F   UNL     1     -42.598  57.794 -51.673  1.00  0.00    -0.206 F 
HETATM   27  C   UNL     1     -41.367  55.784 -51.740  1.00  0.00     0.079 A 
ENDBRANCH  19  20
ENDBRANCH   2  19
TORSDOF 5
ENDMDL
MODEL 3
REMARK VINA RESULT:      -8.1      3.923      6.361
REMARK  5 active torsions:
REMARK  status: ('A' for Active; 'I' for Inactive)
REMARK    1  A    between atoms: C_6  and  C_7 
REMARK    2  A    between atoms: C_7  and  C_8 
REMARK       I    between atoms: C_8  and  N_9 
REMARK    3  A    between atoms: N_9  and  C_10 
REMARK    4  A    between atoms: C_11  and  O_12 
REMARK    5  A    between atoms: O_12  and  C_13 
ROOT
HETATM    1  C   UNL     1     -42.122  55.226 -52.931  1.00  0.00     0.069 A 
HETATM    2  C   UNL     1     -41.367  54.246 -52.271  1.00  0.00     0.102 A 
HETATM    3  C   UNL     1     -41.744  53.806 -50.988  1.00  0.00     0.039 A 
HETATM    4  C   UNL     1     -42.888  54.305 -50.369  1.00  0.00     0.003 A 
HETATM    5  C   UNL     1     -43.652  55.266 -51.017  1.00  0.00     0.002 A 
HETATM    6  C   UNL     1     -43.268  55.723 -52.281  1.00  0.00     0.032 A 
ENDROOT
BRANCH   1   7
HETATM    7  N   UNL     1     -41.912  55.757 -54.225  1.00  0.00    -0.324 N 
HETATM    8  C   UNL     1     -42.512  55.471 -55.439  1.00  0.00     0.228 C 
HETATM    9  O   UNL     1     -43.206  54.499 -55.719  1.00  0.00    -0.273 OA
HETATM   10  H   UNL     1     -41.265  56.543 -54.264  1.00  0.00     0.169 HD
BRANCH   8  11
HETATM   11  C   UNL     1     -42.184  56.492 -56.525  1.00  0.00     0.164 C 
BRANCH  11  12
HETATM   12  C   UNL     1     -43.155  56.424 -57.657  1.00  0.00     0.065 A 
HETATM   13  N   UNL     1     -44.321  57.083 -57.578  1.00  0.00    -0.179 NA
HETATM   14  N   UNL     1     -44.954  56.760 -58.719  1.00  0.00    -0.282 N 
HETATM   15  C   UNL     1     -44.283  55.837 -59.471  1.00  0.00     0.026 A 
HETATM   16  H   UNL     1     -45.859  57.181 -58.904  1.00  0.00     0.189 HD
HETATM   17  C   UNL     1     -44.845  55.254 -60.709  1.00  0.00     0.070 C 
HETATM   18  C   UNL     1     -43.088  55.625 -58.820  1.00  0.00     0.055 A 
ENDBRANCH  11  12
ENDBRANCH   8  11
ENDBRANCH   1   7
BRANCH   2  19
HETATM   19  O   UNL     1     -40.201  53.746 -52.791  1.00  0.00    -0.308 OA
BRANCH  19  20
HETATM   20  C   UNL     1     -40.062  52.375 -52.844  1.00  0.00     0.082 A 
HETATM   21  C   UNL     1     -40.195  51.627 -54.015  1.00  0.00     0.079 A 
HETATM   22  C   UNL     1     -39.985  50.252 -53.973  1.00  0.00     0.122 A 
HETATM   23  F   UNL     1     -40.113  49.531 -55.094  1.00  0.00    -0.206 F 
HETATM   24  C   UNL     1     -39.637  49.613 -52.788  1.00  0.00     0.084 A 
HETATM   25  C   UNL     1     -39.490  50.373 -51.637  1.00  0.00     0.122 A 
HETATM   26  F   UNL     1     -39.143  49.771 -50.492  1.00  0.00    -0.206 F 
HETATM   27  C   UNL     1     -39.691  51.749 -51.654  1.00  0.00     0.079 A 
ENDBRANCH  19  20
ENDBRANCH   2  19
TORSDOF 5
ENDMDL
MODEL 4
REMARK VINA RESULT:      -8.1      3.304      5.582
REMARK  5 active torsions:
REMARK  status: ('A' for Active; 'I' for Inactive)
REMARK    1  A    between atoms: C_6  and  C_7 
REMARK    2  A    between atoms: C_7  and  C_8 
REMARK       I    between atoms: C_8  and  N_9 
REMARK    3  A    between atoms: N_9  and  C_10 
REMARK    4  A    between atoms: C_11  and  O_12 
REMARK    5  A    between atoms: O_12  and  C_13 
ROOT
HETATM    1  C   UNL     1     -41.715  54.785 -51.284  1.00  0.00     0.069 A 
HETATM    2  C   UNL     1     -40.541  54.029 -51.412  1.00  0.00     0.102 A 
HETATM    3  C   UNL     1     -39.706  53.819 -50.298  1.00  0.00     0.039 A 
HETATM    4  C   UNL     1     -40.048  54.324 -49.045  1.00  0.00     0.003 A 
HETATM    5  C   UNL     1     -41.214  55.063 -48.901  1.00  0.00     0.002 A 
HETATM    6  C   UNL     1     -42.033  55.294 -50.009  1.00  0.00     0.032 A 
ENDROOT
BRANCH   1   7
HETATM    7  N   UNL     1     -42.679  55.067 -52.279  1.00  0.00    -0.324 N 
HETATM    8  C   UNL     1     -42.726  56.049 -53.254  1.00  0.00     0.228 C 
HETATM    9  O   UNL     1     -42.048  57.068 -53.321  1.00  0.00    -0.273 OA
HETATM   10  H   UNL     1     -43.432  54.385 -52.348  1.00  0.00     0.169 HD
BRANCH   8  11
HETATM   11  C   UNL     1     -43.808  55.801 -54.301  1.00  0.00     0.164 C 
BRANCH  11  12
HETATM   12  C   UNL     1     -43.324  56.116 -55.678  1.00  0.00     0.065 A 
HETATM   13  N   UNL     1     -42.547  55.239 -56.331  1.00  0.00    -0.179 NA
HETATM   14  N   UNL     1     -42.259  55.859 -57.489  1.00  0.00    -0.282 N 
HETATM   15  C   UNL     1     -42.734  57.139 -57.552  1.00  0.00     0.026 A 
HETATM   16  H   UNL     1     -41.704  55.361 -58.178  1.00  0.00     0.189 HD
HETATM   17  C   UNL     1     -42.439  58.045 -58.684  1.00  0.00     0.070 C 
HETATM   18  C   UNL     1     -43.463  57.323 -56.399  1.00  0.00     0.055 A 
ENDBRANCH  11  12
ENDBRANCH   8  11
ENDBRANCH   1   7
BRANCH   2  19
HETATM   19  O   UNL     1     -40.111  53.545 -52.622  1.00  0.00    -0.308 OA
BRANCH  19  20
HETATM   20  C   UNL     1     -39.975  52.179 -52.749  1.00  0.00     0.082 A 
HETATM   21  C   UNL     1     -40.022  51.506 -53.972  1.00  0.00     0.079 A 
HETATM   22  C   UNL     1     -39.822  50.129 -54.000  1.00  0.00     0.122 A 
HETATM   23  F   UNL     1     -39.868  49.480 -55.170  1.00  0.00    -0.206 F 
HETATM   24  C   UNL     1     -39.568  49.414 -52.835  1.00  0.00     0.084 A 
HETATM   25  C   UNL     1     -39.505  50.100 -51.631  1.00  0.00     0.122 A 
HETATM   26  F   UNL     1     -39.250  49.425 -50.502  1.00  0.00    -0.206 F 
HETATM   27  C   UNL     1     -39.698  51.476 -51.576  1.00  0.00     0.079 A 
ENDBRANCH  19  20
ENDBRANCH   2  19
TORSDOF 5
ENDMDL
MODEL 5
REMARK VINA RESULT:      -7.9      3.141      4.768
REMARK  5 active torsions:
REMARK  status: ('A' for Active; 'I' for Inactive)
REMARK    1  A    between atoms: C_6  and  C_7 
REMARK    2  A    between atoms: C_7  and  C_8 
REMARK       I    between atoms: C_8  and  N_9 
REMARK    3  A    between atoms: N_9  and  C_10 
REMARK    4  A    between atoms: C_11  and  O_12 
REMARK    5  A    between atoms: O_12  and  C_13 
ROOT
HETATM    1  C   UNL     1     -40.513  53.209 -53.837  1.00  0.00     0.069 A 
HETATM    2  C   UNL     1     -40.118  53.143 -52.493  1.00  0.00     0.102 A 
HETATM    3  C   UNL     1     -39.710  51.917 -51.933  1.00  0.00     0.039 A 
HETATM    4  C   UNL     1     -39.656  50.761 -52.708  1.00  0.00     0.003 A 
HETATM    5  C   UNL     1     -40.032  50.815 -54.043  1.00  0.00     0.002 A 
HETATM    6  C   UNL     1     -40.460  52.024 -54.597  1.00  0.00     0.032 A 
ENDROOT
BRANCH   1   7
HETATM    7  N   UNL     1     -40.916  54.350 -54.567  1.00  0.00    -0.324 N 
HETATM    8  C   UNL     1     -42.169  54.899 -54.788  1.00  0.00     0.228 C 
HETATM    9  O   UNL     1     -43.259  54.371 -54.599  1.00  0.00    -0.273 OA
HETATM   10  H   UNL     1     -40.152  54.917 -54.930  1.00  0.00     0.169 HD
BRANCH   8  11
HETATM   11  C   UNL     1     -42.110  56.300 -55.390  1.00  0.00     0.164 C 
BRANCH  11  12
HETATM   12  C   UNL     1     -42.907  56.391 -56.650  1.00  0.00     0.065 A 
HETATM   13  N   UNL     1     -43.950  57.231 -56.723  1.00  0.00    -0.179 NA
HETATM   14  N   UNL     1     -44.455  57.015 -57.950  1.00  0.00    -0.282 N 
HETATM   15  C   UNL     1     -43.839  55.996 -58.620  1.00  0.00     0.026 A 
HETATM   16  H   UNL     1     -45.245  57.578 -58.252  1.00  0.00     0.189 HD
HETATM   17  C   UNL     1     -44.304  55.512 -59.939  1.00  0.00     0.070 C 
HETATM   18  C   UNL     1     -42.801  55.592 -57.810  1.00  0.00     0.055 A 
ENDBRANCH  11  12
ENDBRANCH   8  11
ENDBRANCH   1   7
BRANCH   2  19
HETATM   19  O   UNL     1     -40.195  54.225 -51.653  1.00  0.00    -0.308 OA
BRANCH  19  20
HETATM   20  C   UNL     1     -41.446  54.738 -51.387  1.00  0.00     0.082 A 
HETATM   21  C   UNL     1     -42.538  53.957 -51.000  1.00  0.00     0.079 A 
HETATM   22  C   UNL     1     -43.748  54.578 -50.704  1.00  0.00     0.122 A 
HETATM   23  F   UNL     1     -44.796  53.832 -50.334  1.00  0.00    -0.206 F 
HETATM   24  C   UNL     1     -43.886  55.959 -50.777  1.00  0.00     0.084 A 
HETATM   25  C   UNL     1     -42.787  56.722 -51.144  1.00  0.00     0.122 A 
HETATM   26  F   UNL     1     -42.903  58.055 -51.208  1.00  0.00    -0.206 F 
HETATM   27  C   UNL     1     -41.566  56.127 -51.442  1.00  0.00     0.079 A 
ENDBRANCH  19  20
ENDBRANCH   2  19
TORSDOF 5
ENDMDL
MODEL 6
REMARK VINA RESULT:      -7.9     14.103     16.807
REMARK  5 active torsions:
REMARK  status: ('A' for Active; 'I' for Inactive)
REMARK    1  A    between atoms: C_6  and  C_7 
REMARK    2  A    between atoms: C_7  and  C_8 
REMARK       I    between atoms: C_8  and  N_9 
REMARK    3  A    between atoms: N_9  and  C_10 
REMARK    4  A    between atoms: C_11  and  O_12 
REMARK    5  A    between atoms: O_12  and  C_13 
ROOT
HETATM    1  C   UNL     1     -34.861  41.477 -55.762  1.00  0.00     0.069 A 
HETATM    2  C   UNL     1     -35.956  42.193 -55.258  1.00  0.00     0.102 A 
HETATM    3  C   UNL     1     -37.069  42.458 -56.079  1.00  0.00     0.039 A 
HETATM    4  C   UNL     1     -37.120  41.985 -57.388  1.00  0.00     0.003 A 
HETATM    5  C   UNL     1     -36.048  41.263 -57.896  1.00  0.00     0.002 A 
HETATM    6  C   UNL     1     -34.931  41.018 -57.093  1.00  0.00     0.032 A 
ENDROOT
BRANCH   1   7
HETATM    7  N   UNL     1     -33.685  41.094 -55.077  1.00  0.00    -0.324 N 
HETATM    8  C   UNL     1     -33.358  39.930 -54.402  1.00  0.00     0.228 C 
HETATM    9  O   UNL     1     -34.119  39.045 -54.027  1.00  0.00    -0.273 OA
HETATM   10  H   UNL     1     -32.910  41.751 -55.159  1.00  0.00     0.169 HD
BRANCH   8  11
HETATM   11  C   UNL     1     -31.873  39.830 -54.065  1.00  0.00     0.164 C 
BRANCH  11  12
HETATM   12  C   UNL     1     -31.063  39.442 -55.259  1.00  0.00     0.065 A 
HETATM   13  N   UNL     1     -31.070  40.218 -56.353  1.00  0.00    -0.179 NA
HETATM   14  N   UNL     1     -30.297  39.551 -57.228  1.00  0.00    -0.282 N 
HETATM   15  C   UNL     1     -29.886  38.330 -56.771  1.00  0.00     0.026 A 
HETATM   16  H   UNL     1     -30.119  39.974 -58.134  1.00  0.00     0.189 HD
HETATM   17  C   UNL     1     -29.122  37.380 -57.608  1.00  0.00     0.070 C 
HETATM   18  C   UNL     1     -30.342  38.246 -55.474  1.00  0.00     0.055 A 
ENDBRANCH  11  12
ENDBRANCH   8  11
ENDBRANCH   1   7
BRANCH   2  19
HETATM   19  O   UNL     1     -35.958  42.736 -53.999  1.00  0.00    -0.308 OA
BRANCH  19  20
HETATM   20  C   UNL     1     -36.186  41.885 -52.938  1.00  0.00     0.082 A 
HETATM   21  C   UNL     1     -37.333  41.100 -52.806  1.00  0.00     0.079 A 
HETATM   22  C   UNL     1     -37.445  40.234 -51.723  1.00  0.00     0.122 A 
HETATM   23  F   UNL     1     -38.544  39.481 -51.593  1.00  0.00    -0.206 F 
HETATM   24  C   UNL     1     -36.433  40.130 -50.776  1.00  0.00     0.084 A 
HETATM   25  C   UNL     1     -35.290  40.902 -50.932  1.00  0.00     0.122 A 
HETATM   26  F   UNL     1     -34.302  40.803 -50.033  1.00  0.00    -0.206 F 
HETATM   27  C   UNL     1     -35.153  41.773 -52.007  1.00  0.00     0.079 A 
ENDBRANCH  19  20
ENDBRANCH   2  19
TORSDOF 5
ENDMDL
MODEL 7
REMARK VINA RESULT:      -7.9      2.556      5.066
REMARK  5 active torsions:
REMARK  status: ('A' for Active; 'I' for Inactive)
REMARK    1  A    between atoms: C_6  and  C_7 
REMARK    2  A    between atoms: C_7  and  C_8 
REMARK       I    between atoms: C_8  and  N_9 
REMARK    3  A    between atoms: N_9  and  C_10 
REMARK    4  A    between atoms: C_11  and  O_12 
REMARK    5  A    between atoms: O_12  and  C_13 
ROOT
HETATM    1  C   UNL     1     -42.417  56.411 -54.704  1.00  0.00     0.069 A 
HETATM    2  C   UNL     1     -42.719  55.069 -54.977  1.00  0.00     0.102 A 
HETATM    3  C   UNL     1     -42.999  54.660 -56.295  1.00  0.00     0.039 A 
HETATM    4  C   UNL     1     -42.945  55.566 -57.351  1.00  0.00     0.003 A 
HETATM    5  C   UNL     1     -42.635  56.895 -57.096  1.00  0.00     0.002 A 
HETATM    6  C   UNL     1     -42.380  57.311 -55.787  1.00  0.00     0.032 A 
ENDROOT
BRANCH   1   7
HETATM    7  N   UNL     1     -42.081  56.988 -53.457  1.00  0.00    -0.324 N 
HETATM    8  C   UNL     1     -42.795  57.822 -52.614  1.00  0.00     0.228 C 
HETATM    9  O   UNL     1     -43.808  58.461 -52.877  1.00  0.00    -0.273 OA
HETATM   10  H   UNL     1     -41.193  56.676 -53.068  1.00  0.00     0.169 HD
BRANCH   8  11
HETATM   11  C   UNL     1     -42.160  57.964 -51.233  1.00  0.00     0.164 C 
BRANCH  11  12
HETATM   12  C   UNL     1     -42.002  56.639 -50.563  1.00  0.00     0.065 A 
HETATM   13  N   UNL     1     -43.020  55.765 -50.558  1.00  0.00    -0.179 NA
HETATM   14  N   UNL     1     -42.557  54.731 -49.836  1.00  0.00    -0.282 N 
HETATM   15  C   UNL     1     -41.323  54.956 -49.291  1.00  0.00     0.026 A 
HETATM   16  H   UNL     1     -43.150  53.915 -49.726  1.00  0.00     0.189 HD
HETATM   17  C   UNL     1     -40.670  54.001 -48.370  1.00  0.00     0.070 C 
HETATM   18  C   UNL     1     -40.920  56.180 -49.778  1.00  0.00     0.055 A 
ENDBRANCH  11  12
ENDBRANCH   8  11
ENDBRANCH   1   7
BRANCH   2  19
HETATM   19  O   UNL     1     -42.842  54.130 -53.986  1.00  0.00    -0.308 OA
BRANCH  19  20
HETATM   20  C   UNL     1     -41.718  53.407 -53.649  1.00  0.00     0.082 A 
HETATM   21  C   UNL     1     -40.957  53.647 -52.502  1.00  0.00     0.079 A 
HETATM   22  C   UNL     1     -39.867  52.827 -52.224  1.00  0.00     0.122 A 
HETATM   23  F   UNL     1     -39.135  53.055 -51.127  1.00  0.00    -0.206 F 
HETATM   24  C   UNL     1     -39.529  51.770 -53.061  1.00  0.00     0.084 A 
HETATM   25  C   UNL     1     -40.307  51.533 -54.185  1.00  0.00     0.122 A 
HETATM   26  F   UNL     1     -39.999  50.510 -54.994  1.00  0.00    -0.206 F 
HETATM   27  C   UNL     1     -41.403  52.335 -54.484  1.00  0.00     0.079 A 
ENDBRANCH  19  20
ENDBRANCH   2  19
TORSDOF 5
ENDMDL
MODEL 8
REMARK VINA RESULT:      -7.9      1.851      5.700
REMARK  5 active torsions:
REMARK  status: ('A' for Active; 'I' for Inactive)
REMARK    1  A    between atoms: C_6  and  C_7 
REMARK    2  A    between atoms: C_7  and  C_8 
REMARK       I    between atoms: C_8  and  N_9 
REMARK    3  A    between atoms: N_9  and  C_10 
REMARK    4  A    between atoms: C_11  and  O_12 
REMARK    5  A    between atoms: O_12  and  C_13 
ROOT
HETATM    1  C   UNL     1     -41.472  57.146 -50.863  1.00  0.00     0.069 A 
HETATM    2  C   UNL     1     -42.608  57.223 -51.681  1.00  0.00     0.102 A 
HETATM    3  C   UNL     1     -43.239  58.462 -51.904  1.00  0.00     0.039 A 
HETATM    4  C   UNL     1     -42.727  59.634 -51.350  1.00  0.00     0.003 A 
HETATM    5  C   UNL     1     -41.596  59.573 -50.548  1.00  0.00     0.002 A 
HETATM    6  C   UNL     1     -40.981  58.343 -50.305  1.00  0.00     0.032 A 
ENDROOT
BRANCH   1   7
HETATM    7  N   UNL     1     -40.698  56.002 -50.559  1.00  0.00    -0.324 N 
HETATM    8  C   UNL     1     -41.041  54.798 -49.968  1.00  0.00     0.228 C 
HETATM    9  O   UNL     1     -42.061  54.537 -49.340  1.00  0.00    -0.273 OA
HETATM   10  H   UNL     1     -39.740  56.031 -50.903  1.00  0.00     0.169 HD
BRANCH   8  11
HETATM   11  C   UNL     1     -39.954  53.735 -50.103  1.00  0.00     0.164 C 
BRANCH  11  12
HETATM   12  C   UNL     1     -39.952  53.118 -51.463  1.00  0.00     0.065 A 
HETATM   13  N   UNL     1     -40.438  53.804 -52.509  1.00  0.00    -0.179 NA
HETATM   14  N   UNL     1     -40.334  52.944 -53.537  1.00  0.00    -0.282 N 
HETATM   15  C   UNL     1     -39.901  51.702 -53.166  1.00  0.00     0.026 A 
HETATM   16  H   UNL     1     -40.610  53.262 -54.461  1.00  0.00     0.189 HD
HETATM   17  C   UNL     1     -39.820  50.569 -54.113  1.00  0.00     0.070 C 
HETATM   18  C   UNL     1     -39.610  51.796 -51.823  1.00  0.00     0.055 A 
ENDBRANCH  11  12
ENDBRANCH   8  11
ENDBRANCH   1   7
BRANCH   2  19
HETATM   19  O   UNL     1     -43.201  56.109 -52.218  1.00  0.00    -0.308 OA
BRANCH  19  20
HETATM   20  C   UNL     1     -43.078  55.915 -53.577  1.00  0.00     0.082 A 
HETATM   21  C   UNL     1     -42.509  56.848 -54.446  1.00  0.00     0.079 A 
HETATM   22  C   UNL     1     -42.385  56.535 -55.797  1.00  0.00     0.122 A 
HETATM   23  F   UNL     1     -41.840  57.428 -56.632  1.00  0.00    -0.206 F 
HETATM   24  C   UNL     1     -42.809  55.308 -56.293  1.00  0.00     0.084 A 
HETATM   25  C   UNL     1     -43.355  54.384 -55.414  1.00  0.00     0.122 A 
HETATM   26  F   UNL     1     -43.757  53.194 -55.878  1.00  0.00    -0.206 F 
HETATM   27  C   UNL     1     -43.487  54.671 -54.060  1.00  0.00     0.079 A 
ENDBRANCH  19  20
ENDBRANCH   2  19
TORSDOF 5
ENDMDL
MODEL 9
REMARK VINA RESULT:      -7.8     14.007     15.472
REMARK  5 active torsions:
REMARK  status: ('A' for Active; 'I' for Inactive)
REMARK    1  A    between atoms: C_6  and  C_7 
REMARK    2  A    between atoms: C_7  and  C_8 
REMARK       I    between atoms: C_8  and  N_9 
REMARK    3  A    between atoms: N_9  and  C_10 
REMARK    4  A    between atoms: C_11  and  O_12 
REMARK    5  A    between atoms: O_12  and  C_13 
ROOT
HETATM    1  C   UNL     1     -32.954  40.082 -54.247  1.00  0.00     0.069 A 
HETATM    2  C   UNL     1     -33.198  40.658 -55.502  1.00  0.00     0.102 A 
HETATM    3  C   UNL     1     -32.356  40.368 -56.592  1.00  0.00     0.039 A 
HETATM    4  C   UNL     1     -31.292  39.479 -56.455  1.00  0.00     0.003 A 
HETATM    5  C   UNL     1     -31.047  38.891 -55.221  1.00  0.00     0.002 A 
HETATM    6  C   UNL     1     -31.866  39.195 -54.131  1.00  0.00     0.032 A 
ENDROOT
BRANCH   1   7
HETATM    7  N   UNL     1     -33.710  40.234 -53.062  1.00  0.00    -0.324 N 
HETATM    8  C   UNL     1     -33.368  40.739 -51.819  1.00  0.00     0.228 C 
HETATM    9  O   UNL     1     -32.242  40.950 -51.381  1.00  0.00    -0.273 OA
HETATM   10  H   UNL     1     -34.699  40.009 -53.154  1.00  0.00     0.169 HD
BRANCH   8  11
HETATM   11  C   UNL     1     -34.577  40.986 -50.920  1.00  0.00     0.164 C 
BRANCH  11  12
HETATM   12  C   UNL     1     -35.820  41.202 -51.718  1.00  0.00     0.065 A 
HETATM   13  N   UNL     1     -35.870  42.190 -52.624  1.00  0.00    -0.179 NA
HETATM   14  N   UNL     1     -37.126  42.130 -53.100  1.00  0.00    -0.282 N 
HETATM   15  C   UNL     1     -37.909  41.212 -52.457  1.00  0.00     0.026 A 
HETATM   16  H   UNL     1     -37.392  42.770 -53.843  1.00  0.00     0.189 HD
HETATM   17  C   UNL     1     -39.352  41.055 -52.740  1.00  0.00     0.070 C 
HETATM   18  C   UNL     1     -37.074  40.567 -51.573  1.00  0.00     0.055 A 
ENDBRANCH  11  12
ENDBRANCH   8  11
ENDBRANCH   1   7
BRANCH   2  19
HETATM   19  O   UNL     1     -34.192  41.582 -55.703  1.00  0.00    -0.308 OA
BRANCH  19  20
HETATM   20  C   UNL     1     -35.259  41.209 -56.493  1.00  0.00     0.082 A 
HETATM   21  C   UNL     1     -35.978  40.025 -56.316  1.00  0.00     0.079 A 
HETATM   22  C   UNL     1     -37.073  39.764 -57.135  1.00  0.00     0.122 A 
HETATM   23  F   UNL     1     -37.763  38.629 -56.969  1.00  0.00    -0.206 F 
HETATM   24  C   UNL     1     -37.467  40.664 -58.118  1.00  0.00     0.084 A 
HETATM   25  C   UNL     1     -36.755  41.845 -58.268  1.00  0.00     0.122 A 
HETATM   26  F   UNL     1     -37.132  42.727 -59.203  1.00  0.00    -0.206 F 
HETATM   27  C   UNL     1     -35.659  42.131 -57.460  1.00  0.00     0.079 A 
ENDBRANCH  19  20
ENDBRANCH   2  19
TORSDOF 5
ENDMDL
MODEL 10
REMARK VINA RESULT:      -7.8      3.923      6.181
REMARK  5 active torsions:
REMARK  status: ('A' for Active; 'I' for Inactive)
REMARK    1  A    between atoms: C_6  and  C_7 
REMARK    2  A    between atoms: C_7  and  C_8 
REMARK       I    between atoms: C_8  and  N_9 
REMARK    3  A    between atoms: N_9  and  C_10 
REMARK    4  A    between atoms: C_11  and  O_12 
REMARK    5  A    between atoms: O_12  and  C_13 
ROOT
HETATM    1  C   UNL     1     -42.087  54.942 -53.039  1.00  0.00     0.069 A 
HETATM    2  C   UNL     1     -41.284  54.118 -52.238  1.00  0.00     0.102 A 
HETATM    3  C   UNL     1     -41.659  53.835 -50.911  1.00  0.00     0.039 A 
HETATM    4  C   UNL     1     -42.848  54.335 -50.383  1.00  0.00     0.003 A 
HETATM    5  C   UNL     1     -43.659  55.142 -51.169  1.00  0.00     0.002 A 
HETATM    6  C   UNL     1     -43.278  55.445 -52.479  1.00  0.00     0.032 A 
ENDROOT
BRANCH   1   7
HETATM    7  N   UNL     1     -41.884  55.302 -54.391  1.00  0.00    -0.324 N 
HETATM    8  C   UNL     1     -42.562  54.945 -55.544  1.00  0.00     0.228 C 
HETATM    9  O   UNL     1     -43.359  54.024 -55.687  1.00  0.00    -0.273 OA
HETATM   10  H   UNL     1     -41.166  56.010 -54.541  1.00  0.00     0.169 HD
BRANCH   8  11
HETATM   11  C   UNL     1     -42.184  55.801 -56.750  1.00  0.00     0.164 C 
BRANCH  11  12
HETATM   12  C   UNL     1     -43.392  56.350 -57.435  1.00  0.00     0.065 A 
HETATM   13  N   UNL     1     -43.805  55.815 -58.594  1.00  0.00    -0.179 NA
HETATM   14  N   UNL     1     -44.857  56.574 -58.945  1.00  0.00    -0.282 N 
HETATM   15  C   UNL     1     -45.065  57.636 -58.110  1.00  0.00     0.026 A 
HETATM   16  H   UNL     1     -45.369  56.329 -59.788  1.00  0.00     0.189 HD
HETATM   17  C   UNL     1     -46.096  58.664 -58.367  1.00  0.00     0.070 C 
HETATM   18  C   UNL     1     -44.145  57.496 -57.095  1.00  0.00     0.055 A 
ENDBRANCH  11  12
ENDBRANCH   8  11
ENDBRANCH   1   7
BRANCH   2  19
HETATM   19  O   UNL     1     -40.075  53.632 -52.668  1.00  0.00    -0.308 OA
BRANCH  19  20
HETATM   20  C   UNL     1     -39.885  52.268 -52.625  1.00  0.00     0.082 A 
HETATM   21  C   UNL     1     -39.606  51.560 -51.454  1.00  0.00     0.079 A 
HETATM   22  C   UNL     1     -39.482  50.175 -51.508  1.00  0.00     0.122 A 
HETATM   23  F   UNL     1     -39.214  49.494 -50.387  1.00  0.00    -0.206 F 
HETATM   24  C   UNL     1     -39.639  49.484 -52.703  1.00  0.00     0.084 A 
HETATM   25  C   UNL     1     -39.935  50.199 -53.855  1.00  0.00     0.122 A 
HETATM   26  F   UNL     1     -40.100  49.545 -55.012  1.00  0.00    -0.206 F 
HETATM   27  C   UNL     1     -40.067  51.584 -53.827  1.00  0.00     0.079 A 
ENDBRANCH  19  20
ENDBRANCH   2  19
TORSDOF 5
ENDMDL
