MODEL 1
REMARK VINA RESULT:      -9.1      0.000      0.000
REMARK  5 active torsions:
REMARK  status: ('A' for Active; 'I' for Inactive)
REMARK    1  A    between atoms: C_2  and  O_3 
REMARK    2  A    between atoms: O_3  and  C_4 
REMARK       I    between atoms: N_10  and  C_11 
REMARK    3  A    between atoms: C_11  and  C_13 
REMARK    4  A    between atoms: C_13  and  C_14 
REMARK    5  A    between atoms: C_17  and  C_20 
ROOT
HETATM    1  C   UNL     1     -43.977  58.860 -51.327  1.00  0.00    -0.049 A 
HETATM    2  C   UNL     1     -42.576  58.847 -51.255  1.00  0.00     0.008 A 
HETATM    3  C   UNL     1     -41.880  57.638 -51.209  1.00  0.00     0.014 A 
HETATM    4  C   UNL     1     -42.587  56.433 -51.255  1.00  0.00    -0.005 A 
HETATM    5  C   UNL     1     -43.982  56.429 -51.296  1.00  0.00     0.014 A 
HETATM    6  C   UNL     1     -44.674  57.640 -51.338  1.00  0.00     0.008 A 
ENDROOT
BRANCH   1   7
HETATM    7  C   UNL     1     -44.732  60.171 -51.412  1.00  0.00     0.141 C 
BRANCH   7   8
HETATM    8  C   UNL     1     -43.841  61.399 -51.501  1.00  0.00     0.228 C 
HETATM    9  N   UNL     1     -43.868  62.331 -50.476  1.00  0.00    -0.317 N 
HETATM   10  C   UNL     1     -43.019  63.527 -50.597  1.00  0.00     0.137 A 
HETATM   11  C   UNL     1     -44.550  62.385 -49.244  1.00  0.00     0.046 A 
HETATM   12  C   UNL     1     -43.255  64.401 -49.367  1.00  0.00     0.061 A 
HETATM   13  C   UNL     1     -44.207  63.564 -48.575  1.00  0.00    -0.029 A 
HETATM   14  C   UNL     1     -44.727  63.877 -47.327  1.00  0.00     0.012 A 
HETATM   15  C   UNL     1     -45.611  62.982 -46.728  1.00  0.00     0.037 A 
HETATM   16  C   UNL     1     -45.964  61.794 -47.382  1.00  0.00     0.070 A 
HETATM   17  C   UNL     1     -45.432  61.499 -48.649  1.00  0.00     0.067 A 
HETATM   18  O   UNL     1     -43.097  61.578 -52.473  1.00  0.00    -0.273 OA
BRANCH  16  19
HETATM   19  O   UNL     1     -46.818  60.839 -46.895  1.00  0.00    -0.351 OA
BRANCH  19  20
HETATM   20  C   UNL     1     -46.268  59.860 -46.014  1.00  0.00     0.171 C 
HETATM   21  C   UNL     1     -47.377  58.896 -45.635  1.00  0.00     0.034 C 
ENDBRANCH  19  20
ENDBRANCH  16  19
ENDBRANCH   7   8
ENDBRANCH   1   7
BRANCH   4  22
HETATM   22  C   UNL     1     -41.864  55.139 -51.232  1.00  0.00     0.098 A 
HETATM   23  N   UNL     1     -41.701  54.577 -50.070  1.00  0.00    -0.170 NA
HETATM   24  N   UNL     1     -41.005  53.410 -50.007  1.00  0.00    -0.242 N 
HETATM   25  C   UNL     1     -40.407  52.767 -51.063  1.00  0.00     0.272 A 
HETATM   26  H   UNL     1     -40.876  53.010 -49.084  1.00  0.00     0.192 HD
HETATM   27  O   UNL     1     -39.749  51.741 -50.921  1.00  0.00    -0.266 OA
HETATM   28  C   UNL     1     -40.615  53.367 -52.389  1.00  0.00     0.046 A 
HETATM   29  C   UNL     1     -40.092  52.747 -53.533  1.00  0.00     0.018 A 
HETATM   30  C   UNL     1     -41.362  54.538 -52.495  1.00  0.00     0.011 A 
HETATM   31  C   UNL     1     -40.334  53.296 -54.791  1.00  0.00     0.001 A 
HETATM   32  C   UNL     1     -41.106  54.452 -54.907  1.00  0.00     0.001 A 
HETATM   33  C   UNL     1     -41.627  55.069 -53.765  1.00  0.00     0.015 A 
ENDBRANCH   4  22
TORSDOF 5
ENDMDL
MODEL 2
REMARK VINA RESULT:      -9.0      5.099      7.816
REMARK  5 active torsions:
REMARK  status: ('A' for Active; 'I' for Inactive)
REMARK    1  A    between atoms: C_2  and  O_3 
REMARK    2  A    between atoms: O_3  and  C_4 
REMARK       I    between atoms: N_10  and  C_11 
REMARK    3  A    between atoms: C_11  and  C_13 
REMARK    4  A    between atoms: C_13  and  C_14 
REMARK    5  A    between atoms: C_17  and  C_20 
ROOT
HETATM    1  C   UNL     1     -44.001  58.205 -54.564  1.00  0.00    -0.049 A 
HETATM    2  C   UNL     1     -42.612  58.365 -54.441  1.00  0.00     0.008 A 
HETATM    3  C   UNL     1     -41.896  57.635 -53.491  1.00  0.00     0.014 A 
HETATM    4  C   UNL     1     -42.568  56.722 -52.673  1.00  0.00    -0.005 A 
HETATM    5  C   UNL     1     -43.952  56.574 -52.762  1.00  0.00     0.014 A 
HETATM    6  C   UNL     1     -44.665  57.309 -53.710  1.00  0.00     0.008 A 
ENDROOT
BRANCH   1   7
HETATM    7  C   UNL     1     -44.773  58.972 -55.618  1.00  0.00     0.141 C 
BRANCH   7   8
HETATM    8  C   UNL     1     -43.997  60.113 -56.255  1.00  0.00     0.228 C 
HETATM    9  N   UNL     1     -43.254  59.872 -57.398  1.00  0.00    -0.317 N 
HETATM   10  C   UNL     1     -42.486  60.984 -57.980  1.00  0.00     0.137 A 
HETATM   11  C   UNL     1     -43.075  58.730 -58.204  1.00  0.00     0.046 A 
HETATM   12  C   UNL     1     -41.737  60.454 -59.201  1.00  0.00     0.061 A 
HETATM   13  C   UNL     1     -42.213  59.039 -59.261  1.00  0.00    -0.029 A 
HETATM   14  C   UNL     1     -41.864  58.100 -60.222  1.00  0.00     0.012 A 
HETATM   15  C   UNL     1     -42.398  56.816 -60.126  1.00  0.00     0.037 A 
HETATM   16  C   UNL     1     -43.266  56.490 -59.076  1.00  0.00     0.070 A 
HETATM   17  C   UNL     1     -43.601  57.453 -58.109  1.00  0.00     0.067 A 
HETATM   18  O   UNL     1     -44.017  61.249 -55.765  1.00  0.00    -0.273 OA
BRANCH  16  19
HETATM   19  O   UNL     1     -43.854  55.267 -58.878  1.00  0.00    -0.351 OA
BRANCH  19  20
HETATM   20  C   UNL     1     -44.485  54.657 -60.002  1.00  0.00     0.171 C 
HETATM   21  C   UNL     1     -45.761  55.426 -60.297  1.00  0.00     0.034 C 
ENDBRANCH  19  20
ENDBRANCH  16  19
ENDBRANCH   7   8
ENDBRANCH   1   7
BRANCH   4  22
HETATM   22  C   UNL     1     -41.821  55.919 -51.675  1.00  0.00     0.098 A 
HETATM   23  N   UNL     1     -41.741  56.403 -50.471  1.00  0.00    -0.170 NA
HETATM   24  N   UNL     1     -41.027  55.713 -49.541  1.00  0.00    -0.242 N 
HETATM   25  C   UNL     1     -40.331  54.550 -49.756  1.00  0.00     0.272 A 
HETATM   26  H   UNL     1     -40.966  56.130 -48.618  1.00  0.00     0.192 HD
HETATM   27  O   UNL     1     -39.665  54.010 -48.879  1.00  0.00    -0.266 OA
HETATM   28  C   UNL     1     -40.443  53.968 -51.102  1.00  0.00     0.046 A 
HETATM   29  C   UNL     1     -39.814  52.750 -51.397  1.00  0.00     0.018 A 
HETATM   30  C   UNL     1     -41.204  54.625 -52.066  1.00  0.00     0.011 A 
HETATM   31  C   UNL     1     -39.964  52.180 -52.660  1.00  0.00     0.001 A 
HETATM   32  C   UNL     1     -40.749  52.818 -53.620  1.00  0.00     0.001 A 
HETATM   33  C   UNL     1     -41.376  54.033 -53.325  1.00  0.00     0.015 A 
ENDBRANCH   4  22
TORSDOF 5
ENDMDL
MODEL 3
REMARK VINA RESULT:      -9.0      5.519      8.082
REMARK  5 active torsions:
REMARK  status: ('A' for Active; 'I' for Inactive)
REMARK    1  A    between atoms: C_2  and  O_3 
REMARK    2  A    between atoms: O_3  and  C_4 
REMARK       I    between atoms: N_10  and  C_11 
REMARK    3  A    between atoms: C_11  and  C_13 
REMARK    4  A    between atoms: C_13  and  C_14 
REMARK    5  A    between atoms: C_17  and  C_20 
ROOT
HETATM    1  C   UNL     1     -43.400  56.755 -55.136  1.00  0.00    -0.049 A 
HETATM    2  C   UNL     1     -41.997  56.759 -55.183  1.00  0.00     0.008 A 
HETATM    3  C   UNL     1     -41.263  55.801 -54.483  1.00  0.00     0.014 A 
HETATM    4  C   UNL     1     -41.933  54.818 -53.749  1.00  0.00    -0.005 A 
HETATM    5  C   UNL     1     -43.326  54.819 -53.668  1.00  0.00     0.014 A 
HETATM    6  C   UNL     1     -44.057  55.781 -54.366  1.00  0.00     0.008 A 
ENDROOT
BRANCH   1   7
HETATM    7  C   UNL     1     -44.199  57.774 -55.923  1.00  0.00     0.141 C 
BRANCH   7   8
HETATM    8  C   UNL     1     -43.651  59.190 -55.848  1.00  0.00     0.228 C 
HETATM    9  N   UNL     1     -43.023  59.732 -56.957  1.00  0.00    -0.317 N 
HETATM   10  C   UNL     1     -42.474  61.093 -56.852  1.00  0.00     0.137 A 
HETATM   11  C   UNL     1     -42.798  59.255 -58.263  1.00  0.00     0.046 A 
HETATM   12  C   UNL     1     -41.813  61.441 -58.184  1.00  0.00     0.061 A 
HETATM   13  C   UNL     1     -42.112  60.225 -59.000  1.00  0.00    -0.029 A 
HETATM   14  C   UNL     1     -41.763  60.027 -60.329  1.00  0.00     0.012 A 
HETATM   15  C   UNL     1     -42.117  58.826 -60.940  1.00  0.00     0.037 A 
HETATM   16  C   UNL     1     -42.808  57.844 -60.219  1.00  0.00     0.070 A 
HETATM   17  C   UNL     1     -43.146  58.061 -58.872  1.00  0.00     0.067 A 
HETATM   18  O   UNL     1     -43.756  59.860 -54.813  1.00  0.00    -0.273 OA
BRANCH  16  19
HETATM   19  O   UNL     1     -43.212  56.629 -60.710  1.00  0.00    -0.351 OA
BRANCH  19  20
HETATM   20  C   UNL     1     -44.491  56.152 -60.298  1.00  0.00     0.171 C 
HETATM   21  C   UNL     1     -44.336  54.702 -59.876  1.00  0.00     0.034 C 
ENDBRANCH  19  20
ENDBRANCH  16  19
ENDBRANCH   7   8
ENDBRANCH   1   7
BRANCH   4  22
HETATM   22  C   UNL     1     -41.170  53.777 -53.020  1.00  0.00     0.098 A 
HETATM   23  N   UNL     1     -40.653  52.819 -53.732  1.00  0.00    -0.170 NA
HETATM   24  N   UNL     1     -39.983  51.824 -53.091  1.00  0.00    -0.242 N 
HETATM   25  C   UNL     1     -39.825  51.700 -51.732  1.00  0.00     0.272 A 
HETATM   26  H   UNL     1     -39.612  51.081 -53.673  1.00  0.00     0.192 HD
HETATM   27  O   UNL     1     -39.251  50.745 -51.221  1.00  0.00    -0.266 OA
HETATM   28  C   UNL     1     -40.370  52.795 -50.915  1.00  0.00     0.046 A 
HETATM   29  C   UNL     1     -40.204  52.784 -49.523  1.00  0.00     0.018 A 
HETATM   30  C   UNL     1     -41.022  53.853 -51.543  1.00  0.00     0.011 A 
HETATM   31  C   UNL     1     -40.681  53.848 -48.759  1.00  0.00     0.001 A 
HETATM   32  C   UNL     1     -41.308  54.924 -49.385  1.00  0.00     0.001 A 
HETATM   33  C   UNL     1     -41.473  54.934 -50.773  1.00  0.00     0.015 A 
ENDBRANCH   4  22
TORSDOF 5
ENDMDL
MODEL 4
REMARK VINA RESULT:      -8.9      2.167      9.666
REMARK  5 active torsions:
REMARK  status: ('A' for Active; 'I' for Inactive)
REMARK    1  A    between atoms: C_2  and  O_3 
REMARK    2  A    between atoms: O_3  and  C_4 
REMARK       I    between atoms: N_10  and  C_11 
REMARK    3  A    between atoms: C_11  and  C_13 
REMARK    4  A    between atoms: C_13  and  C_14 
REMARK    5  A    between atoms: C_17  and  C_20 
ROOT
HETATM    1  C   UNL     1     -42.908  58.041 -51.354  1.00  0.00    -0.049 A 
HETATM    2  C   UNL     1     -42.418  59.318 -51.039  1.00  0.00     0.008 A 
HETATM    3  C   UNL     1     -43.295  60.346 -50.688  1.00  0.00     0.014 A 
HETATM    4  C   UNL     1     -44.669  60.092 -50.630  1.00  0.00    -0.005 A 
HETATM    5  C   UNL     1     -45.173  58.836 -50.971  1.00  0.00     0.014 A 
HETATM    6  C   UNL     1     -44.294  57.812 -51.325  1.00  0.00     0.008 A 
ENDROOT
BRANCH   1   7
HETATM    7  C   UNL     1     -41.954  56.916 -51.702  1.00  0.00     0.141 C 
BRANCH   7   8
HETATM    8  C   UNL     1     -41.795  56.671 -53.194  1.00  0.00     0.228 C 
HETATM    9  N   UNL     1     -41.247  55.476 -53.628  1.00  0.00    -0.317 N 
HETATM   10  C   UNL     1     -41.076  55.271 -55.075  1.00  0.00     0.137 A 
HETATM   11  C   UNL     1     -40.812  54.317 -52.955  1.00  0.00     0.046 A 
HETATM   12  C   UNL     1     -40.429  53.904 -55.287  1.00  0.00     0.061 A 
HETATM   13  C   UNL     1     -40.345  53.386 -53.888  1.00  0.00    -0.029 A 
HETATM   14  C   UNL     1     -39.860  52.143 -53.505  1.00  0.00     0.012 A 
HETATM   15  C   UNL     1     -39.848  51.820 -52.149  1.00  0.00     0.037 A 
HETATM   16  C   UNL     1     -40.315  52.738 -51.201  1.00  0.00     0.070 A 
HETATM   17  C   UNL     1     -40.795  53.994 -51.609  1.00  0.00     0.067 A 
HETATM   18  O   UNL     1     -42.145  57.522 -54.021  1.00  0.00    -0.273 OA
BRANCH  16  19
HETATM   19  O   UNL     1     -40.355  52.535 -49.846  1.00  0.00    -0.351 OA
BRANCH  19  20
HETATM   20  C   UNL     1     -40.979  53.544 -49.053  1.00  0.00     0.171 C 
HETATM   21  C   UNL     1     -40.030  53.907 -47.926  1.00  0.00     0.034 C 
ENDBRANCH  19  20
ENDBRANCH  16  19
ENDBRANCH   7   8
ENDBRANCH   1   7
BRANCH   4  22
HETATM   22  C   UNL     1     -45.613  61.164 -50.235  1.00  0.00     0.098 A 
HETATM   23  N   UNL     1     -46.198  61.817 -51.197  1.00  0.00    -0.170 NA
HETATM   24  N   UNL     1     -47.038  62.835 -50.870  1.00  0.00    -0.242 N 
HETATM   25  C   UNL     1     -47.311  63.284 -49.602  1.00  0.00     0.272 A 
HETATM   26  H   UNL     1     -47.459  63.338 -51.644  1.00  0.00     0.192 HD
HETATM   27  O   UNL     1     -48.042  64.245 -49.387  1.00  0.00    -0.266 OA
HETATM   28  C   UNL     1     -46.689  62.532 -48.501  1.00  0.00     0.046 A 
HETATM   29  C   UNL     1     -46.957  62.881 -47.170  1.00  0.00     0.018 A 
HETATM   30  C   UNL     1     -45.859  61.454 -48.799  1.00  0.00     0.011 A 
HETATM   31  C   UNL     1     -46.403  62.134 -46.132  1.00  0.00     0.001 A 
HETATM   32  C   UNL     1     -45.595  61.035 -46.423  1.00  0.00     0.001 A 
HETATM   33  C   UNL     1     -45.328  60.688 -47.751  1.00  0.00     0.015 A 
ENDBRANCH   4  22
TORSDOF 5
ENDMDL
MODEL 5
REMARK VINA RESULT:      -8.7      5.710      9.727
REMARK  5 active torsions:
REMARK  status: ('A' for Active; 'I' for Inactive)
REMARK    1  A    between atoms: C_2  and  O_3 
REMARK    2  A    between atoms: O_3  and  C_4 
REMARK       I    between atoms: N_10  and  C_11 
REMARK    3  A    between atoms: C_11  and  C_13 
REMARK    4  A    between atoms: C_13  and  C_14 
REMARK    5  A    between atoms: C_17  and  C_20 
ROOT
HETATM    1  C   UNL     1     -43.553  56.850 -55.508  1.00  0.00    -0.049 A 
HETATM    2  C   UNL     1     -44.594  57.731 -55.838  1.00  0.00     0.008 A 
HETATM    3  C   UNL     1     -44.532  58.494 -57.005  1.00  0.00     0.014 A 
HETATM    4  C   UNL     1     -43.433  58.362 -57.859  1.00  0.00    -0.005 A 
HETATM    5  C   UNL     1     -42.376  57.514 -57.528  1.00  0.00     0.014 A 
HETATM    6  C   UNL     1     -42.439  56.755 -56.359  1.00  0.00     0.008 A 
ENDROOT
BRANCH   1   7
HETATM    7  C   UNL     1     -43.635  55.995 -54.259  1.00  0.00     0.141 C 
BRANCH   7   8
HETATM    8  C   UNL     1     -43.349  56.745 -52.969  1.00  0.00     0.228 C 
HETATM    9  N   UNL     1     -42.478  56.194 -52.044  1.00  0.00    -0.317 N 
HETATM   10  C   UNL     1     -42.238  56.922 -50.789  1.00  0.00     0.137 A 
HETATM   11  C   UNL     1     -41.691  55.025 -52.044  1.00  0.00     0.046 A 
HETATM   12  C   UNL     1     -41.276  56.097 -49.938  1.00  0.00     0.061 A 
HETATM   13  C   UNL     1     -40.976  54.947 -50.845  1.00  0.00    -0.029 A 
HETATM   14  C   UNL     1     -40.109  53.898 -50.574  1.00  0.00     0.012 A 
HETATM   15  C   UNL     1     -39.948  52.900 -51.534  1.00  0.00     0.037 A 
HETATM   16  C   UNL     1     -40.653  52.962 -52.742  1.00  0.00     0.070 A 
HETATM   17  C   UNL     1     -41.532  54.030 -52.994  1.00  0.00     0.067 A 
HETATM   18  O   UNL     1     -43.884  57.836 -52.733  1.00  0.00    -0.273 OA
BRANCH  16  19
HETATM   19  O   UNL     1     -40.577  52.046 -53.759  1.00  0.00    -0.351 OA
BRANCH  19  20
HETATM   20  C   UNL     1     -39.529  51.080 -53.689  1.00  0.00     0.171 C 
HETATM   21  C   UNL     1     -39.895  49.927 -54.605  1.00  0.00     0.034 C 
ENDBRANCH  19  20
ENDBRANCH  16  19
ENDBRANCH   7   8
ENDBRANCH   1   7
BRANCH   4  22
HETATM   22  C   UNL     1     -43.361  59.147 -59.114  1.00  0.00     0.098 A 
HETATM   23  N   UNL     1     -44.170  58.800 -60.072  1.00  0.00    -0.170 NA
HETATM   24  N   UNL     1     -44.101  59.471 -61.253  1.00  0.00    -0.242 N 
HETATM   25  C   UNL     1     -43.218  60.476 -61.562  1.00  0.00     0.272 A 
HETATM   26  H   UNL     1     -44.730  59.160 -61.986  1.00  0.00     0.192 HD
HETATM   27  O   UNL     1     -43.180  61.001 -62.670  1.00  0.00    -0.266 OA
HETATM   28  C   UNL     1     -42.323  60.908 -60.478  1.00  0.00     0.046 A 
HETATM   29  C   UNL     1     -41.428  61.967 -60.683  1.00  0.00     0.018 A 
HETATM   30  C   UNL     1     -42.398  60.272 -59.241  1.00  0.00     0.011 A 
HETATM   31  C   UNL     1     -40.617  62.402 -59.637  1.00  0.00     0.001 A 
HETATM   32  C   UNL     1     -40.709  61.790 -58.388  1.00  0.00     0.001 A 
HETATM   33  C   UNL     1     -41.601  60.733 -58.184  1.00  0.00     0.015 A 
ENDBRANCH   4  22
TORSDOF 5
ENDMDL
MODEL 6
REMARK VINA RESULT:      -8.6      2.254     10.050
REMARK  5 active torsions:
REMARK  status: ('A' for Active; 'I' for Inactive)
REMARK    1  A    between atoms: C_2  and  O_3 
REMARK    2  A    between atoms: O_3  and  C_4 
REMARK       I    between atoms: N_10  and  C_11 
REMARK    3  A    between atoms: C_11  and  C_13 
REMARK    4  A    between atoms: C_13  and  C_14 
REMARK    5  A    between atoms: C_17  and  C_20 
ROOT
HETATM    1  C   UNL     1     -43.044  58.359 -51.349  1.00  0.00    -0.049 A 
HETATM    2  C   UNL     1     -44.399  58.051 -51.150  1.00  0.00     0.008 A 
HETATM    3  C   UNL     1     -45.284  59.022 -50.680  1.00  0.00     0.014 A 
HETATM    4  C   UNL     1     -44.819  60.316 -50.428  1.00  0.00    -0.005 A 
HETATM    5  C   UNL     1     -43.470  60.629 -50.592  1.00  0.00     0.014 A 
HETATM    6  C   UNL     1     -42.587  59.655 -51.057  1.00  0.00     0.008 A 
ENDROOT
BRANCH   1   7
HETATM    7  C   UNL     1     -42.089  57.314 -51.890  1.00  0.00     0.141 C 
BRANCH   7   8
HETATM    8  C   UNL     1     -41.465  56.427 -50.826  1.00  0.00     0.228 C 
HETATM    9  N   UNL     1     -41.013  55.166 -51.176  1.00  0.00    -0.317 N 
HETATM   10  C   UNL     1     -40.439  54.313 -50.125  1.00  0.00     0.137 A 
HETATM   11  C   UNL     1     -40.945  54.476 -52.403  1.00  0.00     0.046 A 
HETATM   12  C   UNL     1     -40.050  52.978 -50.757  1.00  0.00     0.061 A 
HETATM   13  C   UNL     1     -40.382  53.213 -52.195  1.00  0.00    -0.029 A 
HETATM   14  C   UNL     1     -40.186  52.316 -53.235  1.00  0.00     0.012 A 
HETATM   15  C   UNL     1     -40.559  52.696 -54.524  1.00  0.00     0.037 A 
HETATM   16  C   UNL     1     -41.121  53.958 -54.752  1.00  0.00     0.070 A 
HETATM   17  C   UNL     1     -41.317  54.849 -53.683  1.00  0.00     0.067 A 
HETATM   18  O   UNL     1     -41.360  56.813 -49.655  1.00  0.00    -0.273 OA
BRANCH  16  19
HETATM   19  O   UNL     1     -41.522  54.444 -55.969  1.00  0.00    -0.351 OA
BRANCH  19  20
HETATM   20  C   UNL     1     -42.827  55.016 -56.045  1.00  0.00     0.171 C 
HETATM   21  C   UNL     1     -42.753  56.235 -56.946  1.00  0.00     0.034 C 
ENDBRANCH  19  20
ENDBRANCH  16  19
ENDBRANCH   7   8
ENDBRANCH   1   7
BRANCH   4  22
HETATM   22  C   UNL     1     -45.750  61.368 -49.953  1.00  0.00     0.098 A 
HETATM   23  N   UNL     1     -46.484  61.954 -50.853  1.00  0.00    -0.170 NA
HETATM   24  N   UNL     1     -47.319  62.953 -50.458  1.00  0.00    -0.242 N 
HETATM   25  C   UNL     1     -47.442  63.447 -49.183  1.00  0.00     0.272 A 
HETATM   26  H   UNL     1     -47.859  63.404 -51.188  1.00  0.00     0.192 HD
HETATM   27  O   UNL     1     -48.180  64.388 -48.911  1.00  0.00    -0.266 OA
HETATM   28  C   UNL     1     -46.648  62.769 -48.146  1.00  0.00     0.046 A 
HETATM   29  C   UNL     1     -46.754  63.167 -46.806  1.00  0.00     0.018 A 
HETATM   30  C   UNL     1     -45.817  61.712 -48.510  1.00  0.00     0.011 A 
HETATM   31  C   UNL     1     -46.036  62.489 -45.823  1.00  0.00     0.001 A 
HETATM   32  C   UNL     1     -45.226  61.411 -46.176  1.00  0.00     0.001 A 
HETATM   33  C   UNL     1     -45.120  61.015 -47.513  1.00  0.00     0.015 A 
ENDBRANCH   4  22
TORSDOF 5
ENDMDL
MODEL 7
REMARK VINA RESULT:      -8.6      1.398      1.835
REMARK  5 active torsions:
REMARK  status: ('A' for Active; 'I' for Inactive)
REMARK    1  A    between atoms: C_2  and  O_3 
REMARK    2  A    between atoms: O_3  and  C_4 
REMARK       I    between atoms: N_10  and  C_11 
REMARK    3  A    between atoms: C_11  and  C_13 
REMARK    4  A    between atoms: C_13  and  C_14 
REMARK    5  A    between atoms: C_17  and  C_20 
ROOT
HETATM    1  C   UNL     1     -42.188  59.635 -50.925  1.00  0.00    -0.049 A 
HETATM    2  C   UNL     1     -40.904  59.195 -50.567  1.00  0.00     0.008 A 
HETATM    3  C   UNL     1     -40.587  57.836 -50.599  1.00  0.00     0.014 A 
HETATM    4  C   UNL     1     -41.551  56.911 -51.011  1.00  0.00    -0.005 A 
HETATM    5  C   UNL     1     -42.841  57.330 -51.339  1.00  0.00     0.014 A 
HETATM    6  C   UNL     1     -43.156  58.689 -51.303  1.00  0.00     0.008 A 
ENDROOT
BRANCH   1   7
HETATM    7  C   UNL     1     -42.523  61.113 -50.924  1.00  0.00     0.141 C 
BRANCH   7   8
HETATM    8  C   UNL     1     -43.516  61.529 -51.996  1.00  0.00     0.228 C 
HETATM    9  N   UNL     1     -44.757  62.014 -51.618  1.00  0.00    -0.317 N 
HETATM   10  C   UNL     1     -45.714  62.383 -52.672  1.00  0.00     0.137 A 
HETATM   11  C   UNL     1     -45.343  62.281 -50.364  1.00  0.00     0.046 A 
HETATM   12  C   UNL     1     -47.002  62.852 -52.000  1.00  0.00     0.061 A 
HETATM   13  C   UNL     1     -46.636  62.778 -50.553  1.00  0.00    -0.029 A 
HETATM   14  C   UNL     1     -47.448  63.136 -49.486  1.00  0.00     0.012 A 
HETATM   15  C   UNL     1     -46.949  62.998 -48.192  1.00  0.00     0.037 A 
HETATM   16  C   UNL     1     -45.655  62.505 -47.983  1.00  0.00     0.070 A 
HETATM   17  C   UNL     1     -44.851  62.141 -49.077  1.00  0.00     0.067 A 
HETATM   18  O   UNL     1     -43.234  61.437 -53.197  1.00  0.00    -0.273 OA
BRANCH  16  19
HETATM   19  O   UNL     1     -45.055  62.328 -46.763  1.00  0.00    -0.351 OA
BRANCH  19  20
HETATM   20  C   UNL     1     -44.744  60.990 -46.378  1.00  0.00     0.171 C 
HETATM   21  C   UNL     1     -46.050  60.262 -46.116  1.00  0.00     0.034 C 
ENDBRANCH  19  20
ENDBRANCH  16  19
ENDBRANCH   7   8
ENDBRANCH   1   7
BRANCH   4  22
HETATM   22  C   UNL     1     -41.225  55.467 -51.074  1.00  0.00     0.098 A 
HETATM   23  N   UNL     1     -41.228  54.813 -49.950  1.00  0.00    -0.170 NA
HETATM   24  N   UNL     1     -40.892  53.495 -49.966  1.00  0.00    -0.242 N 
HETATM   25  C   UNL     1     -40.501  52.773 -51.067  1.00  0.00     0.272 A 
HETATM   26  H   UNL     1     -40.881  53.020 -49.070  1.00  0.00     0.192 HD
HETATM   27  O   UNL     1     -40.161  51.597 -50.996  1.00  0.00    -0.266 OA
HETATM   28  C   UNL     1     -40.530  53.487 -52.353  1.00  0.00     0.046 A 
HETATM   29  C   UNL     1     -40.204  52.815 -53.539  1.00  0.00     0.018 A 
HETATM   30  C   UNL     1     -40.914  54.826 -52.378  1.00  0.00     0.011 A 
HETATM   31  C   UNL     1     -40.280  53.484 -54.759  1.00  0.00     0.001 A 
HETATM   32  C   UNL     1     -40.693  54.816 -54.795  1.00  0.00     0.001 A 
HETATM   33  C   UNL     1     -41.017  55.485 -53.611  1.00  0.00     0.015 A 
ENDBRANCH   4  22
TORSDOF 5
ENDMDL
MODEL 8
REMARK VINA RESULT:      -8.5      2.804      5.341
REMARK  5 active torsions:
REMARK  status: ('A' for Active; 'I' for Inactive)
REMARK    1  A    between atoms: C_2  and  O_3 
REMARK    2  A    between atoms: O_3  and  C_4 
REMARK       I    between atoms: N_10  and  C_11 
REMARK    3  A    between atoms: C_11  and  C_13 
REMARK    4  A    between atoms: C_13  and  C_14 
REMARK    5  A    between atoms: C_17  and  C_20 
ROOT
HETATM    1  C   UNL     1     -41.914  58.894 -51.032  1.00  0.00    -0.049 A 
HETATM    2  C   UNL     1     -40.632  58.476 -50.643  1.00  0.00     0.008 A 
HETATM    3  C   UNL     1     -40.317  57.118 -50.587  1.00  0.00     0.014 A 
HETATM    4  C   UNL     1     -41.282  56.170 -50.942  1.00  0.00    -0.005 A 
HETATM    5  C   UNL     1     -42.569  56.569 -51.301  1.00  0.00     0.014 A 
HETATM    6  C   UNL     1     -42.882  57.927 -51.352  1.00  0.00     0.008 A 
ENDROOT
BRANCH   1   7
HETATM    7  C   UNL     1     -42.247  60.369 -51.127  1.00  0.00     0.141 C 
BRANCH   7   8
HETATM    8  C   UNL     1     -43.725  60.687 -50.978  1.00  0.00     0.228 C 
HETATM    9  N   UNL     1     -44.486  60.917 -52.113  1.00  0.00    -0.317 N 
HETATM   10  C   UNL     1     -45.908  61.252 -51.944  1.00  0.00     0.137 A 
HETATM   11  C   UNL     1     -44.194  60.872 -53.490  1.00  0.00     0.046 A 
HETATM   12  C   UNL     1     -46.507  61.488 -53.329  1.00  0.00     0.061 A 
HETATM   13  C   UNL     1     -45.345  61.186 -54.219  1.00  0.00    -0.029 A 
HETATM   14  C   UNL     1     -45.352  61.210 -55.607  1.00  0.00     0.012 A 
HETATM   15  C   UNL     1     -44.173  60.905 -56.285  1.00  0.00     0.037 A 
HETATM   16  C   UNL     1     -43.010  60.586 -55.572  1.00  0.00     0.070 A 
HETATM   17  C   UNL     1     -43.023  60.574 -54.167  1.00  0.00     0.067 A 
HETATM   18  O   UNL     1     -44.256  60.746 -49.862  1.00  0.00    -0.273 OA
BRANCH  16  19
HETATM   19  O   UNL     1     -41.797  60.267 -56.125  1.00  0.00    -0.351 OA
BRANCH  19  20
HETATM   20  C   UNL     1     -41.741  60.137 -57.545  1.00  0.00     0.171 C 
HETATM   21  C   UNL     1     -40.999  61.341 -58.096  1.00  0.00     0.034 C 
ENDBRANCH  19  20
ENDBRANCH  16  19
ENDBRANCH   7   8
ENDBRANCH   1   7
BRANCH   4  22
HETATM   22  C   UNL     1     -40.958  54.724 -50.912  1.00  0.00     0.098 A 
HETATM   23  N   UNL     1     -40.939  54.149 -49.745  1.00  0.00    -0.170 NA
HETATM   24  N   UNL     1     -40.604  52.832 -49.677  1.00  0.00    -0.242 N 
HETATM   25  C   UNL     1     -40.235  52.036 -50.733  1.00  0.00     0.272 A 
HETATM   26  H   UNL     1     -40.577  52.421 -48.750  1.00  0.00     0.192 HD
HETATM   27  O   UNL     1     -39.895  50.867 -50.587  1.00  0.00    -0.266 OA
HETATM   28  C   UNL     1     -40.289  52.659 -52.064  1.00  0.00     0.046 A 
HETATM   29  C   UNL     1     -39.987  51.906 -53.207  1.00  0.00     0.018 A 
HETATM   30  C   UNL     1     -40.672  53.994 -52.174  1.00  0.00     0.011 A 
HETATM   31  C   UNL     1     -40.086  52.490 -54.468  1.00  0.00     0.001 A 
HETATM   32  C   UNL     1     -40.499  53.816 -54.588  1.00  0.00     0.001 A 
HETATM   33  C   UNL     1     -40.799  54.567 -53.447  1.00  0.00     0.015 A 
ENDBRANCH   4  22
TORSDOF 5
ENDMDL
MODEL 9
REMARK VINA RESULT:      -8.4     18.995     22.110
REMARK  5 active torsions:
REMARK  status: ('A' for Active; 'I' for Inactive)
REMARK    1  A    between atoms: C_2  and  O_3 
REMARK    2  A    between atoms: O_3  and  C_4 
REMARK       I    between atoms: N_10  and  C_11 
REMARK    3  A    between atoms: C_11  and  C_13 
REMARK    4  A    between atoms: C_13  and  C_14 
REMARK    5  A    between atoms: C_17  and  C_20 
ROOT
HETATM    1  C   UNL     1     -37.039  41.160 -56.745  1.00  0.00    -0.049 A 
HETATM    2  C   UNL     1     -37.129  39.759 -56.759  1.00  0.00     0.008 A 
HETATM    3  C   UNL     1     -37.244  39.069 -57.966  1.00  0.00     0.014 A 
HETATM    4  C   UNL     1     -37.249  39.780 -59.170  1.00  0.00    -0.005 A 
HETATM    5  C   UNL     1     -37.191  41.174 -59.171  1.00  0.00     0.014 A 
HETATM    6  C   UNL     1     -37.081  41.861 -57.962  1.00  0.00     0.008 A 
ENDROOT
BRANCH   1   7
HETATM    7  C   UNL     1     -36.880  41.908 -55.437  1.00  0.00     0.141 C 
BRANCH   7   8
HETATM    8  C   UNL     1     -37.372  41.145 -54.217  1.00  0.00     0.228 C 
HETATM    9  N   UNL     1     -36.481  40.359 -53.506  1.00  0.00    -0.317 N 
HETATM   10  C   UNL     1     -36.985  39.607 -52.347  1.00  0.00     0.137 A 
HETATM   11  C   UNL     1     -35.098  40.120 -53.630  1.00  0.00     0.046 A 
HETATM   12  C   UNL     1     -35.826  38.803 -51.763  1.00  0.00     0.061 A 
HETATM   13  C   UNL     1     -34.687  39.235 -52.630  1.00  0.00    -0.029 A 
HETATM   14  C   UNL     1     -33.366  38.827 -52.506  1.00  0.00     0.012 A 
HETATM   15  C   UNL     1     -32.427  39.326 -53.407  1.00  0.00     0.037 A 
HETATM   16  C   UNL     1     -32.819  40.217 -54.414  1.00  0.00     0.070 A 
HETATM   17  C   UNL     1     -34.163  40.611 -54.527  1.00  0.00     0.067 A 
HETATM   18  O   UNL     1     -38.553  41.215 -53.856  1.00  0.00    -0.273 OA
BRANCH  16  19
HETATM   19  O   UNL     1     -31.990  40.775 -55.353  1.00  0.00    -0.351 OA
BRANCH  19  20
HETATM   20  C   UNL     1     -31.790  40.044 -56.562  1.00  0.00     0.171 C 
HETATM   21  C   UNL     1     -30.422  39.390 -56.493  1.00  0.00     0.034 C 
ENDBRANCH  19  20
ENDBRANCH  16  19
ENDBRANCH   7   8
ENDBRANCH   1   7
BRANCH   4  22
HETATM   22  C   UNL     1     -37.345  39.062 -60.463  1.00  0.00     0.098 A 
HETATM   23  N   UNL     1     -36.242  38.910 -61.136  1.00  0.00    -0.170 NA
HETATM   24  N   UNL     1     -36.301  38.294 -62.347  1.00  0.00    -0.242 N 
HETATM   25  C   UNL     1     -37.438  37.838 -62.968  1.00  0.00     0.272 A 
HETATM   26  H   UNL     1     -35.427  38.212 -62.855  1.00  0.00     0.192 HD
HETATM   27  O   UNL     1     -37.420  37.338 -64.087  1.00  0.00    -0.266 OA
HETATM   28  C   UNL     1     -38.689  37.967 -62.204  1.00  0.00     0.046 A 
HETATM   29  C   UNL     1     -39.890  37.476 -62.734  1.00  0.00     0.018 A 
HETATM   30  C   UNL     1     -38.656  38.552 -60.941  1.00  0.00     0.011 A 
HETATM   31  C   UNL     1     -41.063  37.557 -61.985  1.00  0.00     0.001 A 
HETATM   32  C   UNL     1     -41.032  38.115 -60.707  1.00  0.00     0.001 A 
HETATM   33  C   UNL     1     -39.833  38.605 -60.180  1.00  0.00     0.015 A 
ENDBRANCH   4  22
TORSDOF 5
ENDMDL
MODEL 10
REMARK VINA RESULT:      -8.4      5.116      7.519
REMARK  5 active torsions:
REMARK  status: ('A' for Active; 'I' for Inactive)
REMARK    1  A    between atoms: C_2  and  O_3 
REMARK    2  A    between atoms: O_3  and  C_4 
REMARK       I    between atoms: N_10  and  C_11 
REMARK    3  A    between atoms: C_11  and  C_13 
REMARK    4  A    between atoms: C_13  and  C_14 
REMARK    5  A    between atoms: C_17  and  C_20 
ROOT
HETATM    1  C   UNL     1     -43.533  57.022 -55.658  1.00  0.00    -0.049 A 
HETATM    2  C   UNL     1     -44.268  56.327 -54.686  1.00  0.00     0.008 A 
HETATM    3  C   UNL     1     -43.626  55.759 -53.584  1.00  0.00     0.014 A 
HETATM    4  C   UNL     1     -42.243  55.904 -53.442  1.00  0.00    -0.005 A 
HETATM    5  C   UNL     1     -41.495  56.566 -54.416  1.00  0.00     0.014 A 
HETATM    6  C   UNL     1     -42.140  57.129 -55.517  1.00  0.00     0.008 A 
ENDROOT
BRANCH   1   7
HETATM    7  C   UNL     1     -44.234  57.668 -56.836  1.00  0.00     0.141 C 
BRANCH   7   8
HETATM    8  C   UNL     1     -43.667  57.279 -58.191  1.00  0.00     0.228 C 
HETATM    9  N   UNL     1     -43.024  58.238 -58.956  1.00  0.00    -0.317 N 
HETATM   10  C   UNL     1     -42.508  57.846 -60.277  1.00  0.00     0.137 A 
HETATM   11  C   UNL     1     -42.703  59.591 -58.730  1.00  0.00     0.046 A 
HETATM   12  C   UNL     1     -41.880  59.079 -60.924  1.00  0.00     0.061 A 
HETATM   13  C   UNL     1     -42.031  60.101 -59.845  1.00  0.00    -0.029 A 
HETATM   14  C   UNL     1     -41.586  61.415 -59.896  1.00  0.00     0.012 A 
HETATM   15  C   UNL     1     -41.815  62.241 -58.797  1.00  0.00     0.037 A 
HETATM   16  C   UNL     1     -42.484  61.747 -57.670  1.00  0.00     0.070 A 
HETATM   17  C   UNL     1     -42.933  60.415 -57.641  1.00  0.00     0.067 A 
HETATM   18  O   UNL     1     -43.773  56.123 -58.619  1.00  0.00    -0.273 OA
BRANCH  16  19
HETATM   19  O   UNL     1     -42.765  62.458 -56.533  1.00  0.00    -0.351 OA
BRANCH  19  20
HETATM   20  C   UNL     1     -43.495  61.787 -55.507  1.00  0.00     0.171 C 
HETATM   21  C   UNL     1     -44.723  62.619 -55.186  1.00  0.00     0.034 C 
ENDBRANCH  19  20
ENDBRANCH  16  19
ENDBRANCH   7   8
ENDBRANCH   1   7
BRANCH   4  22
HETATM   22  C   UNL     1     -41.546  55.329 -52.266  1.00  0.00     0.098 A 
HETATM   23  N   UNL     1     -41.568  56.029 -51.169  1.00  0.00    -0.170 NA
HETATM   24  N   UNL     1     -40.903  55.551 -50.083  1.00  0.00    -0.242 N 
HETATM   25  C   UNL     1     -40.159  54.398 -50.033  1.00  0.00     0.272 A 
HETATM   26  H   UNL     1     -40.920  56.131 -49.252  1.00  0.00     0.192 HD
HETATM   27  O   UNL     1     -39.542  54.056 -49.030  1.00  0.00    -0.266 OA
HETATM   28  C   UNL     1     -40.156  53.575 -51.252  1.00  0.00     0.046 A 
HETATM   29  C   UNL     1     -39.472  52.352 -51.275  1.00  0.00     0.018 A 
HETATM   30  C   UNL     1     -40.865  54.013 -52.369  1.00  0.00     0.011 A 
HETATM   31  C   UNL     1     -39.513  51.555 -52.418  1.00  0.00     0.001 A 
HETATM   32  C   UNL     1     -40.246  51.973 -53.528  1.00  0.00     0.001 A 
HETATM   33  C   UNL     1     -40.927  53.194 -53.505  1.00  0.00     0.015 A 
ENDBRANCH   4  22
TORSDOF 5
ENDMDL
