MODEL 1
REMARK VINA RESULT:      -9.9      0.000      0.000
REMARK  7 active torsions:
REMARK  status: ('A' for Active; 'I' for Inactive)
REMARK    1  A    between atoms: C_9  and  C_10 
REMARK       I    between atoms: C_10  and  N_11 
REMARK    2  A    between atoms: N_11  and  C_12 
REMARK    3  A    between atoms: C_12  and  C_13 
REMARK    4  A    between atoms: C_12  and  C_22 
REMARK       I    between atoms: C_13  and  N_14 
REMARK    5  A    between atoms: N_14  and  C_15 
REMARK    6  A    between atoms: C_15  and  C_16 
REMARK    7  A    between atoms: C_22  and  C_23 
ROOT
HETATM    1  C   UNL     1     -41.857  54.774 -54.482  1.00  0.00     0.180 C 
ENDROOT
BRANCH   1   2
HETATM    2  N   UNL     1     -41.959  55.890 -55.447  1.00  0.00    -0.346 N 
HETATM    3  C   UNL     1     -42.739  55.839 -56.565  1.00  0.00     0.249 C 
HETATM    4  O   UNL     1     -43.343  54.823 -56.915  1.00  0.00    -0.271 OA
HETATM    5  H   UNL     1     -41.557  56.759 -55.097  1.00  0.00     0.163 HD
BRANCH   3   6
HETATM    6  C   UNL     1     -42.748  57.080 -57.485  1.00  0.00     0.281 C 
HETATM    7  N   UNL     1     -42.035  56.779 -58.794  1.00  0.00    -0.058 N 
HETATM    8  C   UNL     1     -42.781  55.835 -59.677  1.00  0.00     0.272 C 
HETATM    9  H   UNL     1     -41.838  57.645 -59.305  1.00  0.00     0.278 HD
HETATM   10  H   UNL     1     -41.138  56.329 -58.558  1.00  0.00     0.278 HD
HETATM   11  C   UNL     1     -44.234  56.179 -59.819  1.00  0.00    -0.026 A 
HETATM   12  C   UNL     1     -44.880  57.020 -58.895  1.00  0.00    -0.048 A 
HETATM   13  C   UNL     1     -44.977  55.606 -60.863  1.00  0.00     0.009 A 
HETATM   14  C   UNL     1     -46.246  57.298 -59.050  1.00  0.00     0.008 A 
HETATM   15  C   UNL     1     -44.117  57.698 -57.784  1.00  0.00     0.082 C 
HETATM   16  C   UNL     1     -46.969  56.730 -60.097  1.00  0.00     0.001 A 
HETATM   17  C   UNL     1     -46.336  55.885 -61.003  1.00  0.00     0.001 A 
ENDBRANCH   3   6
ENDBRANCH   1   2
BRANCH   1  18
HETATM   18  C   UNL     1     -42.686  55.239 -53.264  1.00  0.00     0.241 C 
HETATM   19  N   UNL     1     -42.391  56.472 -52.756  1.00  0.00    -0.353 N 
HETATM   20  H   UNL     1     -41.843  57.134 -53.297  1.00  0.00     0.162 HD
HETATM   21  O   UNL     1     -43.528  54.484 -52.765  1.00  0.00    -0.271 OA
BRANCH  19  22
HETATM   22  C   UNL     1     -43.042  57.015 -51.582  1.00  0.00     0.187 C 
BRANCH  22  23
HETATM   23  C   UNL     1     -42.233  58.127 -51.029  1.00  0.00     0.070 A 
HETATM   24  O   UNL     1     -42.817  59.360 -50.992  1.00  0.00    -0.325 OA
HETATM   25  C   UNL     1     -41.900  60.219 -50.477  1.00  0.00     0.142 A 
HETATM   26  C   UNL     1     -40.727  59.560 -50.197  1.00  0.00     0.027 A 
HETATM   27  C   UNL     1     -40.940  58.206 -50.553  1.00  0.00     0.036 A 
ENDBRANCH  22  23
ENDBRANCH  19  22
ENDBRANCH   1  18
BRANCH   1  28
HETATM   28  C   UNL     1     -40.389  54.495 -54.141  1.00  0.00     0.075 C 
BRANCH  28  29
HETATM   29  C   UNL     1     -40.169  53.521 -53.022  1.00  0.00    -0.028 A 
HETATM   30  C   UNL     1     -39.962  52.108 -53.155  1.00  0.00    -0.002 A 
HETATM   31  C   UNL     1     -39.841  51.580 -51.869  1.00  0.00     0.042 A 
HETATM   32  C   UNL     1     -39.879  51.224 -54.250  1.00  0.00     0.014 A 
HETATM   33  C   UNL     1     -39.643  50.216 -51.624  1.00  0.00     0.030 A 
HETATM   34  N   UNL     1     -39.968  52.626 -50.987  1.00  0.00    -0.365 N 
HETATM   35  C   UNL     1     -39.571  49.362 -52.727  1.00  0.00     0.002 A 
HETATM   36  C   UNL     1     -39.688  49.856 -54.023  1.00  0.00     0.001 A 
HETATM   37  H   UNL     1     -39.935  52.530 -49.980  1.00  0.00     0.165 HD
HETATM   38  C   UNL     1     -40.179  53.796 -51.668  1.00  0.00     0.096 A 
ENDBRANCH  28  29
ENDBRANCH   1  28
TORSDOF 7
ENDMDL
MODEL 2
REMARK VINA RESULT:      -9.7      1.771      2.393
REMARK  7 active torsions:
REMARK  status: ('A' for Active; 'I' for Inactive)
REMARK    1  A    between atoms: C_9  and  C_10 
REMARK       I    between atoms: C_10  and  N_11 
REMARK    2  A    between atoms: N_11  and  C_12 
REMARK    3  A    between atoms: C_12  and  C_13 
REMARK    4  A    between atoms: C_12  and  C_22 
REMARK       I    between atoms: C_13  and  N_14 
REMARK    5  A    between atoms: N_14  and  C_15 
REMARK    6  A    between atoms: C_15  and  C_16 
REMARK    7  A    between atoms: C_22  and  C_23 
ROOT
HETATM    1  C   UNL     1     -42.790  54.814 -54.791  1.00  0.00     0.180 C 
ENDROOT
BRANCH   1   2
HETATM    2  N   UNL     1     -43.230  54.806 -56.203  1.00  0.00    -0.346 N 
HETATM    3  C   UNL     1     -42.834  55.743 -57.112  1.00  0.00     0.249 C 
HETATM    4  O   UNL     1     -42.158  56.728 -56.809  1.00  0.00    -0.271 OA
HETATM    5  H   UNL     1     -43.685  53.936 -56.475  1.00  0.00     0.163 HD
BRANCH   3   6
HETATM    6  C   UNL     1     -43.373  55.610 -58.554  1.00  0.00     0.281 C 
HETATM    7  N   UNL     1     -44.795  56.142 -58.643  1.00  0.00    -0.058 N 
HETATM    8  C   UNL     1     -44.889  57.624 -58.500  1.00  0.00     0.272 C 
HETATM    9  H   UNL     1     -45.234  55.852 -59.522  1.00  0.00     0.278 HD
HETATM   10  H   UNL     1     -45.326  55.727 -57.863  1.00  0.00     0.278 HD
HETATM   11  C   UNL     1     -43.889  58.364 -59.338  1.00  0.00    -0.026 A 
HETATM   12  C   UNL     1     -42.744  57.725 -59.846  1.00  0.00    -0.048 A 
HETATM   13  C   UNL     1     -44.071  59.736 -59.574  1.00  0.00     0.009 A 
HETATM   14  C   UNL     1     -41.821  58.459 -60.606  1.00  0.00     0.008 A 
HETATM   15  C   UNL     1     -42.526  56.244 -59.661  1.00  0.00     0.082 C 
HETATM   16  C   UNL     1     -42.021  59.818 -60.841  1.00  0.00     0.001 A 
HETATM   17  C   UNL     1     -43.144  60.456 -60.325  1.00  0.00     0.001 A 
ENDBRANCH   3   6
ENDBRANCH   1   2
BRANCH   1  18
HETATM   18  C   UNL     1     -43.298  56.163 -54.235  1.00  0.00     0.241 C 
HETATM   19  N   UNL     1     -42.349  57.060 -53.837  1.00  0.00    -0.353 N 
HETATM   20  H   UNL     1     -41.381  56.946 -54.123  1.00  0.00     0.162 HD
HETATM   21  O   UNL     1     -44.513  56.364 -54.118  1.00  0.00    -0.271 OA
BRANCH  19  22
HETATM   22  C   UNL     1     -42.676  58.339 -53.241  1.00  0.00     0.187 C 
BRANCH  22  23
HETATM   23  C   UNL     1     -41.639  58.709 -52.248  1.00  0.00     0.070 A 
HETATM   24  O   UNL     1     -42.073  59.101 -51.015  1.00  0.00    -0.325 OA
HETATM   25  C   UNL     1     -40.970  59.411 -50.286  1.00  0.00     0.142 A 
HETATM   26  C   UNL     1     -39.832  59.240 -51.037  1.00  0.00     0.027 A 
HETATM   27  C   UNL     1     -40.262  58.786 -52.308  1.00  0.00     0.036 A 
ENDBRANCH  22  23
ENDBRANCH  19  22
ENDBRANCH   1  18
BRANCH   1  28
HETATM   28  C   UNL     1     -41.267  54.663 -54.705  1.00  0.00     0.075 C 
BRANCH  28  29
HETATM   29  C   UNL     1     -40.770  53.889 -53.520  1.00  0.00    -0.028 A 
HETATM   30  C   UNL     1     -40.387  52.507 -53.509  1.00  0.00    -0.002 A 
HETATM   31  C   UNL     1     -40.028  52.183 -52.200  1.00  0.00     0.042 A 
HETATM   32  C   UNL     1     -40.325  51.495 -54.488  1.00  0.00     0.014 A 
HETATM   33  C   UNL     1     -39.612  50.901 -51.822  1.00  0.00     0.030 A 
HETATM   34  N   UNL     1     -40.184  53.319 -51.443  1.00  0.00    -0.365 N 
HETATM   35  C   UNL     1     -39.566  49.916 -52.811  1.00  0.00     0.002 A 
HETATM   36  C   UNL     1     -39.917  50.205 -54.126  1.00  0.00     0.001 A 
HETATM   37  H   UNL     1     -40.007  53.370 -50.448  1.00  0.00     0.165 HD
HETATM   38  C   UNL     1     -40.643  54.349 -52.223  1.00  0.00     0.096 A 
ENDBRANCH  28  29
ENDBRANCH   1  28
TORSDOF 7
ENDMDL
MODEL 3
REMARK VINA RESULT:      -9.5      2.296      3.132
REMARK  7 active torsions:
REMARK  status: ('A' for Active; 'I' for Inactive)
REMARK    1  A    between atoms: C_9  and  C_10 
REMARK       I    between atoms: C_10  and  N_11 
REMARK    2  A    between atoms: N_11  and  C_12 
REMARK    3  A    between atoms: C_12  and  C_13 
REMARK    4  A    between atoms: C_12  and  C_22 
REMARK       I    between atoms: C_13  and  N_14 
REMARK    5  A    between atoms: N_14  and  C_15 
REMARK    6  A    between atoms: C_15  and  C_16 
REMARK    7  A    between atoms: C_22  and  C_23 
ROOT
HETATM    1  C   UNL     1     -42.733  54.794 -54.833  1.00  0.00     0.180 C 
ENDROOT
BRANCH   1   2
HETATM    2  N   UNL     1     -43.216  54.813 -56.231  1.00  0.00    -0.346 N 
HETATM    3  C   UNL     1     -42.824  55.750 -57.142  1.00  0.00     0.249 C 
HETATM    4  O   UNL     1     -42.115  56.714 -56.848  1.00  0.00    -0.271 OA
HETATM    5  H   UNL     1     -43.701  53.957 -56.498  1.00  0.00     0.163 HD
BRANCH   3   6
HETATM    6  C   UNL     1     -43.410  55.647 -58.568  1.00  0.00     0.281 C 
HETATM    7  N   UNL     1     -44.820  56.216 -58.607  1.00  0.00    -0.058 N 
HETATM    8  C   UNL     1     -44.870  57.699 -58.446  1.00  0.00     0.272 C 
HETATM    9  H   UNL     1     -45.292  55.948 -59.476  1.00  0.00     0.278 HD
HETATM   10  H   UNL     1     -45.337  55.807 -57.816  1.00  0.00     0.278 HD
HETATM   11  C   UNL     1     -43.876  58.422 -59.307  1.00  0.00    -0.026 A 
HETATM   12  C   UNL     1     -42.765  57.759 -59.857  1.00  0.00    -0.048 A 
HETATM   13  C   UNL     1     -44.030  59.800 -59.523  1.00  0.00     0.009 A 
HETATM   14  C   UNL     1     -41.846  58.476 -60.636  1.00  0.00     0.008 A 
HETATM   15  C   UNL     1     -42.580  56.270 -59.693  1.00  0.00     0.082 C 
HETATM   16  C   UNL     1     -42.017  59.843 -60.851  1.00  0.00     0.001 A 
HETATM   17  C   UNL     1     -43.107  60.504 -60.295  1.00  0.00     0.001 A 
ENDBRANCH   3   6
ENDBRANCH   1   2
BRANCH   1  18
HETATM   18  C   UNL     1     -43.127  56.177 -54.269  1.00  0.00     0.241 C 
HETATM   19  N   UNL     1     -42.111  57.065 -54.058  1.00  0.00    -0.353 N 
HETATM   20  H   UNL     1     -41.200  56.915 -54.479  1.00  0.00     0.162 HD
HETATM   21  O   UNL     1     -44.306  56.414 -53.981  1.00  0.00    -0.271 OA
BRANCH  19  22
HETATM   22  C   UNL     1     -42.321  58.375 -53.478  1.00  0.00     0.187 C 
BRANCH  22  23
HETATM   23  C   UNL     1     -42.665  59.346 -54.545  1.00  0.00     0.070 A 
HETATM   24  O   UNL     1     -41.680  59.668 -55.432  1.00  0.00    -0.325 OA
HETATM   25  C   UNL     1     -42.203  60.577 -56.294  1.00  0.00     0.142 A 
HETATM   26  C   UNL     1     -43.507  60.859 -55.965  1.00  0.00     0.027 A 
HETATM   27  C   UNL     1     -43.809  60.063 -54.833  1.00  0.00     0.036 A 
ENDBRANCH  22  23
ENDBRANCH  19  22
ENDBRANCH   1  18
BRANCH   1  28
HETATM   28  C   UNL     1     -41.223  54.533 -54.793  1.00  0.00     0.075 C 
BRANCH  28  29
HETATM   29  C   UNL     1     -40.739  53.780 -53.590  1.00  0.00    -0.028 A 
HETATM   30  C   UNL     1     -40.369  52.395 -53.548  1.00  0.00    -0.002 A 
HETATM   31  C   UNL     1     -40.019  52.094 -52.232  1.00  0.00     0.042 A 
HETATM   32  C   UNL     1     -40.313  51.362 -54.507  1.00  0.00     0.014 A 
HETATM   33  C   UNL     1     -39.617  50.816 -51.825  1.00  0.00     0.030 A 
HETATM   34  N   UNL     1     -40.168  53.247 -51.499  1.00  0.00    -0.365 N 
HETATM   35  C   UNL     1     -39.575  49.811 -52.794  1.00  0.00     0.002 A 
HETATM   36  C   UNL     1     -39.918  50.076 -54.116  1.00  0.00     0.001 A 
HETATM   37  H   UNL     1     -39.995  53.317 -50.504  1.00  0.00     0.165 HD
HETATM   38  C   UNL     1     -40.613  54.264 -52.302  1.00  0.00     0.096 A 
ENDBRANCH  28  29
ENDBRANCH   1  28
TORSDOF 7
ENDMDL
MODEL 4
REMARK VINA RESULT:      -9.4      2.007      3.079
REMARK  7 active torsions:
REMARK  status: ('A' for Active; 'I' for Inactive)
REMARK    1  A    between atoms: C_9  and  C_10 
REMARK       I    between atoms: C_10  and  N_11 
REMARK    2  A    between atoms: N_11  and  C_12 
REMARK    3  A    between atoms: C_12  and  C_13 
REMARK    4  A    between atoms: C_12  and  C_22 
REMARK       I    between atoms: C_13  and  N_14 
REMARK    5  A    between atoms: N_14  and  C_15 
REMARK    6  A    between atoms: C_15  and  C_16 
REMARK    7  A    between atoms: C_22  and  C_23 
ROOT
HETATM    1  C   UNL     1     -42.851  54.765 -55.143  1.00  0.00     0.180 C 
ENDROOT
BRANCH   1   2
HETATM    2  N   UNL     1     -43.311  54.837 -56.547  1.00  0.00    -0.346 N 
HETATM    3  C   UNL     1     -42.916  55.816 -57.411  1.00  0.00     0.249 C 
HETATM    4  O   UNL     1     -42.225  56.776 -57.066  1.00  0.00    -0.271 OA
HETATM    5  H   UNL     1     -43.781  53.988 -56.857  1.00  0.00     0.163 HD
BRANCH   3   6
HETATM    6  C   UNL     1     -43.478  55.767 -58.849  1.00  0.00     0.281 C 
HETATM    7  N   UNL     1     -44.896  56.315 -58.887  1.00  0.00    -0.058 N 
HETATM    8  C   UNL     1     -44.973  57.788 -58.663  1.00  0.00     0.272 C 
HETATM    9  H   UNL     1     -45.351  56.078 -59.775  1.00  0.00     0.278 HD
HETATM   10  H   UNL     1     -45.420  55.864 -58.123  1.00  0.00     0.278 HD
HETATM   11  C   UNL     1     -43.978  58.564 -59.476  1.00  0.00    -0.026 A 
HETATM   12  C   UNL     1     -42.847  57.942 -60.035  1.00  0.00    -0.048 A 
HETATM   13  C   UNL     1     -44.150  59.948 -59.634  1.00  0.00     0.009 A 
HETATM   14  C   UNL     1     -41.928  58.708 -60.767  1.00  0.00     0.008 A 
HETATM   15  C   UNL     1     -42.641  56.451 -59.933  1.00  0.00     0.082 C 
HETATM   16  C   UNL     1     -42.117  60.079 -60.925  1.00  0.00     0.001 A 
HETATM   17  C   UNL     1     -43.227  60.699 -60.359  1.00  0.00     0.001 A 
ENDBRANCH   3   6
ENDBRANCH   1   2
BRANCH   1  18
HETATM   18  C   UNL     1     -43.329  56.090 -54.510  1.00  0.00     0.241 C 
HETATM   19  N   UNL     1     -42.361  56.984 -54.152  1.00  0.00    -0.353 N 
HETATM   20  H   UNL     1     -41.415  56.889 -54.509  1.00  0.00     0.162 HD
HETATM   21  O   UNL     1     -44.534  56.275 -54.301  1.00  0.00    -0.271 OA
BRANCH  19  22
HETATM   22  C   UNL     1     -42.655  58.240 -53.494  1.00  0.00     0.187 C 
BRANCH  22  23
HETATM   23  C   UNL     1     -41.639  58.508 -52.448  1.00  0.00     0.070 A 
HETATM   24  O   UNL     1     -42.061  58.471 -51.151  1.00  0.00    -0.325 OA
HETATM   25  C   UNL     1     -40.986  58.764 -50.375  1.00  0.00     0.142 A 
HETATM   26  C   UNL     1     -39.881  59.006 -51.155  1.00  0.00     0.027 A 
HETATM   27  C   UNL     1     -40.301  58.841 -52.497  1.00  0.00     0.036 A 
ENDBRANCH  22  23
ENDBRANCH  19  22
ENDBRANCH   1  18
BRANCH   1  28
HETATM   28  C   UNL     1     -41.330  54.585 -55.089  1.00  0.00     0.075 C 
BRANCH  28  29
HETATM   29  C   UNL     1     -40.841  53.601 -54.069  1.00  0.00    -0.028 A 
HETATM   30  C   UNL     1     -40.733  53.825 -52.656  1.00  0.00    -0.002 A 
HETATM   31  C   UNL     1     -40.200  52.667 -52.089  1.00  0.00     0.042 A 
HETATM   32  C   UNL     1     -41.026  54.911 -51.807  1.00  0.00     0.014 A 
HETATM   33  C   UNL     1     -39.944  52.542 -50.717  1.00  0.00     0.030 A 
HETATM   34  N   UNL     1     -39.991  51.772 -53.110  1.00  0.00    -0.365 N 
HETATM   35  C   UNL     1     -40.239  53.635 -49.900  1.00  0.00     0.002 A 
HETATM   36  C   UNL     1     -40.771  54.805 -50.434  1.00  0.00     0.001 A 
HETATM   37  H   UNL     1     -39.597  50.849 -52.987  1.00  0.00     0.165 HD
HETATM   38  C   UNL     1     -40.361  52.327 -54.308  1.00  0.00     0.096 A 
ENDBRANCH  28  29
ENDBRANCH   1  28
TORSDOF 7
ENDMDL
MODEL 5
REMARK VINA RESULT:      -9.4      2.168      3.322
REMARK  7 active torsions:
REMARK  status: ('A' for Active; 'I' for Inactive)
REMARK    1  A    between atoms: C_9  and  C_10 
REMARK       I    between atoms: C_10  and  N_11 
REMARK    2  A    between atoms: N_11  and  C_12 
REMARK    3  A    between atoms: C_12  and  C_13 
REMARK    4  A    between atoms: C_12  and  C_22 
REMARK       I    between atoms: C_13  and  N_14 
REMARK    5  A    between atoms: N_14  and  C_15 
REMARK    6  A    between atoms: C_15  and  C_16 
REMARK    7  A    between atoms: C_22  and  C_23 
ROOT
HETATM    1  C   UNL     1     -42.300  54.980 -53.422  1.00  0.00     0.180 C 
ENDROOT
BRANCH   1   2
HETATM    2  N   UNL     1     -42.445  55.921 -54.554  1.00  0.00    -0.346 N 
HETATM    3  C   UNL     1     -42.984  55.564 -55.755  1.00  0.00     0.249 C 
HETATM    4  O   UNL     1     -43.303  54.406 -56.029  1.00  0.00    -0.271 OA
HETATM    5  H   UNL     1     -42.292  56.893 -54.287  1.00  0.00     0.163 HD
BRANCH   3   6
HETATM    6  C   UNL     1     -43.072  56.653 -56.848  1.00  0.00     0.281 C 
HETATM    7  N   UNL     1     -44.523  57.014 -57.126  1.00  0.00    -0.058 N 
HETATM    8  C   UNL     1     -45.177  57.758 -56.011  1.00  0.00     0.272 C 
HETATM    9  H   UNL     1     -44.600  57.555 -57.993  1.00  0.00     0.278 HD
HETATM   10  H   UNL     1     -45.041  56.131 -57.247  1.00  0.00     0.278 HD
HETATM   11  C   UNL     1     -44.341  58.884 -55.479  1.00  0.00    -0.026 A 
HETATM   12  C   UNL     1     -42.956  58.942 -55.716  1.00  0.00    -0.048 A 
HETATM   13  C   UNL     1     -44.944  59.871 -54.683  1.00  0.00     0.009 A 
HETATM   14  C   UNL     1     -42.206  59.999 -55.180  1.00  0.00     0.008 A 
HETATM   15  C   UNL     1     -42.270  57.933 -56.603  1.00  0.00     0.082 C 
HETATM   16  C   UNL     1     -42.819  60.977 -54.400  1.00  0.00     0.001 A 
HETATM   17  C   UNL     1     -44.186  60.913 -54.151  1.00  0.00     0.001 A 
ENDBRANCH   3   6
ENDBRANCH   1   2
BRANCH   1  18
HETATM   18  C   UNL     1     -43.264  55.522 -52.343  1.00  0.00     0.241 C 
HETATM   19  N   UNL     1     -43.871  56.716 -52.607  1.00  0.00    -0.353 N 
HETATM   20  H   UNL     1     -43.882  57.091 -53.551  1.00  0.00     0.162 HD
HETATM   21  O   UNL     1     -43.412  54.906 -51.281  1.00  0.00    -0.271 OA
BRANCH  19  22
HETATM   22  C   UNL     1     -44.751  57.376 -51.665  1.00  0.00     0.187 C 
BRANCH  22  23
HETATM   23  C   UNL     1     -44.131  58.640 -51.200  1.00  0.00     0.070 A 
HETATM   24  O   UNL     1     -44.965  59.581 -50.669  1.00  0.00    -0.325 OA
HETATM   25  C   UNL     1     -44.197  60.650 -50.336  1.00  0.00     0.142 A 
HETATM   26  C   UNL     1     -42.882  60.418 -50.661  1.00  0.00     0.027 A 
HETATM   27  C   UNL     1     -42.836  59.118 -51.220  1.00  0.00     0.036 A 
ENDBRANCH  22  23
ENDBRANCH  19  22
ENDBRANCH   1  18
BRANCH   1  28
HETATM   28  C   UNL     1     -40.841  54.926 -52.955  1.00  0.00     0.075 C 
BRANCH  28  29
HETATM   29  C   UNL     1     -40.448  53.667 -52.242  1.00  0.00    -0.028 A 
HETATM   30  C   UNL     1     -40.201  52.390 -52.847  1.00  0.00    -0.002 A 
HETATM   31  C   UNL     1     -39.903  51.492 -51.823  1.00  0.00     0.042 A 
HETATM   32  C   UNL     1     -40.218  51.910 -54.173  1.00  0.00     0.014 A 
HETATM   33  C   UNL     1     -39.622  50.139 -52.056  1.00  0.00     0.030 A 
HETATM   34  N   UNL     1     -39.963  52.189 -50.640  1.00  0.00    -0.365 N 
HETATM   35  C   UNL     1     -39.652  49.689 -53.377  1.00  0.00     0.002 A 
HETATM   36  C   UNL     1     -39.946  50.559 -54.423  1.00  0.00     0.001 A 
HETATM   37  H   UNL     1     -39.804  51.781 -49.729  1.00  0.00     0.165 HD
HETATM   38  C   UNL     1     -40.303  53.495 -50.879  1.00  0.00     0.096 A 
ENDBRANCH  28  29
ENDBRANCH   1  28
TORSDOF 7
ENDMDL
MODEL 6
REMARK VINA RESULT:      -9.3      1.989      7.343
REMARK  7 active torsions:
REMARK  status: ('A' for Active; 'I' for Inactive)
REMARK    1  A    between atoms: C_9  and  C_10 
REMARK       I    between atoms: C_10  and  N_11 
REMARK    2  A    between atoms: N_11  and  C_12 
REMARK    3  A    between atoms: C_12  and  C_13 
REMARK    4  A    between atoms: C_12  and  C_22 
REMARK       I    between atoms: C_13  and  N_14 
REMARK    5  A    between atoms: N_14  and  C_15 
REMARK    6  A    between atoms: C_15  and  C_16 
REMARK    7  A    between atoms: C_22  and  C_23 
ROOT
HETATM    1  C   UNL     1     -44.576  56.907 -54.324  1.00  0.00     0.180 C 
ENDROOT
BRANCH   1   2
HETATM    2  N   UNL     1     -43.144  56.645 -54.587  1.00  0.00    -0.346 N 
HETATM    3  C   UNL     1     -42.663  55.417 -54.936  1.00  0.00     0.249 C 
HETATM    4  O   UNL     1     -43.365  54.405 -54.964  1.00  0.00    -0.271 OA
HETATM    5  H   UNL     1     -42.592  57.497 -54.679  1.00  0.00     0.163 HD
BRANCH   3   6
HETATM    6  C   UNL     1     -41.142  55.289 -55.180  1.00  0.00     0.281 C 
HETATM    7  N   UNL     1     -40.364  55.847 -53.999  1.00  0.00    -0.058 N 
HETATM    8  C   UNL     1     -40.468  55.011 -52.767  1.00  0.00     0.272 C 
HETATM    9  H   UNL     1     -39.378  55.975 -54.245  1.00  0.00     0.278 HD
HETATM   10  H   UNL     1     -40.766  56.769 -53.775  1.00  0.00     0.278 HD
HETATM   11  C   UNL     1     -40.256  53.548 -53.025  1.00  0.00    -0.026 A 
HETATM   12  C   UNL     1     -40.378  53.008 -54.317  1.00  0.00    -0.048 A 
HETATM   13  C   UNL     1     -39.986  52.693 -51.945  1.00  0.00     0.009 A 
HETATM   14  C   UNL     1     -40.196  51.631 -54.511  1.00  0.00     0.008 A 
HETATM   15  C   UNL     1     -40.620  53.890 -55.517  1.00  0.00     0.082 C 
HETATM   16  C   UNL     1     -39.918  50.795 -53.432  1.00  0.00     0.001 A 
HETATM   17  C   UNL     1     -39.813  51.325 -52.150  1.00  0.00     0.001 A 
ENDBRANCH   3   6
ENDBRANCH   1   2
BRANCH   1  18
HETATM   18  C   UNL     1     -45.030  57.790 -55.507  1.00  0.00     0.241 C 
HETATM   19  N   UNL     1     -44.684  57.366 -56.759  1.00  0.00    -0.353 N 
HETATM   20  H   UNL     1     -44.372  56.412 -56.911  1.00  0.00     0.162 HD
HETATM   21  O   UNL     1     -45.627  58.851 -55.292  1.00  0.00    -0.271 OA
BRANCH  19  22
HETATM   22  C   UNL     1     -44.988  58.121 -57.957  1.00  0.00     0.187 C 
BRANCH  22  23
HETATM   23  C   UNL     1     -45.636  57.236 -58.955  1.00  0.00     0.070 A 
HETATM   24  O   UNL     1     -44.877  56.229 -59.477  1.00  0.00    -0.325 OA
HETATM   25  C   UNL     1     -45.655  55.570 -60.373  1.00  0.00     0.142 A 
HETATM   26  C   UNL     1     -46.899  56.148 -60.450  1.00  0.00     0.027 A 
HETATM   27  C   UNL     1     -46.890  57.227 -59.532  1.00  0.00     0.036 A 
ENDBRANCH  22  23
ENDBRANCH  19  22
ENDBRANCH   1  18
BRANCH   1  28
HETATM   28  C   UNL     1     -44.753  57.586 -52.962  1.00  0.00     0.075 C 
BRANCH  28  29
HETATM   29  C   UNL     1     -43.559  57.518 -52.057  1.00  0.00    -0.028 A 
HETATM   30  C   UNL     1     -43.161  56.395 -51.259  1.00  0.00    -0.002 A 
HETATM   31  C   UNL     1     -42.024  56.772 -50.544  1.00  0.00     0.042 A 
HETATM   32  C   UNL     1     -43.670  55.094 -51.067  1.00  0.00     0.014 A 
HETATM   33  C   UNL     1     -41.372  55.916 -49.647  1.00  0.00     0.030 A 
HETATM   34  N   UNL     1     -41.738  58.070 -50.890  1.00  0.00    -0.365 N 
HETATM   35  C   UNL     1     -41.902  54.635 -49.471  1.00  0.00     0.002 A 
HETATM   36  C   UNL     1     -43.035  54.227 -50.169  1.00  0.00     0.001 A 
HETATM   37  H   UNL     1     -40.968  58.605 -50.509  1.00  0.00     0.165 HD
HETATM   38  C   UNL     1     -42.662  58.534 -51.790  1.00  0.00     0.096 A 
ENDBRANCH  28  29
ENDBRANCH   1  28
TORSDOF 7
ENDMDL
MODEL 7
REMARK VINA RESULT:      -9.1      2.560      6.653
REMARK  7 active torsions:
REMARK  status: ('A' for Active; 'I' for Inactive)
REMARK    1  A    between atoms: C_9  and  C_10 
REMARK       I    between atoms: C_10  and  N_11 
REMARK    2  A    between atoms: N_11  and  C_12 
REMARK    3  A    between atoms: C_12  and  C_13 
REMARK    4  A    between atoms: C_12  and  C_22 
REMARK       I    between atoms: C_13  and  N_14 
REMARK    5  A    between atoms: N_14  and  C_15 
REMARK    6  A    between atoms: C_15  and  C_16 
REMARK    7  A    between atoms: C_22  and  C_23 
ROOT
HETATM    1  C   UNL     1     -41.545  55.750 -51.612  1.00  0.00     0.180 C 
ENDROOT
BRANCH   1   2
HETATM    2  N   UNL     1     -42.406  55.331 -52.740  1.00  0.00    -0.346 N 
HETATM    3  C   UNL     1     -41.961  55.253 -54.028  1.00  0.00     0.249 C 
HETATM    4  O   UNL     1     -40.837  55.622 -54.372  1.00  0.00    -0.271 OA
HETATM    5  H   UNL     1     -43.287  54.918 -52.438  1.00  0.00     0.163 HD
BRANCH   3   6
HETATM    6  C   UNL     1     -42.972  54.800 -55.104  1.00  0.00     0.281 C 
HETATM    7  N   UNL     1     -44.384  55.210 -54.717  1.00  0.00    -0.058 N 
HETATM    8  C   UNL     1     -44.620  56.681 -54.787  1.00  0.00     0.272 C 
HETATM    9  H   UNL     1     -45.073  54.723 -55.298  1.00  0.00     0.278 HD
HETATM   10  H   UNL     1     -44.527  54.926 -53.736  1.00  0.00     0.278 HD
HETATM   11  C   UNL     1     -44.112  57.302 -56.055  1.00  0.00    -0.026 A 
HETATM   12  C   UNL     1     -43.161  56.650 -56.859  1.00  0.00    -0.048 A 
HETATM   13  C   UNL     1     -44.554  58.584 -56.417  1.00  0.00     0.009 A 
HETATM   14  C   UNL     1     -42.694  57.275 -58.024  1.00  0.00     0.008 A 
HETATM   15  C   UNL     1     -42.689  55.253 -56.539  1.00  0.00     0.082 C 
HETATM   16  C   UNL     1     -43.149  58.544 -58.377  1.00  0.00     0.001 A 
HETATM   17  C   UNL     1     -44.078  59.198 -57.575  1.00  0.00     0.001 A 
ENDBRANCH   3   6
ENDBRANCH   1   2
BRANCH   1  18
HETATM   18  C   UNL     1     -41.035  54.425 -51.002  1.00  0.00     0.241 C 
HETATM   19  N   UNL     1     -40.174  53.690 -51.766  1.00  0.00    -0.353 N 
HETATM   20  H   UNL     1     -39.708  54.108 -52.565  1.00  0.00     0.162 HD
HETATM   21  O   UNL     1     -41.450  54.053 -49.899  1.00  0.00    -0.271 OA
BRANCH  19  22
HETATM   22  C   UNL     1     -39.661  52.400 -51.351  1.00  0.00     0.187 C 
BRANCH  22  23
HETATM   23  C   UNL     1     -39.738  51.444 -52.482  1.00  0.00     0.070 A 
HETATM   24  O   UNL     1     -39.514  50.128 -52.197  1.00  0.00    -0.325 OA
HETATM   25  C   UNL     1     -39.611  49.446 -53.367  1.00  0.00     0.142 A 
HETATM   26  C   UNL     1     -39.877  50.306 -54.405  1.00  0.00     0.027 A 
HETATM   27  C   UNL     1     -39.960  51.600 -53.835  1.00  0.00     0.036 A 
ENDBRANCH  22  23
ENDBRANCH  19  22
ENDBRANCH   1  18
BRANCH   1  28
HETATM   28  C   UNL     1     -42.343  56.603 -50.620  1.00  0.00     0.075 C 
BRANCH  28  29
HETATM   29  C   UNL     1     -43.311  57.564 -51.242  1.00  0.00    -0.028 A 
HETATM   30  C   UNL     1     -42.994  58.598 -52.183  1.00  0.00    -0.002 A 
HETATM   31  C   UNL     1     -44.177  59.280 -52.471  1.00  0.00     0.042 A 
HETATM   32  C   UNL     1     -41.805  59.030 -52.808  1.00  0.00     0.014 A 
HETATM   33  C   UNL     1     -44.232  60.369 -53.350  1.00  0.00     0.030 A 
HETATM   34  N   UNL     1     -45.176  58.686 -51.739  1.00  0.00    -0.365 N 
HETATM   35  C   UNL     1     -43.039  60.779 -53.950  1.00  0.00     0.002 A 
HETATM   36  C   UNL     1     -41.841  60.121 -53.685  1.00  0.00     0.001 A 
HETATM   37  H   UNL     1     -46.142  58.988 -51.743  1.00  0.00     0.165 HD
HETATM   38  C   UNL     1     -44.665  57.662 -50.985  1.00  0.00     0.096 A 
ENDBRANCH  28  29
ENDBRANCH   1  28
TORSDOF 7
ENDMDL
MODEL 8
REMARK VINA RESULT:      -9.0      2.541      8.189
REMARK  7 active torsions:
REMARK  status: ('A' for Active; 'I' for Inactive)
REMARK    1  A    between atoms: C_9  and  C_10 
REMARK       I    between atoms: C_10  and  N_11 
REMARK    2  A    between atoms: N_11  and  C_12 
REMARK    3  A    between atoms: C_12  and  C_13 
REMARK    4  A    between atoms: C_12  and  C_22 
REMARK       I    between atoms: C_13  and  N_14 
REMARK    5  A    between atoms: N_14  and  C_15 
REMARK    6  A    between atoms: C_15  and  C_16 
REMARK    7  A    between atoms: C_22  and  C_23 
ROOT
HETATM    1  C   UNL     1     -42.557  57.007 -56.351  1.00  0.00     0.180 C 
ENDROOT
BRANCH   1   2
HETATM    2  N   UNL     1     -42.917  55.815 -55.553  1.00  0.00    -0.346 N 
HETATM    3  C   UNL     1     -42.073  55.242 -54.646  1.00  0.00     0.249 C 
HETATM    4  O   UNL     1     -40.907  55.609 -54.492  1.00  0.00    -0.271 OA
HETATM    5  H   UNL     1     -43.910  55.590 -55.596  1.00  0.00     0.163 HD
BRANCH   3   6
HETATM    6  C   UNL     1     -42.582  53.999 -53.884  1.00  0.00     0.281 C 
HETATM    7  N   UNL     1     -41.532  52.900 -53.893  1.00  0.00    -0.058 N 
HETATM    8  C   UNL     1     -40.338  53.208 -53.054  1.00  0.00     0.272 C 
HETATM    9  H   UNL     1     -41.941  52.008 -53.596  1.00  0.00     0.278 HD
HETATM   10  H   UNL     1     -41.203  52.798 -54.864  1.00  0.00     0.278 HD
HETATM   11  C   UNL     1     -40.689  53.728 -51.691  1.00  0.00    -0.026 A 
HETATM   12  C   UNL     1     -41.962  54.258 -51.417  1.00  0.00    -0.048 A 
HETATM   13  C   UNL     1     -39.710  53.738 -50.686  1.00  0.00     0.009 A 
HETATM   14  C   UNL     1     -42.243  54.757 -50.137  1.00  0.00     0.008 A 
HETATM   15  C   UNL     1     -43.063  54.229 -52.448  1.00  0.00     0.082 C 
HETATM   16  C   UNL     1     -41.264  54.751 -49.145  1.00  0.00     0.001 A 
HETATM   17  C   UNL     1     -39.999  54.242 -49.419  1.00  0.00     0.001 A 
ENDBRANCH   3   6
ENDBRANCH   1   2
BRANCH   1  18
HETATM   18  C   UNL     1     -42.756  58.195 -55.383  1.00  0.00     0.241 C 
HETATM   19  N   UNL     1     -41.645  58.651 -54.734  1.00  0.00    -0.353 N 
HETATM   20  H   UNL     1     -40.717  58.393 -55.057  1.00  0.00     0.162 HD
HETATM   21  O   UNL     1     -43.890  58.649 -55.188  1.00  0.00    -0.271 OA
BRANCH  19  22
HETATM   22  C   UNL     1     -41.689  59.716 -53.754  1.00  0.00     0.187 C 
BRANCH  22  23
HETATM   23  C   UNL     1     -41.245  59.202 -52.435  1.00  0.00     0.070 A 
HETATM   24  O   UNL     1     -40.005  59.580 -52.008  1.00  0.00    -0.325 OA
HETATM   25  C   UNL     1     -39.801  58.983 -50.806  1.00  0.00     0.142 A 
HETATM   26  C   UNL     1     -40.885  58.213 -50.460  1.00  0.00     0.027 A 
HETATM   27  C   UNL     1     -41.822  58.353 -51.513  1.00  0.00     0.036 A 
ENDBRANCH  22  23
ENDBRANCH  19  22
ENDBRANCH   1  18
BRANCH   1  28
HETATM   28  C   UNL     1     -43.435  57.096 -57.604  1.00  0.00     0.075 C 
BRANCH  28  29
HETATM   29  C   UNL     1     -42.772  57.705 -58.803  1.00  0.00    -0.028 A 
HETATM   30  C   UNL     1     -42.718  59.101 -59.126  1.00  0.00    -0.002 A 
HETATM   31  C   UNL     1     -42.045  59.224 -60.342  1.00  0.00     0.042 A 
HETATM   32  C   UNL     1     -43.194  60.274 -58.504  1.00  0.00     0.014 A 
HETATM   33  C   UNL     1     -41.823  60.458 -60.966  1.00  0.00     0.030 A 
HETATM   34  N   UNL     1     -41.699  57.957 -60.745  1.00  0.00    -0.365 N 
HETATM   35  C   UNL     1     -42.309  61.603 -60.331  1.00  0.00     0.002 A 
HETATM   36  C   UNL     1     -42.986  61.516 -59.118  1.00  0.00     0.001 A 
HETATM   37  H   UNL     1     -41.211  57.746 -61.605  1.00  0.00     0.165 HD
HETATM   38  C   UNL     1     -42.143  57.033 -59.834  1.00  0.00     0.096 A 
ENDBRANCH  28  29
ENDBRANCH   1  28
TORSDOF 7
ENDMDL
MODEL 9
REMARK VINA RESULT:      -8.9      2.601      5.707
REMARK  7 active torsions:
REMARK  status: ('A' for Active; 'I' for Inactive)
REMARK    1  A    between atoms: C_9  and  C_10 
REMARK       I    between atoms: C_10  and  N_11 
REMARK    2  A    between atoms: N_11  and  C_12 
REMARK    3  A    between atoms: C_12  and  C_13 
REMARK    4  A    between atoms: C_12  and  C_22 
REMARK       I    between atoms: C_13  and  N_14 
REMARK    5  A    between atoms: N_14  and  C_15 
REMARK    6  A    between atoms: C_15  and  C_16 
REMARK    7  A    between atoms: C_22  and  C_23 
ROOT
HETATM    1  C   UNL     1     -42.525  56.794 -55.805  1.00  0.00     0.180 C 
ENDROOT
BRANCH   1   2
HETATM    2  N   UNL     1     -43.037  58.126 -56.194  1.00  0.00    -0.346 N 
HETATM    3  C   UNL     1     -42.428  59.293 -55.836  1.00  0.00     0.249 C 
HETATM    4  O   UNL     1     -41.459  59.337 -55.076  1.00  0.00    -0.271 OA
HETATM    5  H   UNL     1     -43.760  58.082 -56.912  1.00  0.00     0.163 HD
BRANCH   3   6
HETATM    6  C   UNL     1     -43.076  60.612 -56.314  1.00  0.00     0.281 C 
HETATM    7  N   UNL     1     -42.007  61.612 -56.726  1.00  0.00    -0.058 N 
HETATM    8  C   UNL     1     -41.294  61.240 -57.982  1.00  0.00     0.272 C 
HETATM    9  H   UNL     1     -42.410  62.549 -56.823  1.00  0.00     0.278 HD
HETATM   10  H   UNL     1     -41.304  61.637 -55.973  1.00  0.00     0.278 HD
HETATM   11  C   UNL     1     -42.218  60.819 -59.086  1.00  0.00    -0.026 A 
HETATM   12  C   UNL     1     -43.539  60.418 -58.821  1.00  0.00    -0.048 A 
HETATM   13  C   UNL     1     -41.737  60.772 -60.404  1.00  0.00     0.009 A 
HETATM   14  C   UNL     1     -44.364  60.008 -59.879  1.00  0.00     0.008 A 
HETATM   15  C   UNL     1     -44.118  60.495 -57.430  1.00  0.00     0.082 C 
HETATM   16  C   UNL     1     -43.876  59.976 -61.184  1.00  0.00     0.001 A 
HETATM   17  C   UNL     1     -42.564  60.357 -61.447  1.00  0.00     0.001 A 
ENDBRANCH   3   6
ENDBRANCH   1   2
BRANCH   1  18
HETATM   18  C   UNL     1     -42.751  55.913 -57.053  1.00  0.00     0.241 C 
HETATM   19  N   UNL     1     -42.610  56.522 -58.268  1.00  0.00    -0.353 N 
HETATM   20  H   UNL     1     -42.145  57.421 -58.342  1.00  0.00     0.162 HD
HETATM   21  O   UNL     1     -43.095  54.733 -56.922  1.00  0.00    -0.271 OA
BRANCH  19  22
HETATM   22  C   UNL     1     -42.850  55.839 -59.522  1.00  0.00     0.187 C 
BRANCH  22  23
HETATM   23  C   UNL     1     -44.270  55.999 -59.917  1.00  0.00     0.070 A 
HETATM   24  O   UNL     1     -45.051  56.784 -59.118  1.00  0.00    -0.325 OA
HETATM   25  C   UNL     1     -46.301  56.770 -59.648  1.00  0.00     0.142 A 
HETATM   26  C   UNL     1     -46.341  55.974 -60.767  1.00  0.00     0.027 A 
HETATM   27  C   UNL     1     -45.028  55.474 -60.944  1.00  0.00     0.036 A 
ENDBRANCH  22  23
ENDBRANCH  19  22
ENDBRANCH   1  18
BRANCH   1  28
HETATM   28  C   UNL     1     -43.262  56.281 -54.563  1.00  0.00     0.075 C 
BRANCH  28  29
HETATM   29  C   UNL     1     -42.378  55.795 -53.454  1.00  0.00    -0.028 A 
HETATM   30  C   UNL     1     -41.654  54.557 -53.426  1.00  0.00    -0.002 A 
HETATM   31  C   UNL     1     -40.994  54.485 -52.199  1.00  0.00     0.042 A 
HETATM   32  C   UNL     1     -41.510  53.480 -54.325  1.00  0.00     0.014 A 
HETATM   33  C   UNL     1     -40.199  53.394 -51.826  1.00  0.00     0.030 A 
HETATM   34  N   UNL     1     -41.300  55.632 -51.506  1.00  0.00    -0.365 N 
HETATM   35  C   UNL     1     -40.078  52.340 -52.733  1.00  0.00     0.002 A 
HETATM   36  C   UNL     1     -40.724  52.379 -53.966  1.00  0.00     0.001 A 
HETATM   37  H   UNL     1     -40.967  55.841 -50.574  1.00  0.00     0.165 HD
HETATM   38  C   UNL     1     -42.142  56.421 -52.245  1.00  0.00     0.096 A 
ENDBRANCH  28  29
ENDBRANCH   1  28
TORSDOF 7
ENDMDL
MODEL 10
REMARK VINA RESULT:      -8.9      2.351      6.633
REMARK  7 active torsions:
REMARK  status: ('A' for Active; 'I' for Inactive)
REMARK    1  A    between atoms: C_9  and  C_10 
REMARK       I    between atoms: C_10  and  N_11 
REMARK    2  A    between atoms: N_11  and  C_12 
REMARK    3  A    between atoms: C_12  and  C_13 
REMARK    4  A    between atoms: C_12  and  C_22 
REMARK       I    between atoms: C_13  and  N_14 
REMARK    5  A    between atoms: N_14  and  C_15 
REMARK    6  A    between atoms: C_15  and  C_16 
REMARK    7  A    between atoms: C_22  and  C_23 
ROOT
HETATM    1  C   UNL     1     -42.436  55.975 -54.805  1.00  0.00     0.180 C 
ENDROOT
BRANCH   1   2
HETATM    2  N   UNL     1     -43.067  56.613 -53.629  1.00  0.00    -0.346 N 
HETATM    3  C   UNL     1     -42.352  57.177 -52.614  1.00  0.00     0.249 C 
HETATM    4  O   UNL     1     -41.123  57.113 -52.544  1.00  0.00    -0.271 OA
HETATM    5  H   UNL     1     -44.068  56.767 -53.748  1.00  0.00     0.163 HD
BRANCH   3   6
HETATM    6  C   UNL     1     -43.145  57.808 -51.448  1.00  0.00     0.281 C 
HETATM    7  N   UNL     1     -42.335  58.913 -50.788  1.00  0.00    -0.058 N 
HETATM    8  C   UNL     1     -42.177  60.128 -51.639  1.00  0.00     0.272 C 
HETATM    9  H   UNL     1     -42.749  59.175 -49.888  1.00  0.00     0.278 HD
HETATM   10  H   UNL     1     -41.390  58.538 -50.614  1.00  0.00     0.278 HD
HETATM   11  C   UNL     1     -43.461  60.581 -52.268  1.00  0.00    -0.026 A 
HETATM   12  C   UNL     1     -44.565  59.718 -52.381  1.00  0.00    -0.048 A 
HETATM   13  C   UNL     1     -43.543  61.876 -52.805  1.00  0.00     0.009 A 
HETATM   14  C   UNL     1     -45.739  60.173 -52.997  1.00  0.00     0.008 A 
HETATM   15  C   UNL     1     -44.543  58.335 -51.780  1.00  0.00     0.082 C 
HETATM   16  C   UNL     1     -45.811  61.465 -53.516  1.00  0.00     0.001 A 
HETATM   17  C   UNL     1     -44.714  62.315 -53.421  1.00  0.00     0.001 A 
ENDBRANCH   3   6
ENDBRANCH   1   2
BRANCH   1  18
HETATM   18  C   UNL     1     -43.063  56.696 -56.019  1.00  0.00     0.241 C 
HETATM   19  N   UNL     1     -42.470  56.484 -57.232  1.00  0.00    -0.353 N 
HETATM   20  H   UNL     1     -41.825  55.712 -57.361  1.00  0.00     0.162 HD
HETATM   21  O   UNL     1     -44.018  57.464 -55.856  1.00  0.00    -0.271 OA
BRANCH  19  22
HETATM   22  C   UNL     1     -42.909  57.140 -58.446  1.00  0.00     0.187 C 
BRANCH  22  23
HETATM   23  C   UNL     1     -43.878  56.274 -59.160  1.00  0.00     0.070 A 
HETATM   24  O   UNL     1     -45.065  56.841 -59.524  1.00  0.00    -0.325 OA
HETATM   25  C   UNL     1     -45.797  55.874 -60.135  1.00  0.00     0.142 A 
HETATM   26  C   UNL     1     -45.104  54.687 -60.156  1.00  0.00     0.027 A 
HETATM   27  C   UNL     1     -43.862  54.943 -59.526  1.00  0.00     0.036 A 
ENDBRANCH  22  23
ENDBRANCH  19  22
ENDBRANCH   1  18
BRANCH   1  28
HETATM   28  C   UNL     1     -42.699  54.465 -54.799  1.00  0.00     0.075 C 
BRANCH  28  29
HETATM   29  C   UNL     1     -41.603  53.631 -54.208  1.00  0.00    -0.028 A 
HETATM   30  C   UNL     1     -41.356  53.420 -52.811  1.00  0.00    -0.002 A 
HETATM   31  C   UNL     1     -40.220  52.616 -52.703  1.00  0.00     0.042 A 
HETATM   32  C   UNL     1     -41.985  53.850 -51.624  1.00  0.00     0.014 A 
HETATM   33  C   UNL     1     -39.683  52.222 -51.472  1.00  0.00     0.030 A 
HETATM   34  N   UNL     1     -39.791  52.346 -53.980  1.00  0.00    -0.365 N 
HETATM   35  C   UNL     1     -40.322  52.667 -50.312  1.00  0.00     0.002 A 
HETATM   36  C   UNL     1     -41.457  53.470 -50.384  1.00  0.00     0.001 A 
HETATM   37  H   UNL     1     -38.974  51.792 -54.202  1.00  0.00     0.165 HD
HETATM   38  C   UNL     1     -40.607  52.962 -54.893  1.00  0.00     0.096 A 
ENDBRANCH  28  29
ENDBRANCH   1  28
TORSDOF 7
ENDMDL
