MODEL 1
REMARK VINA RESULT:      -8.2      0.000      0.000
REMARK  5 active torsions:
REMARK  status: ('A' for Active; 'I' for Inactive)
REMARK    1  A    between atoms: C_2  and  N_3 
REMARK       I    between atoms: N_3  and  C_4 
REMARK    2  A    between atoms: C_4  and  C_5 
REMARK    3  A    between atoms: N_8  and  C_10 
REMARK    4  A    between atoms: C_10  and  C_11 
REMARK    5  A    between atoms: C_12  and  C_13 
ROOT
HETATM    1  C   UNL     1     -41.753  59.824 -51.689  1.00  0.00     0.081 C 
HETATM    2  C   UNL     1     -40.801  59.059 -50.770  1.00  0.00     0.042 C 
HETATM    3  C   UNL     1     -40.991  57.549 -50.881  1.00  0.00     0.236 C 
HETATM    4  N   UNL     1     -42.421  57.184 -50.560  1.00  0.00    -0.067 N 
HETATM    5  H   UNL     1     -42.593  57.474 -49.592  1.00  0.00     0.280 HD
HETATM    6  C   UNL     1     -43.418  57.890 -51.451  1.00  0.00     0.236 C 
HETATM    7  C   UNL     1     -43.200  59.398 -51.424  1.00  0.00     0.042 C 
ENDROOT
BRANCH   4   8
HETATM    8  C   UNL     1     -42.664  55.679 -50.614  1.00  0.00     0.277 C 
BRANCH   8   9
HETATM    9  C   UNL     1     -41.556  54.859 -50.060  1.00  0.00     0.016 A 
HETATM   10  C   UNL     1     -40.650  53.976 -50.738  1.00  0.00     0.096 A 
HETATM   11  N   UNL     1     -39.773  53.454 -49.870  1.00  0.00    -0.174 NA
HETATM   12  N   UNL     1     -40.052  54.014 -48.693  1.00  0.00    -0.288 N 
HETATM   13  H   UNL     1     -39.466  53.777 -47.895  1.00  0.00     0.188 HD
HETATM   14  C   UNL     1     -41.116  54.861 -48.747  1.00  0.00     0.120 A 
BRANCH  10  15
HETATM   15  C   UNL     1     -40.548  53.627 -52.160  1.00  0.00    -0.003 A 
HETATM   16  C   UNL     1     -40.231  52.333 -52.587  1.00  0.00     0.037 A 
HETATM   17  C   UNL     1     -40.156  52.039 -53.951  1.00  0.00     0.035 A 
HETATM   18 CL   UNL     1     -39.791  50.430 -54.439  1.00  0.00    -0.084 Cl
HETATM   19  C   UNL     1     -40.374  53.026 -54.907  1.00  0.00     0.024 A 
HETATM   20  C   UNL     1     -40.667  54.323 -54.496  1.00  0.00     0.003 A 
HETATM   21  C   UNL     1     -40.754  54.620 -53.133  1.00  0.00     0.014 A 
ENDBRANCH  10  15
ENDBRANCH   8   9
ENDBRANCH   4   8
BRANCH   1  22
HETATM   22  C   UNL     1     -41.344  59.580 -53.136  1.00  0.00     0.222 C 
HETATM   23  N   UNL     1     -42.312  59.889 -54.059  1.00  0.00    -0.357 N 
HETATM   24  H   UNL     1     -43.220  60.219 -53.754  1.00  0.00     0.162 HD
HETATM   25  O   UNL     1     -40.202  59.244 -53.428  1.00  0.00    -0.273 OA
BRANCH  23  26
HETATM   26  C   UNL     1     -42.047  59.880 -55.494  1.00  0.00     0.076 C 
HETATM   27  C   UNL     1     -42.784  61.035 -56.168  1.00  0.00     0.032 C 
HETATM   28  C   UNL     1     -42.459  58.544 -56.100  1.00  0.00     0.032 C 
ENDBRANCH  23  26
ENDBRANCH   1  22
TORSDOF 5
ENDMDL
MODEL 2
REMARK VINA RESULT:      -8.2      3.228      4.723
REMARK  5 active torsions:
REMARK  status: ('A' for Active; 'I' for Inactive)
REMARK    1  A    between atoms: C_2  and  N_3 
REMARK       I    between atoms: N_3  and  C_4 
REMARK    2  A    between atoms: C_4  and  C_5 
REMARK    3  A    between atoms: N_8  and  C_10 
REMARK    4  A    between atoms: C_10  and  C_11 
REMARK    5  A    between atoms: C_12  and  C_13 
ROOT
HETATM    1  C   UNL     1     -43.108  56.363 -54.582  1.00  0.00     0.081 C 
HETATM    2  C   UNL     1     -41.803  56.519 -53.801  1.00  0.00     0.042 C 
HETATM    3  C   UNL     1     -40.730  55.548 -54.284  1.00  0.00     0.236 C 
HETATM    4  N   UNL     1     -41.230  54.128 -54.171  1.00  0.00    -0.067 N 
HETATM    5  H   UNL     1     -41.417  53.955 -53.178  1.00  0.00     0.280 HD
HETATM    6  C   UNL     1     -42.511  53.896 -54.941  1.00  0.00     0.236 C 
HETATM    7  C   UNL     1     -43.579  54.906 -54.538  1.00  0.00     0.042 C 
ENDROOT
BRANCH   4   8
HETATM    8  C   UNL     1     -40.183  53.106 -54.602  1.00  0.00     0.277 C 
BRANCH   8   9
HETATM    9  C   UNL     1     -39.927  52.033 -53.606  1.00  0.00     0.016 A 
HETATM   10  C   UNL     1     -40.100  52.054 -52.181  1.00  0.00     0.096 A 
HETATM   11  N   UNL     1     -39.786  50.862 -51.657  1.00  0.00    -0.174 NA
HETATM   12  N   UNL     1     -39.480  50.080 -52.693  1.00  0.00    -0.288 N 
HETATM   13  H   UNL     1     -39.247  49.106 -52.511  1.00  0.00     0.188 HD
HETATM   14  C   UNL     1     -39.543  50.733 -53.886  1.00  0.00     0.120 A 
BRANCH  10  15
HETATM   15  C   UNL     1     -40.577  53.124 -51.296  1.00  0.00    -0.003 A 
HETATM   16  C   UNL     1     -41.914  53.532 -51.277  1.00  0.00     0.037 A 
HETATM   17  C   UNL     1     -42.330  54.547 -50.410  1.00  0.00     0.035 A 
HETATM   18 CL   UNL     1     -43.988  55.003 -50.394  1.00  0.00    -0.084 Cl
HETATM   19  C   UNL     1     -41.423  55.181 -49.567  1.00  0.00     0.024 A 
HETATM   20  C   UNL     1     -40.084  54.800 -49.593  1.00  0.00     0.003 A 
HETATM   21  C   UNL     1     -39.666  53.779 -50.450  1.00  0.00     0.014 A 
ENDBRANCH  10  15
ENDBRANCH   8   9
ENDBRANCH   4   8
BRANCH   1  22
HETATM   22  C   UNL     1     -42.891  56.848 -56.009  1.00  0.00     0.222 C 
HETATM   23  N   UNL     1     -43.636  56.186 -56.952  1.00  0.00    -0.357 N 
HETATM   24  H   UNL     1     -44.244  55.423 -56.679  1.00  0.00     0.162 HD
HETATM   25  O   UNL     1     -42.189  57.824 -56.251  1.00  0.00    -0.273 OA
BRANCH  23  26
HETATM   26  C   UNL     1     -43.687  56.620 -58.345  1.00  0.00     0.076 C 
HETATM   27  C   UNL     1     -44.904  57.515 -58.568  1.00  0.00     0.032 C 
HETATM   28  C   UNL     1     -43.721  55.414 -59.275  1.00  0.00     0.032 C 
ENDBRANCH  23  26
ENDBRANCH   1  22
TORSDOF 5
ENDMDL
MODEL 3
REMARK VINA RESULT:      -8.1      2.656      3.931
REMARK  5 active torsions:
REMARK  status: ('A' for Active; 'I' for Inactive)
REMARK    1  A    between atoms: C_2  and  N_3 
REMARK       I    between atoms: N_3  and  C_4 
REMARK    2  A    between atoms: C_4  and  C_5 
REMARK    3  A    between atoms: N_8  and  C_10 
REMARK    4  A    between atoms: C_10  and  C_11 
REMARK    5  A    between atoms: C_12  and  C_13 
ROOT
HETATM    1  C   UNL     1     -42.099  55.132 -56.081  1.00  0.00     0.081 C 
HETATM    2  C   UNL     1     -43.229  54.173 -55.709  1.00  0.00     0.042 C 
HETATM    3  C   UNL     1     -43.610  54.283 -54.236  1.00  0.00     0.236 C 
HETATM    4  N   UNL     1     -42.402  54.015 -53.369  1.00  0.00    -0.067 N 
HETATM    5  H   UNL     1     -42.100  53.056 -53.568  1.00  0.00     0.280 HD
HETATM    6  C   UNL     1     -41.250  54.946 -53.669  1.00  0.00     0.236 C 
HETATM    7  C   UNL     1     -40.899  54.919 -55.152  1.00  0.00     0.042 C 
ENDROOT
BRANCH   4   8
HETATM    8  C   UNL     1     -42.730  54.071 -51.881  1.00  0.00     0.277 C 
BRANCH   8   9
HETATM    9  C   UNL     1     -41.551  54.282 -51.001  1.00  0.00     0.016 A 
HETATM   10  C   UNL     1     -40.454  53.399 -50.722  1.00  0.00     0.096 A 
HETATM   11  N   UNL     1     -39.579  53.992 -49.897  1.00  0.00    -0.174 NA
HETATM   12  N   UNL     1     -40.049  55.223 -49.695  1.00  0.00    -0.288 N 
HETATM   13  H   UNL     1     -39.503  55.859 -49.119  1.00  0.00     0.188 HD
HETATM   14  C   UNL     1     -41.232  55.450 -50.329  1.00  0.00     0.120 A 
BRANCH  10  15
HETATM   15  C   UNL     1     -40.172  52.046 -51.216  1.00  0.00    -0.003 A 
HETATM   16  C   UNL     1     -39.925  51.785 -52.567  1.00  0.00     0.037 A 
HETATM   17  C   UNL     1     -39.648  50.484 -52.995  1.00  0.00     0.035 A 
HETATM   18 CL   UNL     1     -39.322  50.205 -54.661  1.00  0.00    -0.084 Cl
HETATM   19  C   UNL     1     -39.632  49.424 -52.094  1.00  0.00     0.024 A 
HETATM   20  C   UNL     1     -39.899  49.667 -50.749  1.00  0.00     0.003 A 
HETATM   21  C   UNL     1     -40.166  50.968 -50.315  1.00  0.00     0.014 A 
ENDBRANCH  10  15
ENDBRANCH   8   9
ENDBRANCH   4   8
BRANCH   1  22
HETATM   22  C   UNL     1     -42.623  56.560 -56.017  1.00  0.00     0.222 C 
HETATM   23  N   UNL     1     -43.827  56.751 -56.647  1.00  0.00    -0.357 N 
HETATM   24  H   UNL     1     -44.278  55.982 -57.128  1.00  0.00     0.162 HD
HETATM   25  O   UNL     1     -42.052  57.420 -55.356  1.00  0.00    -0.273 OA
BRANCH  23  26
HETATM   26  C   UNL     1     -44.564  58.007 -56.549  1.00  0.00     0.076 C 
HETATM   27  C   UNL     1     -45.394  58.027 -55.267  1.00  0.00     0.032 C 
HETATM   28  C   UNL     1     -45.450  58.198 -57.773  1.00  0.00     0.032 C 
ENDBRANCH  23  26
ENDBRANCH   1  22
TORSDOF 5
ENDMDL
MODEL 4
REMARK VINA RESULT:      -7.8      3.007      5.889
REMARK  5 active torsions:
REMARK  status: ('A' for Active; 'I' for Inactive)
REMARK    1  A    between atoms: C_2  and  N_3 
REMARK       I    between atoms: N_3  and  C_4 
REMARK    2  A    between atoms: C_4  and  C_5 
REMARK    3  A    between atoms: N_8  and  C_10 
REMARK    4  A    between atoms: C_10  and  C_11 
REMARK    5  A    between atoms: C_12  and  C_13 
ROOT
HETATM    1  C   UNL     1     -42.512  54.116 -50.936  1.00  0.00     0.081 C 
HETATM    2  C   UNL     1     -43.748  54.960 -50.624  1.00  0.00     0.042 C 
HETATM    3  C   UNL     1     -43.567  56.414 -51.047  1.00  0.00     0.236 C 
HETATM    4  N   UNL     1     -42.355  57.004 -50.366  1.00  0.00    -0.067 N 
HETATM    5  H   UNL     1     -42.534  56.968 -49.357  1.00  0.00     0.280 HD
HETATM    6  C   UNL     1     -41.089  56.229 -50.651  1.00  0.00     0.236 C 
HETATM    7  C   UNL     1     -41.266  54.753 -50.313  1.00  0.00     0.042 C 
ENDROOT
BRANCH   4   8
HETATM    8  C   UNL     1     -42.146  58.473 -50.719  1.00  0.00     0.277 C 
BRANCH   8   9
HETATM    9  C   UNL     1     -40.825  58.774 -51.330  1.00  0.00     0.016 A 
HETATM   10  C   UNL     1     -40.447  58.796 -52.715  1.00  0.00     0.096 A 
HETATM   11  N   UNL     1     -39.161  59.152 -52.839  1.00  0.00    -0.174 NA
HETATM   12  N   UNL     1     -38.735  59.409 -51.602  1.00  0.00    -0.288 N 
HETATM   13  H   UNL     1     -37.779  59.737 -51.479  1.00  0.00     0.188 HD
HETATM   14  C   UNL     1     -39.690  59.194 -50.657  1.00  0.00     0.120 A 
BRANCH  10  15
HETATM   15  C   UNL     1     -41.240  58.534 -53.922  1.00  0.00    -0.003 A 
HETATM   16  C   UNL     1     -41.677  59.563 -54.762  1.00  0.00     0.037 A 
HETATM   17  C   UNL     1     -42.419  59.269 -55.909  1.00  0.00     0.035 A 
HETATM   18 CL   UNL     1     -42.916  60.559 -56.934  1.00  0.00    -0.084 Cl
HETATM   19  C   UNL     1     -42.754  57.957 -56.227  1.00  0.00     0.024 A 
HETATM   20  C   UNL     1     -42.344  56.925 -55.386  1.00  0.00     0.003 A 
HETATM   21  C   UNL     1     -41.593  57.213 -54.244  1.00  0.00     0.014 A 
ENDBRANCH  10  15
ENDBRANCH   8   9
ENDBRANCH   4   8
BRANCH   1  22
HETATM   22  C   UNL     1     -42.383  53.970 -52.446  1.00  0.00     0.222 C 
HETATM   23  N   UNL     1     -41.222  53.366 -52.860  1.00  0.00    -0.357 N 
HETATM   24  H   UNL     1     -40.523  53.086 -52.182  1.00  0.00     0.162 HD
HETATM   25  O   UNL     1     -43.303  54.271 -53.198  1.00  0.00    -0.273 OA
BRANCH  23  26
HETATM   26  C   UNL     1     -40.996  52.990 -54.252  1.00  0.00     0.076 C 
HETATM   27  C   UNL     1     -40.406  51.584 -54.323  1.00  0.00     0.032 C 
HETATM   28  C   UNL     1     -40.080  54.000 -54.932  1.00  0.00     0.032 C 
ENDBRANCH  23  26
ENDBRANCH   1  22
TORSDOF 5
ENDMDL
MODEL 5
REMARK VINA RESULT:      -7.7      2.803      3.762
REMARK  5 active torsions:
REMARK  status: ('A' for Active; 'I' for Inactive)
REMARK    1  A    between atoms: C_2  and  N_3 
REMARK       I    between atoms: N_3  and  C_4 
REMARK    2  A    between atoms: C_4  and  C_5 
REMARK    3  A    between atoms: N_8  and  C_10 
REMARK    4  A    between atoms: C_10  and  C_11 
REMARK    5  A    between atoms: C_12  and  C_13 
ROOT
HETATM    1  C   UNL     1     -43.593  58.605 -56.217  1.00  0.00     0.081 C 
HETATM    2  C   UNL     1     -42.347  58.602 -55.332  1.00  0.00     0.042 C 
HETATM    3  C   UNL     1     -42.127  57.250 -54.660  1.00  0.00     0.236 C 
HETATM    4  N   UNL     1     -43.340  56.876 -53.842  1.00  0.00    -0.067 N 
HETATM    5  H   UNL     1     -43.446  57.597 -53.120  1.00  0.00     0.280 HD
HETATM    6  C   UNL     1     -44.609  56.837 -54.663  1.00  0.00     0.236 C 
HETATM    7  C   UNL     1     -44.814  58.149 -55.411  1.00  0.00     0.042 C 
ENDROOT
BRANCH   4   8
HETATM    8  C   UNL     1     -43.163  55.549 -53.111  1.00  0.00     0.277 C 
BRANCH   8   9
HETATM    9  C   UNL     1     -42.321  55.629 -51.889  1.00  0.00     0.016 A 
HETATM   10  C   UNL     1     -41.258  54.766 -51.458  1.00  0.00     0.096 A 
HETATM   11  N   UNL     1     -40.733  55.213 -50.310  1.00  0.00    -0.174 NA
HETATM   12  N   UNL     1     -41.378  56.347 -50.034  1.00  0.00    -0.288 N 
HETATM   13  H   UNL     1     -41.098  56.874 -49.209  1.00  0.00     0.188 HD
HETATM   14  C   UNL     1     -42.345  56.642 -50.945  1.00  0.00     0.120 A 
BRANCH  10  15
HETATM   15  C   UNL     1     -40.693  53.565 -52.087  1.00  0.00    -0.003 A 
HETATM   16  C   UNL     1     -40.274  52.462 -51.338  1.00  0.00     0.037 A 
HETATM   17  C   UNL     1     -39.753  51.333 -51.976  1.00  0.00     0.035 A 
HETATM   18 CL   UNL     1     -39.274  49.983 -51.024  1.00  0.00    -0.084 Cl
HETATM   19  C   UNL     1     -39.623  51.292 -53.361  1.00  0.00     0.024 A 
HETATM   20  C   UNL     1     -40.015  52.394 -54.116  1.00  0.00     0.003 A 
HETATM   21  C   UNL     1     -40.547  53.521 -53.484  1.00  0.00     0.014 A 
ENDBRANCH  10  15
ENDBRANCH   8   9
ENDBRANCH   4   8
BRANCH   1  22
HETATM   22  C   UNL     1     -43.342  57.712 -57.425  1.00  0.00     0.222 C 
HETATM   23  N   UNL     1     -44.470  57.126 -57.941  1.00  0.00    -0.357 N 
HETATM   24  H   UNL     1     -45.371  57.278 -57.503  1.00  0.00     0.162 HD
HETATM   25  O   UNL     1     -42.232  57.632 -57.940  1.00  0.00    -0.273 OA
BRANCH  23  26
HETATM   26  C   UNL     1     -44.451  56.375 -59.193  1.00  0.00     0.076 C 
HETATM   27  C   UNL     1     -45.818  56.455 -59.870  1.00  0.00     0.032 C 
HETATM   28  C   UNL     1     -44.056  54.926 -58.935  1.00  0.00     0.032 C 
ENDBRANCH  23  26
ENDBRANCH   1  22
TORSDOF 5
ENDMDL
MODEL 6
REMARK VINA RESULT:      -7.4      2.022      3.036
REMARK  5 active torsions:
REMARK  status: ('A' for Active; 'I' for Inactive)
REMARK    1  A    between atoms: C_2  and  N_3 
REMARK       I    between atoms: N_3  and  C_4 
REMARK    2  A    between atoms: C_4  and  C_5 
REMARK    3  A    between atoms: N_8  and  C_10 
REMARK    4  A    between atoms: C_10  and  C_11 
REMARK    5  A    between atoms: C_12  and  C_13 
ROOT
HETATM    1  C   UNL     1     -42.417  59.451 -51.461  1.00  0.00     0.081 C 
HETATM    2  C   UNL     1     -41.428  58.344 -51.098  1.00  0.00     0.042 C 
HETATM    3  C   UNL     1     -41.681  57.069 -51.897  1.00  0.00     0.236 C 
HETATM    4  N   UNL     1     -43.096  56.590 -51.672  1.00  0.00    -0.067 N 
HETATM    5  H   UNL     1     -43.185  56.383 -50.672  1.00  0.00     0.280 HD
HETATM    6  C   UNL     1     -44.130  57.632 -52.034  1.00  0.00     0.236 C 
HETATM    7  C   UNL     1     -43.855  58.946 -51.311  1.00  0.00     0.042 C 
ENDROOT
BRANCH   4   8
HETATM    8  C   UNL     1     -43.396  55.293 -52.415  1.00  0.00     0.277 C 
BRANCH   8   9
HETATM    9  C   UNL     1     -42.816  55.220 -53.781  1.00  0.00     0.016 A 
HETATM   10  C   UNL     1     -41.761  54.382 -54.278  1.00  0.00     0.096 A 
HETATM   11  N   UNL     1     -41.566  54.607 -55.584  1.00  0.00    -0.174 NA
HETATM   12  N   UNL     1     -42.489  55.502 -55.939  1.00  0.00    -0.288 N 
HETATM   13  H   UNL     1     -42.537  55.783 -56.916  1.00  0.00     0.188 HD
HETATM   14  C   UNL     1     -43.262  55.908 -54.896  1.00  0.00     0.120 A 
BRANCH  10  15
HETATM   15  C   UNL     1     -40.954  53.363 -53.596  1.00  0.00    -0.003 A 
HETATM   16  C   UNL     1     -40.581  52.170 -54.222  1.00  0.00     0.037 A 
HETATM   17  C   UNL     1     -39.801  51.231 -53.542  1.00  0.00     0.035 A 
HETATM   18 CL   UNL     1     -39.338  49.786 -54.353  1.00  0.00    -0.084 Cl
HETATM   19  C   UNL     1     -39.400  51.453 -52.229  1.00  0.00     0.024 A 
HETATM   20  C   UNL     1     -39.784  52.626 -51.586  1.00  0.00     0.003 A 
HETATM   21  C   UNL     1     -40.555  53.574 -52.266  1.00  0.00     0.014 A 
ENDBRANCH  10  15
ENDBRANCH   8   9
ENDBRANCH   4   8
BRANCH   1  22
HETATM   22  C   UNL     1     -42.125  59.928 -52.878  1.00  0.00     0.222 C 
HETATM   23  N   UNL     1     -43.157  60.613 -53.469  1.00  0.00    -0.357 N 
HETATM   24  H   UNL     1     -44.034  60.740 -52.977  1.00  0.00     0.162 HD
HETATM   25  O   UNL     1     -41.015  59.796 -53.380  1.00  0.00    -0.273 OA
BRANCH  23  26
HETATM   26  C   UNL     1     -43.005  61.289 -54.754  1.00  0.00     0.076 C 
HETATM   27  C   UNL     1     -43.658  62.668 -54.700  1.00  0.00     0.032 C 
HETATM   28  C   UNL     1     -43.607  60.445 -55.871  1.00  0.00     0.032 C 
ENDBRANCH  23  26
ENDBRANCH   1  22
TORSDOF 5
ENDMDL
MODEL 7
REMARK VINA RESULT:      -7.4      2.596      3.760
REMARK  5 active torsions:
REMARK  status: ('A' for Active; 'I' for Inactive)
REMARK    1  A    between atoms: C_2  and  N_3 
REMARK       I    between atoms: N_3  and  C_4 
REMARK    2  A    between atoms: C_4  and  C_5 
REMARK    3  A    between atoms: N_8  and  C_10 
REMARK    4  A    between atoms: C_10  and  C_11 
REMARK    5  A    between atoms: C_12  and  C_13 
ROOT
HETATM    1  C   UNL     1     -42.251  59.459 -51.278  1.00  0.00     0.081 C 
HETATM    2  C   UNL     1     -41.587  59.939 -52.568  1.00  0.00     0.042 C 
HETATM    3  C   UNL     1     -41.600  58.863 -53.650  1.00  0.00     0.236 C 
HETATM    4  N   UNL     1     -40.909  57.617 -53.148  1.00  0.00    -0.067 N 
HETATM    5  H   UNL     1     -39.939  57.876 -52.943  1.00  0.00     0.280 HD
HETATM    6  C   UNL     1     -41.532  57.074 -51.882  1.00  0.00     0.236 C 
HETATM    7  C   UNL     1     -41.607  58.152 -50.807  1.00  0.00     0.042 C 
ENDROOT
BRANCH   4   8
HETATM    8  C   UNL     1     -40.854  56.517 -54.202  1.00  0.00     0.277 C 
BRANCH   8   9
HETATM    9  C   UNL     1     -42.081  55.683 -54.284  1.00  0.00     0.016 A 
HETATM   10  C   UNL     1     -42.264  54.298 -53.953  1.00  0.00     0.096 A 
HETATM   11  N   UNL     1     -43.542  53.941 -54.139  1.00  0.00    -0.174 NA
HETATM   12  N   UNL     1     -44.177  55.051 -54.514  1.00  0.00    -0.288 N 
HETATM   13  H   UNL     1     -45.182  55.003 -54.670  1.00  0.00     0.188 HD
HETATM   14  C   UNL     1     -43.349  56.125 -54.622  1.00  0.00     0.120 A 
BRANCH  10  15
HETATM   15  C   UNL     1     -41.308  53.307 -53.442  1.00  0.00    -0.003 A 
HETATM   16  C   UNL     1     -40.921  52.193 -54.192  1.00  0.00     0.037 A 
HETATM   17  C   UNL     1     -39.999  51.280 -53.674  1.00  0.00     0.035 A 
HETATM   18 CL   UNL     1     -39.525  49.935 -54.636  1.00  0.00    -0.084 Cl
HETATM   19  C   UNL     1     -39.465  51.449 -52.400  1.00  0.00     0.024 A 
HETATM   20  C   UNL     1     -39.859  52.543 -51.634  1.00  0.00     0.003 A 
HETATM   21  C   UNL     1     -40.773  53.465 -52.152  1.00  0.00     0.014 A 
ENDBRANCH  10  15
ENDBRANCH   8   9
ENDBRANCH   4   8
BRANCH   1  22
HETATM   22  C   UNL     1     -43.747  59.303 -51.522  1.00  0.00     0.222 C 
HETATM   23  N   UNL     1     -44.314  60.327 -52.238  1.00  0.00    -0.357 N 
HETATM   24  H   UNL     1     -43.752  61.116 -52.533  1.00  0.00     0.162 HD
HETATM   25  O   UNL     1     -44.344  58.284 -51.192  1.00  0.00    -0.273 OA
BRANCH  23  26
HETATM   26  C   UNL     1     -45.694  60.271 -52.711  1.00  0.00     0.076 C 
HETATM   27  C   UNL     1     -45.782  60.829 -54.129  1.00  0.00     0.032 C 
HETATM   28  C   UNL     1     -46.609  61.040 -51.766  1.00  0.00     0.032 C 
ENDBRANCH  23  26
ENDBRANCH   1  22
TORSDOF 5
ENDMDL
MODEL 8
REMARK VINA RESULT:      -7.3      1.240      1.576
REMARK  5 active torsions:
REMARK  status: ('A' for Active; 'I' for Inactive)
REMARK    1  A    between atoms: C_2  and  N_3 
REMARK       I    between atoms: N_3  and  C_4 
REMARK    2  A    between atoms: C_4  and  C_5 
REMARK    3  A    between atoms: N_8  and  C_10 
REMARK    4  A    between atoms: C_10  and  C_11 
REMARK    5  A    between atoms: C_12  and  C_13 
ROOT
HETATM    1  C   UNL     1     -42.647  59.682 -51.689  1.00  0.00     0.081 C 
HETATM    2  C   UNL     1     -41.507  59.070 -50.876  1.00  0.00     0.042 C 
HETATM    3  C   UNL     1     -41.463  57.551 -51.009  1.00  0.00     0.236 C 
HETATM    4  N   UNL     1     -42.781  56.956 -50.576  1.00  0.00    -0.067 N 
HETATM    5  H   UNL     1     -42.910  57.203 -49.589  1.00  0.00     0.280 HD
HETATM    6  C   UNL     1     -43.954  57.503 -51.358  1.00  0.00     0.236 C 
HETATM    7  C   UNL     1     -43.978  59.025 -51.310  1.00  0.00     0.042 C 
ENDROOT
BRANCH   4   8
HETATM    8  C   UNL     1     -42.784  55.432 -50.649  1.00  0.00     0.277 C 
BRANCH   8   9
HETATM    9  C   UNL     1     -41.625  54.784 -49.982  1.00  0.00     0.016 A 
HETATM   10  C   UNL     1     -40.626  53.916 -50.538  1.00  0.00     0.096 A 
HETATM   11  N   UNL     1     -39.731  53.577 -49.599  1.00  0.00    -0.174 NA
HETATM   12  N   UNL     1     -40.092  54.239 -48.499  1.00  0.00    -0.288 N 
HETATM   13  H   UNL     1     -39.511  54.148 -47.669  1.00  0.00     0.188 HD
HETATM   14  C   UNL     1     -41.225  54.974 -48.671  1.00  0.00     0.120 A 
BRANCH  10  15
HETATM   15  C   UNL     1     -40.452  53.418 -51.908  1.00  0.00    -0.003 A 
HETATM   16  C   UNL     1     -40.784  54.189 -53.026  1.00  0.00     0.037 A 
HETATM   17  C   UNL     1     -40.591  53.683 -54.314  1.00  0.00     0.035 A 
HETATM   18 CL   UNL     1     -40.984  54.671 -55.666  1.00  0.00    -0.084 Cl
HETATM   19  C   UNL     1     -40.087  52.402 -54.510  1.00  0.00     0.024 A 
HETATM   20  C   UNL     1     -39.774  51.615 -53.405  1.00  0.00     0.003 A 
HETATM   21  C   UNL     1     -39.955  52.120 -52.114  1.00  0.00     0.014 A 
ENDBRANCH  10  15
ENDBRANCH   8   9
ENDBRANCH   4   8
BRANCH   1  22
HETATM   22  C   UNL     1     -42.335  59.525 -53.171  1.00  0.00     0.222 C 
HETATM   23  N   UNL     1     -43.421  59.208 -53.948  1.00  0.00    -0.357 N 
HETATM   24  H   UNL     1     -44.330  59.069 -53.522  1.00  0.00     0.162 HD
HETATM   25  O   UNL     1     -41.223  59.777 -53.620  1.00  0.00    -0.273 OA
BRANCH  23  26
HETATM   26  C   UNL     1     -43.351  59.181 -55.406  1.00  0.00     0.076 C 
HETATM   27  C   UNL     1     -44.704  59.568 -56.000  1.00  0.00     0.032 C 
HETATM   28  C   UNL     1     -42.918  57.802 -55.890  1.00  0.00     0.032 C 
ENDBRANCH  23  26
ENDBRANCH   1  22
TORSDOF 5
ENDMDL
MODEL 9
REMARK VINA RESULT:      -7.2      3.586      7.636
REMARK  5 active torsions:
REMARK  status: ('A' for Active; 'I' for Inactive)
REMARK    1  A    between atoms: C_2  and  N_3 
REMARK       I    between atoms: N_3  and  C_4 
REMARK    2  A    between atoms: C_4  and  C_5 
REMARK    3  A    between atoms: N_8  and  C_10 
REMARK    4  A    between atoms: C_10  and  C_11 
REMARK    5  A    between atoms: C_12  and  C_13 
ROOT
HETATM    1  C   UNL     1     -41.380  53.728 -54.619  1.00  0.00     0.081 C 
HETATM    2  C   UNL     1     -40.374  54.873 -54.728  1.00  0.00     0.042 C 
HETATM    3  C   UNL     1     -40.984  56.209 -54.314  1.00  0.00     0.236 C 
HETATM    4  N   UNL     1     -42.197  56.508 -55.162  1.00  0.00    -0.067 N 
HETATM    5  H   UNL     1     -41.874  56.572 -56.133  1.00  0.00     0.280 HD
HETATM    6  C   UNL     1     -43.247  55.422 -55.083  1.00  0.00     0.236 C 
HETATM    7  C   UNL     1     -42.647  54.060 -55.413  1.00  0.00     0.042 C 
ENDROOT
BRANCH   4   8
HETATM    8  C   UNL     1     -42.829  57.854 -54.821  1.00  0.00     0.277 C 
BRANCH   8   9
HETATM    9  C   UNL     1     -42.521  58.938 -55.790  1.00  0.00     0.016 A 
HETATM   10  C   UNL     1     -42.699  58.963 -57.214  1.00  0.00     0.096 A 
HETATM   11  N   UNL     1     -42.326  60.151 -57.708  1.00  0.00    -0.174 NA
HETATM   12  N   UNL     1     -41.978  60.889 -56.653  1.00  0.00    -0.288 N 
HETATM   13  H   UNL     1     -41.696  61.854 -56.811  1.00  0.00     0.188 HD
HETATM   14  C   UNL     1     -42.071  60.209 -55.477  1.00  0.00     0.120 A 
BRANCH  10  15
HETATM   15  C   UNL     1     -43.231  57.942 -58.125  1.00  0.00    -0.003 A 
HETATM   16  C   UNL     1     -44.601  57.809 -58.372  1.00  0.00     0.037 A 
HETATM   17  C   UNL     1     -45.066  56.832 -59.256  1.00  0.00     0.035 A 
HETATM   18 CL   UNL     1     -46.756  56.715 -59.558  1.00  0.00    -0.084 Cl
HETATM   19  C   UNL     1     -44.183  55.963 -59.890  1.00  0.00     0.024 A 
HETATM   20  C   UNL     1     -42.819  56.070 -59.634  1.00  0.00     0.003 A 
HETATM   21  C   UNL     1     -42.347  57.053 -58.759  1.00  0.00     0.014 A 
ENDBRANCH  10  15
ENDBRANCH   8   9
ENDBRANCH   4   8
BRANCH   1  22
HETATM   22  C   UNL     1     -41.679  53.472 -53.148  1.00  0.00     0.222 C 
HETATM   23  N   UNL     1     -40.608  53.013 -52.423  1.00  0.00    -0.357 N 
HETATM   24  H   UNL     1     -39.719  52.844 -52.878  1.00  0.00     0.162 HD
HETATM   25  O   UNL     1     -42.763  53.767 -52.657  1.00  0.00    -0.273 OA
BRANCH  23  26
HETATM   26  C   UNL     1     -40.657  52.872 -50.971  1.00  0.00     0.076 C 
HETATM   27  C   UNL     1     -39.822  53.967 -50.312  1.00  0.00     0.032 C 
HETATM   28  C   UNL     1     -40.168  51.490 -50.556  1.00  0.00     0.032 C 
ENDBRANCH  23  26
ENDBRANCH   1  22
TORSDOF 5
ENDMDL
MODEL 10
REMARK VINA RESULT:      -7.2     15.859     17.447
REMARK  5 active torsions:
REMARK  status: ('A' for Active; 'I' for Inactive)
REMARK    1  A    between atoms: C_2  and  N_3 
REMARK       I    between atoms: N_3  and  C_4 
REMARK    2  A    between atoms: C_4  and  C_5 
REMARK    3  A    between atoms: N_8  and  C_10 
REMARK    4  A    between atoms: C_10  and  C_11 
REMARK    5  A    between atoms: C_12  and  C_13 
ROOT
HETATM    1  C   UNL     1     -35.105  42.351 -56.220  1.00  0.00     0.081 C 
HETATM    2  C   UNL     1     -34.304  41.061 -56.388  1.00  0.00     0.042 C 
HETATM    3  C   UNL     1     -34.981  39.876 -55.706  1.00  0.00     0.236 C 
HETATM    4  N   UNL     1     -35.181  40.170 -54.238  1.00  0.00    -0.067 N 
HETATM    5  H   UNL     1     -34.250  40.304 -53.832  1.00  0.00     0.280 HD
HETATM    6  C   UNL     1     -35.988  41.426 -53.999  1.00  0.00     0.236 C 
HETATM    7  C   UNL     1     -35.380  42.613 -54.736  1.00  0.00     0.042 C 
ENDROOT
BRANCH   4   8
HETATM    8  C   UNL     1     -35.819  39.003 -53.492  1.00  0.00     0.277 C 
BRANCH   8   9
HETATM    9  C   UNL     1     -36.418  39.366 -52.182  1.00  0.00     0.016 A 
HETATM   10  C   UNL     1     -35.770  39.653 -50.933  1.00  0.00     0.096 A 
HETATM   11  N   UNL     1     -36.678  39.972 -50.001  1.00  0.00    -0.174 NA
HETATM   12  N   UNL     1     -37.857  39.955 -50.623  1.00  0.00    -0.288 N 
HETATM   13  H   UNL     1     -38.686  40.211 -50.092  1.00  0.00     0.188 HD
HETATM   14  C   UNL     1     -37.761  39.592 -51.931  1.00  0.00     0.120 A 
BRANCH  10  15
HETATM   15  C   UNL     1     -34.344  39.675 -50.585  1.00  0.00    -0.003 A 
HETATM   16  C   UNL     1     -33.846  39.024 -49.452  1.00  0.00     0.037 A 
HETATM   17  C   UNL     1     -32.479  39.058 -49.163  1.00  0.00     0.035 A 
HETATM   18 CL   UNL     1     -31.899  38.222 -47.776  1.00  0.00    -0.084 Cl
HETATM   19  C   UNL     1     -31.594  39.754 -49.979  1.00  0.00     0.024 A 
HETATM   20  C   UNL     1     -32.080  40.426 -51.097  1.00  0.00     0.003 A 
HETATM   21  C   UNL     1     -33.444  40.385 -51.397  1.00  0.00     0.014 A 
ENDBRANCH  10  15
ENDBRANCH   8   9
ENDBRANCH   4   8
BRANCH   1  22
HETATM   22  C   UNL     1     -36.392  42.242 -57.027  1.00  0.00     0.222 C 
HETATM   23  N   UNL     1     -36.203  41.987 -58.362  1.00  0.00    -0.357 N 
HETATM   24  H   UNL     1     -35.266  41.916 -58.741  1.00  0.00     0.162 HD
HETATM   25  O   UNL     1     -37.490  42.271 -56.484  1.00  0.00    -0.273 OA
BRANCH  23  26
HETATM   26  C   UNL     1     -37.314  41.685 -59.259  1.00  0.00     0.076 C 
HETATM   27  C   UNL     1     -37.143  40.287 -59.850  1.00  0.00     0.032 C 
HETATM   28  C   UNL     1     -37.406  42.733 -60.361  1.00  0.00     0.032 C 
ENDBRANCH  23  26
ENDBRANCH   1  22
TORSDOF 5
ENDMDL
