MODEL 1
REMARK VINA RESULT:      -7.9      0.000      0.000
REMARK  6 active torsions:
REMARK  status: ('A' for Active; 'I' for Inactive)
REMARK    1  A    between atoms: O_2  and  C_3 
REMARK    2  A    between atoms: C_3  and  C_4 
REMARK    3  A    between atoms: C_4  and  N_5 
REMARK       I    between atoms: N_5  and  C_6 
REMARK    4  A    between atoms: C_6  and  C_7 
REMARK    5  A    between atoms: C_12  and  C_13 
REMARK    6  A    between atoms: C_20  and  C_21 
ROOT
HETATM    1  C   UNL     1     -41.729  57.516 -51.467  1.00  0.00     0.165 A 
HETATM    2  N   UNL     1     -40.995  57.000 -50.448  1.00  0.00    -0.163 NA
HETATM    3  N   UNL     1     -40.855  55.705 -50.775  1.00  0.00    -0.238 N 
HETATM    4  C   UNL     1     -41.412  55.365 -51.977  1.00  0.00     0.141 A 
HETATM    5  N   UNL     1     -41.300  54.107 -52.470  1.00  0.00    -0.365 N 
HETATM    6  C   UNL     1     -40.784  53.021 -51.639  1.00  0.00     0.118 C 
HETATM    7  C   UNL     1     -39.667  53.561 -50.728  1.00  0.00     0.066 C 
HETATM    8  C   UNL     1     -40.149  54.775 -49.912  1.00  0.00     0.221 C 
HETATM    9  C   UNL     1     -41.994  56.517 -52.440  1.00  0.00     0.092 A 
HETATM   10 BR   UNL     1     -42.940  56.715 -54.045  1.00  0.00    -0.044 Br
HETATM   11  H   UNL     1     -41.877  53.816 -53.260  1.00  0.00     0.162 HD
ENDROOT
BRANCH   1  12
HETATM   12  C   UNL     1     -42.133  58.933 -51.458  1.00  0.00     0.273 C 
HETATM   13  N   UNL     1     -43.261  59.169 -50.702  1.00  0.00    -0.353 N 
HETATM   14  H   UNL     1     -43.576  58.390 -50.127  1.00  0.00     0.162 HD
HETATM   15  O   UNL     1     -41.534  59.821 -52.056  1.00  0.00    -0.266 OA
BRANCH  13  16
HETATM   16  C   UNL     1     -43.734  60.500 -50.389  1.00  0.00     0.149 C 
BRANCH  16  17
HETATM   17  C   UNL     1     -45.259  60.572 -50.418  1.00  0.00     0.186 C 
BRANCH  17  18
HETATM   18  O   UNL     1     -45.777  60.067 -49.182  1.00  0.00    -0.394 OA
HETATM   19  C   UNL     1     -45.617  61.008 -48.127  1.00  0.00     0.201 C 
ENDBRANCH  17  18
ENDBRANCH  16  17
ENDBRANCH  13  16
ENDBRANCH   1  12
BRANCH   8  20
HETATM   20  C   UNL     1     -41.041  54.368 -48.759  1.00  0.00     0.409 C 
HETATM   21  F   UNL     1     -41.025  55.253 -47.739  1.00  0.00    -0.169 F 
HETATM   22  F   UNL     1     -42.330  54.285 -49.179  1.00  0.00    -0.169 F 
HETATM   23  F   UNL     1     -40.724  53.155 -48.254  1.00  0.00    -0.169 F 
ENDBRANCH   8  20
BRANCH   6  24
HETATM   24  C   UNL     1     -40.273  51.884 -52.504  1.00  0.00    -0.035 A 
HETATM   25  C   UNL     1     -39.838  50.670 -51.946  1.00  0.00     0.009 A 
HETATM   26  C   UNL     1     -39.394  49.629 -52.763  1.00  0.00     0.001 A 
HETATM   27  C   UNL     1     -39.386  49.784 -54.148  1.00  0.00     0.000 A 
HETATM   28  C   UNL     1     -39.824  50.978 -54.717  1.00  0.00     0.001 A 
HETATM   29  C   UNL     1     -40.266  52.021 -53.901  1.00  0.00     0.009 A 
ENDBRANCH   6  24
TORSDOF 6
ENDMDL
MODEL 2
REMARK VINA RESULT:      -7.8      3.191      4.047
REMARK  6 active torsions:
REMARK  status: ('A' for Active; 'I' for Inactive)
REMARK    1  A    between atoms: O_2  and  C_3 
REMARK    2  A    between atoms: C_3  and  C_4 
REMARK    3  A    between atoms: C_4  and  N_5 
REMARK       I    between atoms: N_5  and  C_6 
REMARK    4  A    between atoms: C_6  and  C_7 
REMARK    5  A    between atoms: C_12  and  C_13 
REMARK    6  A    between atoms: C_20  and  C_21 
ROOT
HETATM    1  C   UNL     1     -43.023  58.434 -52.396  1.00  0.00     0.165 A 
HETATM    2  N   UNL     1     -43.715  57.765 -53.354  1.00  0.00    -0.163 NA
HETATM    3  N   UNL     1     -42.990  56.654 -53.559  1.00  0.00    -0.238 N 
HETATM    4  C   UNL     1     -41.895  56.538 -52.748  1.00  0.00     0.141 A 
HETATM    5  N   UNL     1     -41.099  55.442 -52.796  1.00  0.00    -0.365 N 
HETATM    6  C   UNL     1     -41.249  54.456 -53.864  1.00  0.00     0.118 C 
HETATM    7  C   UNL     1     -42.740  54.305 -54.216  1.00  0.00     0.066 C 
HETATM    8  C   UNL     1     -43.376  55.667 -54.552  1.00  0.00     0.221 C 
HETATM    9  C   UNL     1     -41.887  57.684 -51.994  1.00  0.00     0.092 A 
HETATM   10 BR   UNL     1     -40.622  58.145 -50.690  1.00  0.00    -0.044 Br
HETATM   11  H   UNL     1     -40.188  55.452 -52.336  1.00  0.00     0.162 HD
ENDROOT
BRANCH   1  12
HETATM   12  C   UNL     1     -43.485  59.748 -51.916  1.00  0.00     0.273 C 
HETATM   13  N   UNL     1     -43.842  59.742 -50.584  1.00  0.00    -0.353 N 
HETATM   14  H   UNL     1     -43.596  58.900 -50.067  1.00  0.00     0.162 HD
HETATM   15  O   UNL     1     -43.551  60.751 -52.618  1.00  0.00    -0.266 OA
BRANCH  13  16
HETATM   16  C   UNL     1     -44.143  60.950 -49.845  1.00  0.00     0.149 C 
BRANCH  16  17
HETATM   17  C   UNL     1     -45.637  61.067 -49.552  1.00  0.00     0.186 C 
BRANCH  17  18
HETATM   18  O   UNL     1     -45.933  60.368 -48.338  1.00  0.00    -0.394 OA
HETATM   19  C   UNL     1     -45.323  60.994 -47.215  1.00  0.00     0.201 C 
ENDBRANCH  17  18
ENDBRANCH  16  17
ENDBRANCH  13  16
ENDBRANCH   1  12
BRANCH   8  20
HETATM   20  C   UNL     1     -42.989  56.151 -55.932  1.00  0.00     0.409 C 
HETATM   21  F   UNL     1     -41.855  56.884 -55.939  1.00  0.00    -0.169 F 
HETATM   22  F   UNL     1     -42.767  55.088 -56.749  1.00  0.00    -0.169 F 
HETATM   23  F   UNL     1     -43.957  56.888 -56.520  1.00  0.00    -0.169 F 
ENDBRANCH   8  20
BRANCH   6  24
HETATM   24  C   UNL     1     -40.654  53.124 -53.448  1.00  0.00    -0.035 A 
HETATM   25  C   UNL     1     -40.462  52.081 -54.370  1.00  0.00     0.009 A 
HETATM   26  C   UNL     1     -39.891  50.872 -53.968  1.00  0.00     0.001 A 
HETATM   27  C   UNL     1     -39.499  50.691 -52.643  1.00  0.00     0.000 A 
HETATM   28  C   UNL     1     -39.675  51.719 -51.720  1.00  0.00     0.001 A 
HETATM   29  C   UNL     1     -40.247  52.928 -52.119  1.00  0.00     0.009 A 
ENDBRANCH   6  24
TORSDOF 6
ENDMDL
MODEL 3
REMARK VINA RESULT:      -7.5      3.220      3.857
REMARK  6 active torsions:
REMARK  status: ('A' for Active; 'I' for Inactive)
REMARK    1  A    between atoms: O_2  and  C_3 
REMARK    2  A    between atoms: C_3  and  C_4 
REMARK    3  A    between atoms: C_4  and  N_5 
REMARK       I    between atoms: N_5  and  C_6 
REMARK    4  A    between atoms: C_6  and  C_7 
REMARK    5  A    between atoms: C_12  and  C_13 
REMARK    6  A    between atoms: C_20  and  C_21 
ROOT
HETATM    1  C   UNL     1     -43.041  57.138 -52.057  1.00  0.00     0.165 A 
HETATM    2  N   UNL     1     -43.500  56.618 -53.225  1.00  0.00    -0.163 NA
HETATM    3  N   UNL     1     -42.704  55.557 -53.439  1.00  0.00    -0.238 N 
HETATM    4  C   UNL     1     -41.791  55.329 -52.447  1.00  0.00     0.141 A 
HETATM    5  N   UNL     1     -40.959  54.259 -52.492  1.00  0.00    -0.365 N 
HETATM    6  C   UNL     1     -40.851  53.447 -53.702  1.00  0.00     0.118 C 
HETATM    7  C   UNL     1     -42.234  53.338 -54.370  1.00  0.00     0.066 C 
HETATM    8  C   UNL     1     -42.843  54.730 -54.624  1.00  0.00     0.221 C 
HETATM    9  C   UNL     1     -41.981  56.346 -51.546  1.00  0.00     0.092 A 
HETATM   10 BR   UNL     1     -41.024  56.613 -49.957  1.00  0.00    -0.044 Br
HETATM   11  H   UNL     1     -40.160  54.207 -51.859  1.00  0.00     0.162 HD
ENDROOT
BRANCH   1  12
HETATM   12  C   UNL     1     -43.643  58.359 -51.493  1.00  0.00     0.273 C 
HETATM   13  N   UNL     1     -45.020  58.313 -51.450  1.00  0.00    -0.353 N 
HETATM   14  H   UNL     1     -45.436  57.406 -51.653  1.00  0.00     0.162 HD
HETATM   15  O   UNL     1     -42.996  59.324 -51.099  1.00  0.00    -0.266 OA
BRANCH  13  16
HETATM   16  C   UNL     1     -45.819  59.308 -50.767  1.00  0.00     0.149 C 
BRANCH  16  17
HETATM   17  C   UNL     1     -46.442  60.295 -51.751  1.00  0.00     0.186 C 
BRANCH  17  18
HETATM   18  O   UNL     1     -45.496  61.330 -52.041  1.00  0.00    -0.394 OA
HETATM   19  C   UNL     1     -45.372  62.240 -50.955  1.00  0.00     0.201 C 
ENDBRANCH  17  18
ENDBRANCH  16  17
ENDBRANCH  13  16
ENDBRANCH   1  12
BRANCH   8  20
HETATM   20  C   UNL     1     -42.206  55.422 -55.809  1.00  0.00     0.409 C 
HETATM   21  F   UNL     1     -41.591  56.579 -55.480  1.00  0.00    -0.169 F 
HETATM   22  F   UNL     1     -41.254  54.621 -56.356  1.00  0.00    -0.169 F 
HETATM   23  F   UNL     1     -43.089  55.693 -56.795  1.00  0.00    -0.169 F 
ENDBRANCH   8  20
BRANCH   6  24
HETATM   24  C   UNL     1     -40.300  52.072 -53.374  1.00  0.00    -0.035 A 
HETATM   25  C   UNL     1     -39.866  51.740 -52.080  1.00  0.00     0.009 A 
HETATM   26  C   UNL     1     -39.385  50.461 -51.796  1.00  0.00     0.001 A 
HETATM   27  C   UNL     1     -39.338  49.494 -52.799  1.00  0.00     0.000 A 
HETATM   28  C   UNL     1     -39.774  49.805 -54.085  1.00  0.00     0.001 A 
HETATM   29  C   UNL     1     -40.253  51.085 -54.371  1.00  0.00     0.009 A 
ENDBRANCH   6  24
TORSDOF 6
ENDMDL
MODEL 4
REMARK VINA RESULT:      -7.4      3.247      4.139
REMARK  6 active torsions:
REMARK  status: ('A' for Active; 'I' for Inactive)
REMARK    1  A    between atoms: O_2  and  C_3 
REMARK    2  A    between atoms: C_3  and  C_4 
REMARK    3  A    between atoms: C_4  and  N_5 
REMARK       I    between atoms: N_5  and  C_6 
REMARK    4  A    between atoms: C_6  and  C_7 
REMARK    5  A    between atoms: C_12  and  C_13 
REMARK    6  A    between atoms: C_20  and  C_21 
ROOT
HETATM    1  C   UNL     1     -43.129  58.158 -52.496  1.00  0.00     0.165 A 
HETATM    2  N   UNL     1     -43.755  57.502 -53.507  1.00  0.00    -0.163 NA
HETATM    3  N   UNL     1     -43.004  56.403 -53.690  1.00  0.00    -0.238 N 
HETATM    4  C   UNL     1     -41.958  56.284 -52.818  1.00  0.00     0.141 A 
HETATM    5  N   UNL     1     -41.147  55.198 -52.841  1.00  0.00    -0.365 N 
HETATM    6  C   UNL     1     -41.219  54.233 -53.935  1.00  0.00     0.118 C 
HETATM    7  C   UNL     1     -42.685  54.072 -54.378  1.00  0.00     0.066 C 
HETATM    8  C   UNL     1     -43.317  55.433 -54.724  1.00  0.00     0.221 C 
HETATM    9  C   UNL     1     -42.010  57.414 -52.042  1.00  0.00     0.092 A 
HETATM   10 BR   UNL     1     -40.832  57.862 -50.656  1.00  0.00    -0.044 Br
HETATM   11  H   UNL     1     -40.265  55.209 -52.327  1.00  0.00     0.162 HD
ENDROOT
BRANCH   1  12
HETATM   12  C   UNL     1     -43.637  59.457 -52.018  1.00  0.00     0.273 C 
HETATM   13  N   UNL     1     -44.060  59.422 -50.707  1.00  0.00    -0.353 N 
HETATM   14  H   UNL     1     -43.827  58.575 -50.191  1.00  0.00     0.162 HD
HETATM   15  O   UNL     1     -43.683  60.471 -52.706  1.00  0.00    -0.266 OA
BRANCH  13  16
HETATM   16  C   UNL     1     -44.417  60.611 -49.964  1.00  0.00     0.149 C 
BRANCH  16  17
HETATM   17  C   UNL     1     -45.891  60.964 -50.150  1.00  0.00     0.186 C 
BRANCH  17  18
HETATM   18  O   UNL     1     -46.005  62.353 -50.478  1.00  0.00    -0.394 OA
HETATM   19  C   UNL     1     -46.633  62.540 -51.740  1.00  0.00     0.201 C 
ENDBRANCH  17  18
ENDBRANCH  16  17
ENDBRANCH  13  16
ENDBRANCH   1  12
BRANCH   8  20
HETATM   20  C   UNL     1     -42.855  55.950 -56.069  1.00  0.00     0.409 C 
HETATM   21  F   UNL     1     -43.771  56.734 -56.679  1.00  0.00    -0.169 F 
HETATM   22  F   UNL     1     -41.739  56.709 -55.914  1.00  0.00    -0.169 F 
HETATM   23  F   UNL     1     -42.527  54.959 -56.927  1.00  0.00    -0.169 F 
ENDBRANCH   8  20
BRANCH   6  24
HETATM   24  C   UNL     1     -40.634  52.899 -53.511  1.00  0.00    -0.035 A 
HETATM   25  C   UNL     1     -40.510  51.828 -54.411  1.00  0.00     0.009 A 
HETATM   26  C   UNL     1     -39.946  50.617 -54.004  1.00  0.00     0.001 A 
HETATM   27  C   UNL     1     -39.492  50.464 -52.695  1.00  0.00     0.000 A 
HETATM   28  C   UNL     1     -39.599  51.521 -51.794  1.00  0.00     0.001 A 
HETATM   29  C   UNL     1     -40.165  52.731 -52.199  1.00  0.00     0.009 A 
ENDBRANCH   6  24
TORSDOF 6
ENDMDL
MODEL 5
REMARK VINA RESULT:      -7.2      4.478      5.604
REMARK  6 active torsions:
REMARK  status: ('A' for Active; 'I' for Inactive)
REMARK    1  A    between atoms: O_2  and  C_3 
REMARK    2  A    between atoms: C_3  and  C_4 
REMARK    3  A    between atoms: C_4  and  N_5 
REMARK       I    between atoms: N_5  and  C_6 
REMARK    4  A    between atoms: C_6  and  C_7 
REMARK    5  A    between atoms: C_12  and  C_13 
REMARK    6  A    between atoms: C_20  and  C_21 
ROOT
HETATM    1  C   UNL     1     -42.600  58.091 -56.058  1.00  0.00     0.165 A 
HETATM    2  N   UNL     1     -42.233  58.326 -54.771  1.00  0.00    -0.163 NA
HETATM    3  N   UNL     1     -42.025  57.099 -54.266  1.00  0.00    -0.238 N 
HETATM    4  C   UNL     1     -42.184  56.084 -55.168  1.00  0.00     0.141 A 
HETATM    5  N   UNL     1     -41.949  54.795 -54.822  1.00  0.00    -0.365 N 
HETATM    6  C   UNL     1     -41.742  54.422 -53.424  1.00  0.00     0.118 C 
HETATM    7  C   UNL     1     -40.956  55.536 -52.709  1.00  0.00     0.066 C 
HETATM    8  C   UNL     1     -41.644  56.903 -52.879  1.00  0.00     0.221 C 
HETATM    9  C   UNL     1     -42.567  56.699 -56.333  1.00  0.00     0.092 A 
HETATM   10 BR   UNL     1     -42.959  55.851 -57.958  1.00  0.00    -0.044 Br
HETATM   11  H   UNL     1     -42.256  54.038 -55.434  1.00  0.00     0.162 HD
ENDROOT
BRANCH   1  12
HETATM   12  C   UNL     1     -42.956  59.206 -56.952  1.00  0.00     0.273 C 
HETATM   13  N   UNL     1     -41.941  59.550 -57.818  1.00  0.00    -0.353 N 
HETATM   14  H   UNL     1     -41.152  58.908 -57.849  1.00  0.00     0.162 HD
HETATM   15  O   UNL     1     -44.041  59.778 -56.936  1.00  0.00    -0.266 OA
BRANCH  13  16
HETATM   16  C   UNL     1     -42.122  60.482 -58.911  1.00  0.00     0.149 C 
BRANCH  16  17
HETATM   17  C   UNL     1     -42.498  59.760 -60.203  1.00  0.00     0.186 C 
BRANCH  17  18
HETATM   18  O   UNL     1     -43.920  59.802 -60.368  1.00  0.00    -0.394 OA
HETATM   19  C   UNL     1     -44.487  58.499 -60.324  1.00  0.00     0.201 C 
ENDBRANCH  17  18
ENDBRANCH  16  17
ENDBRANCH  13  16
ENDBRANCH   1  12
BRANCH   8  20
HETATM   20  C   UNL     1     -42.859  57.043 -51.989  1.00  0.00     0.409 C 
HETATM   21  F   UNL     1     -42.776  56.308 -50.859  1.00  0.00    -0.169 F 
HETATM   22  F   UNL     1     -43.000  58.337 -51.599  1.00  0.00    -0.169 F 
HETATM   23  F   UNL     1     -44.009  56.706 -52.614  1.00  0.00    -0.169 F 
ENDBRANCH   8  20
BRANCH   6  24
HETATM   24  C   UNL     1     -41.010  53.097 -53.328  1.00  0.00    -0.035 A 
HETATM   25  C   UNL     1     -41.015  52.172 -54.386  1.00  0.00     0.009 A 
HETATM   26  C   UNL     1     -40.314  50.969 -54.283  1.00  0.00     0.001 A 
HETATM   27  C   UNL     1     -39.593  50.677 -53.127  1.00  0.00     0.000 A 
HETATM   28  C   UNL     1     -39.571  51.588 -52.073  1.00  0.00     0.001 A 
HETATM   29  C   UNL     1     -40.273  52.791 -52.173  1.00  0.00     0.009 A 
ENDBRANCH   6  24
TORSDOF 6
ENDMDL
MODEL 6
REMARK VINA RESULT:      -7.1      4.933      5.878
REMARK  6 active torsions:
REMARK  status: ('A' for Active; 'I' for Inactive)
REMARK    1  A    between atoms: O_2  and  C_3 
REMARK    2  A    between atoms: C_3  and  C_4 
REMARK    3  A    between atoms: C_4  and  N_5 
REMARK       I    between atoms: N_5  and  C_6 
REMARK    4  A    between atoms: C_6  and  C_7 
REMARK    5  A    between atoms: C_12  and  C_13 
REMARK    6  A    between atoms: C_20  and  C_21 
ROOT
HETATM    1  C   UNL     1     -43.257  57.908 -56.640  1.00  0.00     0.165 A 
HETATM    2  N   UNL     1     -42.947  58.365 -55.399  1.00  0.00    -0.163 NA
HETATM    3  N   UNL     1     -42.592  57.257 -54.727  1.00  0.00    -0.238 N 
HETATM    4  C   UNL     1     -42.602  56.115 -55.479  1.00  0.00     0.141 A 
HETATM    5  N   UNL     1     -42.209  54.928 -54.956  1.00  0.00    -0.365 N 
HETATM    6  C   UNL     1     -41.982  54.783 -53.520  1.00  0.00     0.118 C 
HETATM    7  C   UNL     1     -41.359  56.077 -52.967  1.00  0.00     0.066 C 
HETATM    8  C   UNL     1     -42.215  57.306 -53.326  1.00  0.00     0.221 C 
HETATM    9  C   UNL     1     -43.040  56.507 -56.718  1.00  0.00     0.092 A 
HETATM   10 BR   UNL     1     -43.288  55.399 -58.209  1.00  0.00    -0.044 Br
HETATM   11  H   UNL     1     -42.404  54.060 -55.457  1.00  0.00     0.162 HD
ENDROOT
BRANCH   1  12
HETATM   12  C   UNL     1     -43.738  58.833 -57.681  1.00  0.00     0.273 C 
HETATM   13  N   UNL     1     -45.026  58.562 -58.091  1.00  0.00    -0.353 N 
HETATM   14  H   UNL     1     -45.533  57.881 -57.528  1.00  0.00     0.162 HD
HETATM   15  O   UNL     1     -43.071  59.753 -58.143  1.00  0.00    -0.266 OA
BRANCH  13  16
HETATM   16  C   UNL     1     -45.776  59.444 -58.959  1.00  0.00     0.149 C 
BRANCH  16  17
HETATM   17  C   UNL     1     -46.658  58.658 -59.926  1.00  0.00     0.186 C 
BRANCH  17  18
HETATM   18  O   UNL     1     -46.972  57.386 -59.348  1.00  0.00    -0.394 OA
HETATM   19  C   UNL     1     -46.954  56.352 -60.325  1.00  0.00     0.201 C 
ENDBRANCH  17  18
ENDBRANCH  16  17
ENDBRANCH  13  16
ENDBRANCH   1  12
BRANCH   8  20
HETATM   20  C   UNL     1     -43.455  57.408 -52.465  1.00  0.00     0.409 C 
HETATM   21  F   UNL     1     -43.786  58.682 -52.161  1.00  0.00    -0.169 F 
HETATM   22  F   UNL     1     -44.519  56.878 -53.123  1.00  0.00    -0.169 F 
HETATM   23  F   UNL     1     -43.345  56.725 -51.304  1.00  0.00    -0.169 F 
ENDBRANCH   8  20
BRANCH   6  24
HETATM   24  C   UNL     1     -41.086  53.590 -53.239  1.00  0.00    -0.035 A 
HETATM   25  C   UNL     1     -40.553  53.352 -51.962  1.00  0.00     0.009 A 
HETATM   26  C   UNL     1     -39.750  52.236 -51.722  1.00  0.00     0.001 A 
HETATM   27  C   UNL     1     -39.477  51.338 -52.752  1.00  0.00     0.000 A 
HETATM   28  C   UNL     1     -40.007  51.555 -54.022  1.00  0.00     0.001 A 
HETATM   29  C   UNL     1     -40.807  52.673 -54.264  1.00  0.00     0.009 A 
ENDBRANCH   6  24
TORSDOF 6
ENDMDL
MODEL 7
REMARK VINA RESULT:      -7.0      3.922      4.985
REMARK  6 active torsions:
REMARK  status: ('A' for Active; 'I' for Inactive)
REMARK    1  A    between atoms: O_2  and  C_3 
REMARK    2  A    between atoms: C_3  and  C_4 
REMARK    3  A    between atoms: C_4  and  N_5 
REMARK       I    between atoms: N_5  and  C_6 
REMARK    4  A    between atoms: C_6  and  C_7 
REMARK    5  A    between atoms: C_12  and  C_13 
REMARK    6  A    between atoms: C_20  and  C_21 
ROOT
HETATM    1  C   UNL     1     -42.785  58.896 -52.974  1.00  0.00     0.165 A 
HETATM    2  N   UNL     1     -43.549  58.139 -53.803  1.00  0.00    -0.163 NA
HETATM    3  N   UNL     1     -42.871  56.984 -53.901  1.00  0.00    -0.238 N 
HETATM    4  C   UNL     1     -41.737  56.930 -53.138  1.00  0.00     0.141 A 
HETATM    5  N   UNL     1     -40.980  55.807 -53.085  1.00  0.00    -0.365 N 
HETATM    6  C   UNL     1     -41.217  54.701 -54.010  1.00  0.00     0.118 C 
HETATM    7  C   UNL     1     -42.729  54.563 -54.265  1.00  0.00     0.066 C 
HETATM    8  C   UNL     1     -43.340  55.895 -54.739  1.00  0.00     0.221 C 
HETATM    9  C   UNL     1     -41.653  58.160 -52.537  1.00  0.00     0.092 A 
HETATM   10 BR   UNL     1     -40.306  58.733 -51.367  1.00  0.00    -0.044 Br
HETATM   11  H   UNL     1     -40.045  55.840 -52.676  1.00  0.00     0.162 HD
ENDROOT
BRANCH   1  12
HETATM   12  C   UNL     1     -43.180  60.276 -52.643  1.00  0.00     0.273 C 
HETATM   13  N   UNL     1     -42.772  61.196 -53.585  1.00  0.00    -0.353 N 
HETATM   14  H   UNL     1     -42.402  60.805 -54.450  1.00  0.00     0.162 HD
HETATM   15  O   UNL     1     -43.807  60.588 -51.636  1.00  0.00    -0.266 OA
BRANCH  13  16
HETATM   16  C   UNL     1     -43.205  62.577 -53.574  1.00  0.00     0.149 C 
BRANCH  16  17
HETATM   17  C   UNL     1     -44.225  62.850 -54.677  1.00  0.00     0.186 C 
BRANCH  17  18
HETATM   18  O   UNL     1     -43.537  63.029 -55.920  1.00  0.00    -0.394 OA
HETATM   19  C   UNL     1     -43.024  64.350 -56.046  1.00  0.00     0.201 C 
ENDBRANCH  17  18
ENDBRANCH  16  17
ENDBRANCH  13  16
ENDBRANCH   1  12
BRANCH   8  20
HETATM   20  C   UNL     1     -43.014  56.187 -56.188  1.00  0.00     0.409 C 
HETATM   21  F   UNL     1     -42.898  55.071 -56.940  1.00  0.00    -0.169 F 
HETATM   22  F   UNL     1     -44.008  56.927 -56.745  1.00  0.00    -0.169 F 
HETATM   23  F   UNL     1     -41.877  56.901 -56.336  1.00  0.00    -0.169 F 
ENDBRANCH   8  20
BRANCH   6  24
HETATM   24  C   UNL     1     -40.643  53.410 -53.458  1.00  0.00    -0.035 A 
HETATM   25  C   UNL     1     -40.274  52.347 -54.299  1.00  0.00     0.009 A 
HETATM   26  C   UNL     1     -39.725  51.178 -53.769  1.00  0.00     0.001 A 
HETATM   27  C   UNL     1     -39.531  51.057 -52.394  1.00  0.00     0.000 A 
HETATM   28  C   UNL     1     -39.884  52.107 -51.548  1.00  0.00     0.001 A 
HETATM   29  C   UNL     1     -40.435  53.276 -52.076  1.00  0.00     0.009 A 
ENDBRANCH   6  24
TORSDOF 6
ENDMDL
MODEL 8
REMARK VINA RESULT:      -7.0      7.208     10.004
REMARK  6 active torsions:
REMARK  status: ('A' for Active; 'I' for Inactive)
REMARK    1  A    between atoms: O_2  and  C_3 
REMARK    2  A    between atoms: C_3  and  C_4 
REMARK    3  A    between atoms: C_4  and  N_5 
REMARK       I    between atoms: N_5  and  C_6 
REMARK    4  A    between atoms: C_6  and  C_7 
REMARK    5  A    between atoms: C_12  and  C_13 
REMARK    6  A    between atoms: C_20  and  C_21 
ROOT
HETATM    1  C   UNL     1     -42.738  55.674 -55.893  1.00  0.00     0.165 A 
HETATM    2  N   UNL     1     -42.752  55.206 -57.168  1.00  0.00    -0.163 NA
HETATM    3  N   UNL     1     -42.723  56.318 -57.920  1.00  0.00    -0.238 N 
HETATM    4  C   UNL     1     -42.635  57.480 -57.204  1.00  0.00     0.141 A 
HETATM    5  N   UNL     1     -42.536  58.681 -57.825  1.00  0.00    -0.365 N 
HETATM    6  C   UNL     1     -42.747  58.797 -59.266  1.00  0.00     0.118 C 
HETATM    7  C   UNL     1     -42.178  57.551 -59.968  1.00  0.00     0.066 C 
HETATM    8  C   UNL     1     -42.761  56.257 -59.370  1.00  0.00     0.221 C 
HETATM    9  C   UNL     1     -42.655  57.090 -55.889  1.00  0.00     0.092 A 
HETATM   10 BR   UNL     1     -42.580  58.221 -54.396  1.00  0.00    -0.044 Br
HETATM   11  H   UNL     1     -42.668  59.542 -57.294  1.00  0.00     0.162 HD
ENDROOT
BRANCH   1  12
HETATM   12  C   UNL     1     -42.801  54.743 -54.753  1.00  0.00     0.273 C 
HETATM   13  N   UNL     1     -41.607  54.094 -54.519  1.00  0.00    -0.353 N 
HETATM   14  H   UNL     1     -40.806  54.444 -55.041  1.00  0.00     0.162 HD
HETATM   15  O   UNL     1     -43.804  54.557 -54.073  1.00  0.00    -0.266 OA
BRANCH  13  16
HETATM   16  C   UNL     1     -41.371  53.282 -53.345  1.00  0.00     0.149 C 
BRANCH  16  17
HETATM   17  C   UNL     1     -40.236  52.286 -53.574  1.00  0.00     0.186 C 
BRANCH  17  18
HETATM   18  O   UNL     1     -40.720  51.196 -54.365  1.00  0.00    -0.394 OA
HETATM   19  C   UNL     1     -39.799  50.111 -54.374  1.00  0.00     0.201 C 
ENDBRANCH  17  18
ENDBRANCH  16  17
ENDBRANCH  13  16
ENDBRANCH   1  12
BRANCH   8  20
HETATM   20  C   UNL     1     -44.178  56.003 -59.835  1.00  0.00     0.409 C 
HETATM   21  F   UNL     1     -44.493  54.691 -59.885  1.00  0.00    -0.169 F 
HETATM   22  F   UNL     1     -45.057  56.579 -58.974  1.00  0.00    -0.169 F 
HETATM   23  F   UNL     1     -44.434  56.532 -61.052  1.00  0.00    -0.169 F 
ENDBRANCH   8  20
BRANCH   6  24
HETATM   24  C   UNL     1     -42.100  60.061 -59.800  1.00  0.00    -0.035 A 
HETATM   25  C   UNL     1     -41.496  60.999 -58.946  1.00  0.00     0.009 A 
HETATM   26  C   UNL     1     -40.886  62.143 -59.463  1.00  0.00     0.001 A 
HETATM   27  C   UNL     1     -40.863  62.362 -60.839  1.00  0.00     0.000 A 
HETATM   28  C   UNL     1     -41.449  61.435 -61.699  1.00  0.00     0.001 A 
HETATM   29  C   UNL     1     -42.062  60.292 -61.184  1.00  0.00     0.009 A 
ENDBRANCH   6  24
TORSDOF 6
ENDMDL
MODEL 9
REMARK VINA RESULT:      -6.9      1.852      2.307
REMARK  6 active torsions:
REMARK  status: ('A' for Active; 'I' for Inactive)
REMARK    1  A    between atoms: O_2  and  C_3 
REMARK    2  A    between atoms: C_3  and  C_4 
REMARK    3  A    between atoms: C_4  and  N_5 
REMARK       I    between atoms: N_5  and  C_6 
REMARK    4  A    between atoms: C_6  and  C_7 
REMARK    5  A    between atoms: C_12  and  C_13 
REMARK    6  A    between atoms: C_20  and  C_21 
ROOT
HETATM    1  C   UNL     1     -41.620  57.735 -53.796  1.00  0.00     0.165 A 
HETATM    2  N   UNL     1     -41.159  57.517 -52.537  1.00  0.00    -0.163 NA
HETATM    3  N   UNL     1     -41.085  56.179 -52.448  1.00  0.00    -0.238 N 
HETATM    4  C   UNL     1     -41.420  55.519 -53.598  1.00  0.00     0.141 A 
HETATM    5  N   UNL     1     -41.335  54.168 -53.681  1.00  0.00    -0.365 N 
HETATM    6  C   UNL     1     -41.105  53.359 -52.487  1.00  0.00     0.118 C 
HETATM    7  C   UNL     1     -40.146  54.104 -51.541  1.00  0.00     0.066 C 
HETATM    8  C   UNL     1     -40.661  55.521 -51.225  1.00  0.00     0.221 C 
HETATM    9  C   UNL     1     -41.781  56.503 -54.482  1.00  0.00     0.092 A 
HETATM   10 BR   UNL     1     -42.363  56.251 -56.246  1.00  0.00    -0.044 Br
HETATM   11  H   UNL     1     -41.768  53.677 -54.464  1.00  0.00     0.162 HD
ENDROOT
BRANCH   1  12
HETATM   12  C   UNL     1     -41.877  59.105 -54.274  1.00  0.00     0.273 C 
HETATM   13  N   UNL     1     -42.581  59.870 -53.369  1.00  0.00    -0.353 N 
HETATM   14  H   UNL     1     -42.693  59.463 -52.442  1.00  0.00     0.162 HD
HETATM   15  O   UNL     1     -41.507  59.532 -55.362  1.00  0.00    -0.266 OA
BRANCH  13  16
HETATM   16  C   UNL     1     -42.784  61.293 -53.533  1.00  0.00     0.149 C 
BRANCH  16  17
HETATM   17  C   UNL     1     -43.354  61.925 -52.265  1.00  0.00     0.186 C 
BRANCH  17  18
HETATM   18  O   UNL     1     -42.666  61.396 -51.126  1.00  0.00    -0.394 OA
HETATM   19  C   UNL     1     -43.542  61.236 -50.017  1.00  0.00     0.201 C 
ENDBRANCH  17  18
ENDBRANCH  16  17
ENDBRANCH  13  16
ENDBRANCH   1  12
BRANCH   8  20
HETATM   20  C   UNL     1     -41.800  55.504 -50.230  1.00  0.00     0.409 C 
HETATM   21  F   UNL     1     -41.799  56.574 -49.405  1.00  0.00    -0.169 F 
HETATM   22  F   UNL     1     -42.989  55.525 -50.889  1.00  0.00    -0.169 F 
HETATM   23  F   UNL     1     -41.809  54.393 -49.462  1.00  0.00    -0.169 F 
ENDBRANCH   8  20
BRANCH   6  24
HETATM   24  C   UNL     1     -40.545  52.000 -52.863  1.00  0.00    -0.035 A 
HETATM   25  C   UNL     1     -40.555  51.539 -54.190  1.00  0.00     0.009 A 
HETATM   26  C   UNL     1     -40.012  50.294 -54.515  1.00  0.00     0.001 A 
HETATM   27  C   UNL     1     -39.446  49.498 -53.521  1.00  0.00     0.000 A 
HETATM   28  C   UNL     1     -39.421  49.945 -52.202  1.00  0.00     0.001 A 
HETATM   29  C   UNL     1     -39.965  51.189 -51.875  1.00  0.00     0.009 A 
ENDBRANCH   6  24
TORSDOF 6
ENDMDL
MODEL 10
REMARK VINA RESULT:      -6.7      4.634      7.442
REMARK  6 active torsions:
REMARK  status: ('A' for Active; 'I' for Inactive)
REMARK    1  A    between atoms: O_2  and  C_3 
REMARK    2  A    between atoms: C_3  and  C_4 
REMARK    3  A    between atoms: C_4  and  N_5 
REMARK       I    between atoms: N_5  and  C_6 
REMARK    4  A    between atoms: C_6  and  C_7 
REMARK    5  A    between atoms: C_12  and  C_13 
REMARK    6  A    between atoms: C_20  and  C_21 
ROOT
HETATM    1  C   UNL     1     -40.933  54.752 -51.970  1.00  0.00     0.165 A 
HETATM    2  N   UNL     1     -41.425  56.008 -51.804  1.00  0.00    -0.163 NA
HETATM    3  N   UNL     1     -41.784  56.380 -53.044  1.00  0.00    -0.238 N 
HETATM    4  C   UNL     1     -41.603  55.415 -53.996  1.00  0.00     0.141 A 
HETATM    5  N   UNL     1     -41.976  55.622 -55.283  1.00  0.00    -0.365 N 
HETATM    6  C   UNL     1     -42.369  56.951 -55.743  1.00  0.00     0.118 C 
HETATM    7  C   UNL     1     -43.142  57.672 -54.624  1.00  0.00     0.066 C 
HETATM    8  C   UNL     1     -42.335  57.696 -53.312  1.00  0.00     0.221 C 
HETATM    9  C   UNL     1     -41.042  54.356 -53.329  1.00  0.00     0.092 A 
HETATM   10 BR   UNL     1     -40.536  52.715 -54.079  1.00  0.00    -0.044 Br
HETATM   11  H   UNL     1     -41.661  54.982 -56.014  1.00  0.00     0.162 HD
ENDROOT
BRANCH   1  12
HETATM   12  C   UNL     1     -40.391  54.002 -50.824  1.00  0.00     0.273 C 
HETATM   13  N   UNL     1     -40.912  52.731 -50.715  1.00  0.00    -0.353 N 
HETATM   14  H   UNL     1     -41.468  52.414 -51.508  1.00  0.00     0.162 HD
HETATM   15  O   UNL     1     -39.561  54.451 -50.041  1.00  0.00    -0.266 OA
BRANCH  13  16
HETATM   16  C   UNL     1     -40.395  51.745 -49.790  1.00  0.00     0.149 C 
BRANCH  16  17
HETATM   17  C   UNL     1     -40.235  50.382 -50.458  1.00  0.00     0.186 C 
BRANCH  17  18
HETATM   18  O   UNL     1     -39.399  50.519 -51.612  1.00  0.00    -0.394 OA
HETATM   19  C   UNL     1     -39.556  49.421 -52.502  1.00  0.00     0.201 C 
ENDBRANCH  17  18
ENDBRANCH  16  17
ENDBRANCH  13  16
ENDBRANCH   1  12
BRANCH   8  20
HETATM   20  C   UNL     1     -41.221  58.720 -53.349  1.00  0.00     0.409 C 
HETATM   21  F   UNL     1     -41.071  59.381 -52.180  1.00  0.00    -0.169 F 
HETATM   22  F   UNL     1     -40.036  58.105 -53.600  1.00  0.00    -0.169 F 
HETATM   23  F   UNL     1     -41.387  59.641 -54.323  1.00  0.00    -0.169 F 
ENDBRANCH   8  20
BRANCH   6  24
HETATM   24  C   UNL     1     -43.209  56.853 -57.003  1.00  0.00    -0.035 A 
HETATM   25  C   UNL     1     -44.228  57.779 -57.284  1.00  0.00     0.009 A 
HETATM   26  C   UNL     1     -44.972  57.682 -58.462  1.00  0.00     0.001 A 
HETATM   27  C   UNL     1     -44.703  56.666 -59.376  1.00  0.00     0.000 A 
HETATM   28  C   UNL     1     -43.689  55.746 -59.116  1.00  0.00     0.001 A 
HETATM   29  C   UNL     1     -42.946  55.840 -57.937  1.00  0.00     0.009 A 
ENDBRANCH   6  24
TORSDOF 6
ENDMDL
