MODEL 1
REMARK VINA RESULT:      -8.3      0.000      0.000
REMARK  8 active torsions:
REMARK  status: ('A' for Active; 'I' for Inactive)
REMARK    1  A    between atoms: O_2  and  C_3 
REMARK    2  A    between atoms: C_6  and  C_7 
REMARK    3  A    between atoms: C_7  and  C_8 
REMARK    4  A    between atoms: C_8  and  C_9 
REMARK    5  A    between atoms: C_11  and  N_12 
REMARK       I    between atoms: N_12  and  C_13 
REMARK    6  A    between atoms: C_13  and  C_14 
REMARK    7  A    between atoms: C_18  and  C_19 
REMARK    8  A    between atoms: C_20  and  O_21 
ROOT
HETATM    1  N   UNL     1     -43.093  57.086 -51.820  1.00  0.00    -0.149 N 
HETATM    2  C   UNL     1     -43.033  56.815 -53.164  1.00  0.00     0.290 C 
HETATM    3  O   UNL     1     -43.690  57.341 -54.056  1.00  0.00    -0.265 OA
HETATM    4  H   UNL     1     -42.502  56.550 -51.200  1.00  0.00     0.188 HD
ENDROOT
BRANCH   1   5
HETATM    5  C   UNL     1     -43.892  58.030 -51.251  1.00  0.00     0.747 A 
HETATM    6  N   UNL     1     -43.416  59.311 -51.112  1.00  0.00    -0.046 NA
HETATM    7  C   UNL     1     -44.418  59.957 -50.551  1.00  0.00     0.140 A 
HETATM    8  N   UNL     1     -45.454  59.086 -50.380  1.00  0.00    -0.248 N 
HETATM    9  N   UNL     1     -45.135  57.863 -50.800  1.00  0.00     0.020 NA
HETATM   10  H   UNL     1     -46.374  59.249 -49.988  1.00  0.00     0.191 HD
BRANCH   7  11
HETATM   11  C   UNL     1     -44.512  61.392 -50.166  1.00  0.00     0.085 C 
BRANCH  11  12
HETATM   12  C   UNL     1     -45.811  61.690 -49.408  1.00  0.00     0.046 C 
BRANCH  12  13
HETATM   13  C   UNL     1     -45.570  62.052 -47.962  1.00  0.00    -0.058 A 
HETATM   14  C   UNL     1     -45.164  61.071 -47.048  1.00  0.00     0.010 A 
HETATM   15  C   UNL     1     -44.908  61.397 -45.711  1.00  0.00     0.037 A 
HETATM   16  C   UNL     1     -45.052  62.712 -45.274  1.00  0.00     0.068 A 
HETATM   17  C   UNL     1     -45.478  63.688 -46.177  1.00  0.00     0.037 A 
HETATM   18  C   UNL     1     -45.735  63.364 -47.513  1.00  0.00     0.010 A 
BRANCH  16  19
HETATM   19  O   UNL     1     -44.816  63.165 -44.004  1.00  0.00    -0.356 OA
HETATM   20  C   UNL     1     -43.879  62.428 -43.228  1.00  0.00     0.210 C 
ENDBRANCH  16  19
ENDBRANCH  12  13
ENDBRANCH  11  12
ENDBRANCH   7  11
ENDBRANCH   1   5
BRANCH   2  21
HETATM   21  C   UNL     1     -42.057  55.758 -53.482  1.00  0.00     0.147 A 
HETATM   22  N   UNL     1     -41.015  55.941 -54.314  1.00  0.00    -0.169 NA
HETATM   23  N   UNL     1     -40.403  54.739 -54.325  1.00  0.00    -0.277 N 
HETATM   24  H   UNL     1     -39.578  54.609 -54.903  1.00  0.00     0.189 HD
HETATM   25  C   UNL     1     -40.981  53.786 -53.521  1.00  0.00     0.065 A 
HETATM   26  C   UNL     1     -42.071  54.435 -52.972  1.00  0.00     0.071 A 
BRANCH  25  27
HETATM   27  C   UNL     1     -40.465  52.414 -53.354  1.00  0.00     0.025 A 
HETATM   28  C   UNL     1     -39.808  51.967 -52.182  1.00  0.00     0.080 A 
HETATM   29  C   UNL     1     -39.357  50.639 -52.103  1.00  0.00     0.037 A 
HETATM   30  C   UNL     1     -39.543  49.756 -53.167  1.00  0.00     0.003 A 
HETATM   31  C   UNL     1     -40.185  50.184 -54.320  1.00  0.00     0.001 A 
HETATM   32  C   UNL     1     -40.640  51.500 -54.410  1.00  0.00     0.016 A 
BRANCH  28  33
HETATM   33  O   UNL     1     -39.650  52.880 -51.164  1.00  0.00    -0.355 OA
HETATM   34  C   UNL     1     -40.447  52.706 -49.997  1.00  0.00     0.210 C 
ENDBRANCH  28  33
ENDBRANCH  25  27
ENDBRANCH   2  21
TORSDOF 8
ENDMDL
MODEL 2
REMARK VINA RESULT:      -8.2      5.697      8.462
REMARK  8 active torsions:
REMARK  status: ('A' for Active; 'I' for Inactive)
REMARK    1  A    between atoms: O_2  and  C_3 
REMARK    2  A    between atoms: C_6  and  C_7 
REMARK    3  A    between atoms: C_7  and  C_8 
REMARK    4  A    between atoms: C_8  and  C_9 
REMARK    5  A    between atoms: C_11  and  N_12 
REMARK       I    between atoms: N_12  and  C_13 
REMARK    6  A    between atoms: C_13  and  C_14 
REMARK    7  A    between atoms: C_18  and  C_19 
REMARK    8  A    between atoms: C_20  and  O_21 
ROOT
HETATM    1  N   UNL     1     -41.355  57.666 -53.871  1.00  0.00    -0.149 N 
HETATM    2  C   UNL     1     -42.248  56.686 -53.517  1.00  0.00     0.290 C 
HETATM    3  O   UNL     1     -43.471  56.734 -53.593  1.00  0.00    -0.265 OA
HETATM    4  H   UNL     1     -40.371  57.487 -53.728  1.00  0.00     0.188 HD
ENDROOT
BRANCH   1   5
HETATM    5  C   UNL     1     -41.694  58.870 -54.408  1.00  0.00     0.747 A 
HETATM    6  N   UNL     1     -42.085  58.928 -55.724  1.00  0.00    -0.046 NA
HETATM    7  C   UNL     1     -42.347  60.205 -55.916  1.00  0.00     0.140 A 
HETATM    8  N   UNL     1     -42.130  60.872 -54.746  1.00  0.00    -0.248 N 
HETATM    9  N   UNL     1     -41.702  60.050 -53.789  1.00  0.00     0.020 NA
HETATM   10  H   UNL     1     -42.240  61.858 -54.537  1.00  0.00     0.191 HD
BRANCH   7  11
HETATM   11  C   UNL     1     -42.832  60.889 -57.145  1.00  0.00     0.085 C 
BRANCH  11  12
HETATM   12  C   UNL     1     -42.028  60.468 -58.381  1.00  0.00     0.046 C 
BRANCH  12  13
HETATM   13  C   UNL     1     -42.601  59.248 -59.060  1.00  0.00    -0.058 A 
HETATM   14  C   UNL     1     -43.937  59.239 -59.484  1.00  0.00     0.010 A 
HETATM   15  C   UNL     1     -44.473  58.126 -60.141  1.00  0.00     0.037 A 
HETATM   16  C   UNL     1     -43.678  57.009 -60.386  1.00  0.00     0.068 A 
HETATM   17  C   UNL     1     -42.353  57.006 -59.943  1.00  0.00     0.037 A 
HETATM   18  C   UNL     1     -41.815  58.115 -59.286  1.00  0.00     0.010 A 
BRANCH  16  19
HETATM   19  O   UNL     1     -44.074  55.869 -61.032  1.00  0.00    -0.356 OA
HETATM   20  C   UNL     1     -45.362  55.365 -60.703  1.00  0.00     0.210 C 
ENDBRANCH  16  19
ENDBRANCH  12  13
ENDBRANCH  11  12
ENDBRANCH   7  11
ENDBRANCH   1   5
BRANCH   2  21
HETATM   21  C   UNL     1     -41.582  55.484 -52.985  1.00  0.00     0.147 A 
HETATM   22  N   UNL     1     -41.092  55.403 -51.734  1.00  0.00    -0.169 NA
HETATM   23  N   UNL     1     -40.571  54.160 -51.677  1.00  0.00    -0.277 N 
HETATM   24  H   UNL     1     -40.117  53.853 -50.822  1.00  0.00     0.189 HD
HETATM   25  C   UNL     1     -40.719  53.416 -52.822  1.00  0.00     0.065 A 
HETATM   26  C   UNL     1     -41.368  54.272 -53.691  1.00  0.00     0.071 A 
BRANCH  25  27
HETATM   27  C   UNL     1     -40.255  52.024 -52.976  1.00  0.00     0.025 A 
HETATM   28  C   UNL     1     -39.902  51.196 -51.883  1.00  0.00     0.080 A 
HETATM   29  C   UNL     1     -39.479  49.878 -52.119  1.00  0.00     0.037 A 
HETATM   30  C   UNL     1     -39.398  49.374 -53.418  1.00  0.00     0.003 A 
HETATM   31  C   UNL     1     -39.740  50.177 -54.496  1.00  0.00     0.001 A 
HETATM   32  C   UNL     1     -40.164  51.488 -54.274  1.00  0.00     0.016 A 
BRANCH  28  33
HETATM   33  O   UNL     1     -40.001  51.743 -50.623  1.00  0.00    -0.355 OA
HETATM   34  C   UNL     1     -40.473  50.902 -49.576  1.00  0.00     0.210 C 
ENDBRANCH  28  33
ENDBRANCH  25  27
ENDBRANCH   2  21
TORSDOF 8
ENDMDL
MODEL 3
REMARK VINA RESULT:      -8.2      6.792     10.222
REMARK  8 active torsions:
REMARK  status: ('A' for Active; 'I' for Inactive)
REMARK    1  A    between atoms: O_2  and  C_3 
REMARK    2  A    between atoms: C_6  and  C_7 
REMARK    3  A    between atoms: C_7  and  C_8 
REMARK    4  A    between atoms: C_8  and  C_9 
REMARK    5  A    between atoms: C_11  and  N_12 
REMARK       I    between atoms: N_12  and  C_13 
REMARK    6  A    between atoms: C_13  and  C_14 
REMARK    7  A    between atoms: C_18  and  C_19 
REMARK    8  A    between atoms: C_20  and  O_21 
ROOT
HETATM    1  N   UNL     1     -42.411  55.465 -57.479  1.00  0.00    -0.149 N 
HETATM    2  C   UNL     1     -42.508  56.006 -56.220  1.00  0.00     0.290 C 
HETATM    3  O   UNL     1     -43.146  56.998 -55.886  1.00  0.00    -0.265 OA
HETATM    4  H   UNL     1     -41.824  54.653 -57.603  1.00  0.00     0.188 HD
ENDROOT
BRANCH   1   5
HETATM    5  C   UNL     1     -43.053  55.941 -58.581  1.00  0.00     0.747 A 
HETATM    6  N   UNL     1     -44.102  55.225 -59.104  1.00  0.00    -0.046 NA
HETATM    7  C   UNL     1     -44.495  55.951 -60.130  1.00  0.00     0.140 A 
HETATM    8  N   UNL     1     -43.709  57.065 -60.199  1.00  0.00    -0.248 N 
HETATM    9  N   UNL     1     -42.784  57.067 -59.241  1.00  0.00     0.020 NA
HETATM   10  H   UNL     1     -43.741  57.834 -60.858  1.00  0.00     0.191 HD
BRANCH   7  11
HETATM   11  C   UNL     1     -45.610  55.702 -61.085  1.00  0.00     0.085 C 
BRANCH  11  12
HETATM   12  C   UNL     1     -46.965  56.095 -60.486  1.00  0.00     0.046 C 
BRANCH  12  13
HETATM   13  C   UNL     1     -47.662  57.172 -61.281  1.00  0.00    -0.058 A 
HETATM   14  C   UNL     1     -48.535  56.829 -62.322  1.00  0.00     0.010 A 
HETATM   15  C   UNL     1     -49.210  57.816 -63.048  1.00  0.00     0.037 A 
HETATM   16  C   UNL     1     -49.023  59.161 -62.738  1.00  0.00     0.068 A 
HETATM   17  C   UNL     1     -48.136  59.508 -61.717  1.00  0.00     0.037 A 
HETATM   18  C   UNL     1     -47.459  58.524 -60.991  1.00  0.00     0.010 A 
BRANCH  16  19
HETATM   19  O   UNL     1     -49.635  60.218 -63.356  1.00  0.00    -0.356 OA
HETATM   20  C   UNL     1     -50.728  60.813 -62.669  1.00  0.00     0.210 C 
ENDBRANCH  16  19
ENDBRANCH  12  13
ENDBRANCH  11  12
ENDBRANCH   7  11
ENDBRANCH   1   5
BRANCH   2  21
HETATM   21  C   UNL     1     -41.719  55.258 -55.226  1.00  0.00     0.147 A 
HETATM   22  N   UNL     1     -40.991  55.853 -54.261  1.00  0.00    -0.169 NA
HETATM   23  N   UNL     1     -40.436  54.817 -53.598  1.00  0.00    -0.277 N 
HETATM   24  H   UNL     1     -39.815  55.006 -52.817  1.00  0.00     0.189 HD
HETATM   25  C   UNL     1     -40.785  53.574 -54.067  1.00  0.00     0.065 A 
HETATM   26  C   UNL     1     -41.614  53.846 -55.139  1.00  0.00     0.071 A 
BRANCH  25  27
HETATM   27  C   UNL     1     -40.323  52.303 -53.478  1.00  0.00     0.025 A 
HETATM   28  C   UNL     1     -39.926  52.171 -52.125  1.00  0.00     0.080 A 
HETATM   29  C   UNL     1     -39.509  50.919 -51.644  1.00  0.00     0.037 A 
HETATM   30  C   UNL     1     -39.476  49.804 -52.482  1.00  0.00     0.003 A 
HETATM   31  C   UNL     1     -39.862  49.924 -53.810  1.00  0.00     0.001 A 
HETATM   32  C   UNL     1     -40.281  51.161 -54.300  1.00  0.00     0.016 A 
BRANCH  28  33
HETATM   33  O   UNL     1     -39.978  53.302 -51.342  1.00  0.00    -0.355 OA
HETATM   34  C   UNL     1     -40.464  53.159 -50.012  1.00  0.00     0.210 C 
ENDBRANCH  28  33
ENDBRANCH  25  27
ENDBRANCH   2  21
TORSDOF 8
ENDMDL
MODEL 4
REMARK VINA RESULT:      -8.2      1.395      2.205
REMARK  8 active torsions:
REMARK  status: ('A' for Active; 'I' for Inactive)
REMARK    1  A    between atoms: O_2  and  C_3 
REMARK    2  A    between atoms: C_6  and  C_7 
REMARK    3  A    between atoms: C_7  and  C_8 
REMARK    4  A    between atoms: C_8  and  C_9 
REMARK    5  A    between atoms: C_11  and  N_12 
REMARK       I    between atoms: N_12  and  C_13 
REMARK    6  A    between atoms: C_13  and  C_14 
REMARK    7  A    between atoms: C_18  and  C_19 
REMARK    8  A    between atoms: C_20  and  O_21 
ROOT
HETATM    1  N   UNL     1     -43.937  59.013 -51.426  1.00  0.00    -0.149 N 
HETATM    2  C   UNL     1     -44.117  57.661 -51.271  1.00  0.00     0.290 C 
HETATM    3  O   UNL     1     -45.051  57.097 -50.710  1.00  0.00    -0.265 OA
HETATM    4  H   UNL     1     -43.100  59.330 -51.894  1.00  0.00     0.188 HD
ENDROOT
BRANCH   1   5
HETATM    5  C   UNL     1     -44.807  59.969 -50.998  1.00  0.00     0.747 A 
HETATM    6  N   UNL     1     -44.534  60.648 -49.836  1.00  0.00    -0.046 NA
HETATM    7  C   UNL     1     -45.544  61.486 -49.720  1.00  0.00     0.140 A 
HETATM    8  N   UNL     1     -46.375  61.314 -50.788  1.00  0.00    -0.248 N 
HETATM    9  N   UNL     1     -45.935  60.350 -51.596  1.00  0.00     0.020 NA
HETATM   10  H   UNL     1     -47.237  61.796 -51.017  1.00  0.00     0.191 HD
BRANCH   7  11
HETATM   11  C   UNL     1     -45.803  62.504 -48.665  1.00  0.00     0.085 C 
BRANCH  11  12
HETATM   12  C   UNL     1     -46.439  61.877 -47.419  1.00  0.00     0.046 C 
BRANCH  12  13
HETATM   13  C   UNL     1     -45.593  62.055 -46.182  1.00  0.00    -0.058 A 
HETATM   14  C   UNL     1     -45.534  63.300 -45.541  1.00  0.00     0.010 A 
HETATM   15  C   UNL     1     -44.777  63.472 -44.376  1.00  0.00     0.037 A 
HETATM   16  C   UNL     1     -44.073  62.398 -43.835  1.00  0.00     0.068 A 
HETATM   17  C   UNL     1     -44.112  61.162 -44.485  1.00  0.00     0.037 A 
HETATM   18  C   UNL     1     -44.866  60.988 -45.649  1.00  0.00     0.010 A 
BRANCH  16  19
HETATM   19  O   UNL     1     -43.315  62.429 -42.697  1.00  0.00    -0.356 OA
HETATM   20  C   UNL     1     -43.339  63.637 -41.947  1.00  0.00     0.210 C 
ENDBRANCH  16  19
ENDBRANCH  12  13
ENDBRANCH  11  12
ENDBRANCH   7  11
ENDBRANCH   1   5
BRANCH   2  21
HETATM   21  C   UNL     1     -43.017  56.876 -51.860  1.00  0.00     0.147 A 
HETATM   22  N   UNL     1     -42.031  57.424 -52.596  1.00  0.00    -0.169 NA
HETATM   23  N   UNL     1     -41.265  56.366 -52.935  1.00  0.00    -0.277 N 
HETATM   24  H   UNL     1     -40.446  56.515 -53.517  1.00  0.00     0.189 HD
HETATM   25  C   UNL     1     -41.689  55.158 -52.436  1.00  0.00     0.065 A 
HETATM   26  C   UNL     1     -42.841  55.475 -51.740  1.00  0.00     0.071 A 
BRANCH  25  27
HETATM   27  C   UNL     1     -40.991  53.877 -52.652  1.00  0.00     0.025 A 
HETATM   28  C   UNL     1     -40.154  53.273 -51.683  1.00  0.00     0.080 A 
HETATM   29  C   UNL     1     -39.534  52.046 -51.968  1.00  0.00     0.037 A 
HETATM   30  C   UNL     1     -39.729  51.415 -53.198  1.00  0.00     0.003 A 
HETATM   31  C   UNL     1     -40.546  51.999 -54.155  1.00  0.00     0.001 A 
HETATM   32  C   UNL     1     -41.169  53.217 -53.883  1.00  0.00     0.016 A 
BRANCH  28  33
HETATM   33  O   UNL     1     -39.997  53.938 -50.487  1.00  0.00    -0.355 OA
HETATM   34  C   UNL     1     -40.521  53.320 -49.317  1.00  0.00     0.210 C 
ENDBRANCH  28  33
ENDBRANCH  25  27
ENDBRANCH   2  21
TORSDOF 8
ENDMDL
MODEL 5
REMARK VINA RESULT:      -8.1      2.237      4.348
REMARK  8 active torsions:
REMARK  status: ('A' for Active; 'I' for Inactive)
REMARK    1  A    between atoms: O_2  and  C_3 
REMARK    2  A    between atoms: C_6  and  C_7 
REMARK    3  A    between atoms: C_7  and  C_8 
REMARK    4  A    between atoms: C_8  and  C_9 
REMARK    5  A    between atoms: C_11  and  N_12 
REMARK       I    between atoms: N_12  and  C_13 
REMARK    6  A    between atoms: C_13  and  C_14 
REMARK    7  A    between atoms: C_18  and  C_19 
REMARK    8  A    between atoms: C_20  and  O_21 
ROOT
HETATM    1  N   UNL     1     -44.790  60.041 -49.889  1.00  0.00    -0.149 N 
HETATM    2  C   UNL     1     -45.358  58.971 -50.534  1.00  0.00     0.290 C 
HETATM    3  O   UNL     1     -46.523  58.594 -50.461  1.00  0.00    -0.265 OA
HETATM    4  H   UNL     1     -43.805  60.214 -50.032  1.00  0.00     0.188 HD
ENDROOT
BRANCH   1   5
HETATM    5  C   UNL     1     -45.456  60.898 -49.067  1.00  0.00     0.747 A 
HETATM    6  N   UNL     1     -45.172  60.891 -47.724  1.00  0.00    -0.046 NA
HETATM    7  C   UNL     1     -45.963  61.824 -47.233  1.00  0.00     0.140 A 
HETATM    8  N   UNL     1     -46.678  62.370 -48.259  1.00  0.00    -0.248 N 
HETATM    9  N   UNL     1     -46.384  61.787 -49.420  1.00  0.00     0.020 NA
HETATM   10  H   UNL     1     -47.368  63.111 -48.238  1.00  0.00     0.191 HD
BRANCH   7  11
HETATM   11  C   UNL     1     -46.100  62.294 -45.827  1.00  0.00     0.085 C 
BRANCH  11  12
HETATM   12  C   UNL     1     -45.228  63.525 -45.555  1.00  0.00     0.046 C 
BRANCH  12  13
HETATM   13  C   UNL     1     -44.826  63.643 -44.105  1.00  0.00    -0.058 A 
HETATM   14  C   UNL     1     -43.831  62.810 -43.578  1.00  0.00     0.010 A 
HETATM   15  C   UNL     1     -43.427  62.929 -42.244  1.00  0.00     0.037 A 
HETATM   16  C   UNL     1     -44.012  63.888 -41.420  1.00  0.00     0.068 A 
HETATM   17  C   UNL     1     -45.020  64.705 -41.936  1.00  0.00     0.037 A 
HETATM   18  C   UNL     1     -45.426  64.587 -43.268  1.00  0.00     0.010 A 
BRANCH  16  19
HETATM   19  O   UNL     1     -43.696  64.118 -40.109  1.00  0.00    -0.356 OA
HETATM   20  C   UNL     1     -44.740  63.938 -39.161  1.00  0.00     0.210 C 
ENDBRANCH  16  19
ENDBRANCH  12  13
ENDBRANCH  11  12
ENDBRANCH   7  11
ENDBRANCH   1   5
BRANCH   2  21
HETATM   21  C   UNL     1     -44.391  58.243 -51.375  1.00  0.00     0.147 A 
HETATM   22  N   UNL     1     -43.731  58.812 -52.402  1.00  0.00    -0.169 NA
HETATM   23  N   UNL     1     -42.976  57.805 -52.889  1.00  0.00    -0.277 N 
HETATM   24  H   UNL     1     -42.384  57.977 -53.696  1.00  0.00     0.189 HD
HETATM   25  C   UNL     1     -43.093  56.613 -52.215  1.00  0.00     0.065 A 
HETATM   26  C   UNL     1     -44.024  56.881 -51.230  1.00  0.00     0.071 A 
BRANCH  25  27
HETATM   27  C   UNL     1     -42.341  55.390 -52.552  1.00  0.00     0.025 A 
HETATM   28  C   UNL     1     -42.381  54.779 -53.829  1.00  0.00     0.080 A 
HETATM   29  C   UNL     1     -41.625  53.619 -54.067  1.00  0.00     0.037 A 
HETATM   30  C   UNL     1     -40.839  53.058 -53.060  1.00  0.00     0.003 A 
HETATM   31  C   UNL     1     -40.794  53.648 -51.805  1.00  0.00     0.001 A 
HETATM   32  C   UNL     1     -41.538  54.801 -51.557  1.00  0.00     0.016 A 
BRANCH  28  33
HETATM   33  O   UNL     1     -43.172  55.374 -54.786  1.00  0.00    -0.355 OA
HETATM   34  C   UNL     1     -42.793  55.209 -56.148  1.00  0.00     0.210 C 
ENDBRANCH  28  33
ENDBRANCH  25  27
ENDBRANCH   2  21
TORSDOF 8
ENDMDL
MODEL 6
REMARK VINA RESULT:      -8.1      6.642      9.542
REMARK  8 active torsions:
REMARK  status: ('A' for Active; 'I' for Inactive)
REMARK    1  A    between atoms: O_2  and  C_3 
REMARK    2  A    between atoms: C_6  and  C_7 
REMARK    3  A    between atoms: C_7  and  C_8 
REMARK    4  A    between atoms: C_8  and  C_9 
REMARK    5  A    between atoms: C_11  and  N_12 
REMARK       I    between atoms: N_12  and  C_13 
REMARK    6  A    between atoms: C_13  and  C_14 
REMARK    7  A    between atoms: C_18  and  C_19 
REMARK    8  A    between atoms: C_20  and  O_21 
ROOT
HETATM    1  N   UNL     1     -42.490  55.858 -57.316  1.00  0.00    -0.149 N 
HETATM    2  C   UNL     1     -42.551  56.413 -56.062  1.00  0.00     0.290 C 
HETATM    3  O   UNL     1     -42.852  57.566 -55.775  1.00  0.00    -0.265 OA
HETATM    4  H   UNL     1     -42.202  54.894 -57.396  1.00  0.00     0.188 HD
ENDROOT
BRANCH   1   5
HETATM    5  C   UNL     1     -42.796  56.511 -58.472  1.00  0.00     0.747 A 
HETATM    6  N   UNL     1     -42.365  57.804 -58.641  1.00  0.00    -0.046 NA
HETATM    7  C   UNL     1     -42.809  58.126 -59.839  1.00  0.00     0.140 A 
HETATM    8  N   UNL     1     -43.466  57.050 -60.362  1.00  0.00    -0.248 N 
HETATM    9  N   UNL     1     -43.482  56.028 -59.507  1.00  0.00     0.020 NA
HETATM   10  H   UNL     1     -43.921  56.949 -61.261  1.00  0.00     0.191 HD
BRANCH   7  11
HETATM   11  C   UNL     1     -42.644  59.401 -60.590  1.00  0.00     0.085 C 
BRANCH  11  12
HETATM   12  C   UNL     1     -42.412  60.587 -59.647  1.00  0.00     0.046 C 
BRANCH  12  13
HETATM   13  C   UNL     1     -41.364  61.543 -60.162  1.00  0.00    -0.058 A 
HETATM   14  C   UNL     1     -40.487  62.176 -59.271  1.00  0.00     0.010 A 
HETATM   15  C   UNL     1     -39.492  63.042 -59.737  1.00  0.00     0.037 A 
HETATM   16  C   UNL     1     -39.358  63.282 -61.103  1.00  0.00     0.068 A 
HETATM   17  C   UNL     1     -40.245  62.670 -61.992  1.00  0.00     0.037 A 
HETATM   18  C   UNL     1     -41.241  61.806 -61.529  1.00  0.00     0.010 A 
BRANCH  16  19
HETATM   19  O   UNL     1     -38.419  64.088 -61.687  1.00  0.00    -0.356 OA
HETATM   20  C   UNL     1     -38.539  64.294 -63.089  1.00  0.00     0.210 C 
ENDBRANCH  16  19
ENDBRANCH  12  13
ENDBRANCH  11  12
ENDBRANCH   7  11
ENDBRANCH   1   5
BRANCH   2  21
HETATM   21  C   UNL     1     -42.187  55.453 -55.005  1.00  0.00     0.147 A 
HETATM   22  N   UNL     1     -42.585  55.578 -53.725  1.00  0.00    -0.169 NA
HETATM   23  N   UNL     1     -42.028  54.511 -53.114  1.00  0.00    -0.277 N 
HETATM   24  H   UNL     1     -42.170  54.383 -52.116  1.00  0.00     0.189 HD
HETATM   25  C   UNL     1     -41.306  53.683 -53.938  1.00  0.00     0.065 A 
HETATM   26  C   UNL     1     -41.390  54.292 -55.175  1.00  0.00     0.071 A 
BRANCH  25  27
HETATM   27  C   UNL     1     -40.637  52.445 -53.494  1.00  0.00     0.025 A 
HETATM   28  C   UNL     1     -40.101  52.273 -52.194  1.00  0.00     0.080 A 
HETATM   29  C   UNL     1     -39.489  51.056 -51.852  1.00  0.00     0.037 A 
HETATM   30  C   UNL     1     -39.397  50.016 -52.778  1.00  0.00     0.003 A 
HETATM   31  C   UNL     1     -39.917  50.175 -54.054  1.00  0.00     0.001 A 
HETATM   32  C   UNL     1     -40.530  51.378 -54.406  1.00  0.00     0.016 A 
BRANCH  28  33
HETATM   33  O   UNL     1     -40.220  53.330 -51.321  1.00  0.00    -0.355 OA
HETATM   34  C   UNL     1     -40.347  53.028 -49.936  1.00  0.00     0.210 C 
ENDBRANCH  28  33
ENDBRANCH  25  27
ENDBRANCH   2  21
TORSDOF 8
ENDMDL
MODEL 7
REMARK VINA RESULT:      -8.0      6.688      8.636
REMARK  8 active torsions:
REMARK  status: ('A' for Active; 'I' for Inactive)
REMARK    1  A    between atoms: O_2  and  C_3 
REMARK    2  A    between atoms: C_6  and  C_7 
REMARK    3  A    between atoms: C_7  and  C_8 
REMARK    4  A    between atoms: C_8  and  C_9 
REMARK    5  A    between atoms: C_11  and  N_12 
REMARK       I    between atoms: N_12  and  C_13 
REMARK    6  A    between atoms: C_13  and  C_14 
REMARK    7  A    between atoms: C_18  and  C_19 
REMARK    8  A    between atoms: C_20  and  O_21 
ROOT
HETATM    1  N   UNL     1     -42.389  55.475 -57.496  1.00  0.00    -0.149 N 
HETATM    2  C   UNL     1     -42.469  56.059 -56.256  1.00  0.00     0.290 C 
HETATM    3  O   UNL     1     -43.058  57.093 -55.959  1.00  0.00    -0.265 OA
HETATM    4  H   UNL     1     -41.844  54.630 -57.589  1.00  0.00     0.188 HD
ENDROOT
BRANCH   1   5
HETATM    5  C   UNL     1     -42.996  55.948 -58.619  1.00  0.00     0.747 A 
HETATM    6  N   UNL     1     -44.149  55.346 -59.059  1.00  0.00    -0.046 NA
HETATM    7  C   UNL     1     -44.472  56.038 -60.132  1.00  0.00     0.140 A 
HETATM    8  N   UNL     1     -43.545  57.024 -60.308  1.00  0.00    -0.248 N 
HETATM    9  N   UNL     1     -42.597  56.972 -59.373  1.00  0.00     0.020 NA
HETATM   10  H   UNL     1     -43.492  57.737 -61.026  1.00  0.00     0.191 HD
BRANCH   7  11
HETATM   11  C   UNL     1     -45.641  55.873 -61.040  1.00  0.00     0.085 C 
BRANCH  11  12
HETATM   12  C   UNL     1     -46.961  56.184 -60.324  1.00  0.00     0.046 C 
BRANCH  12  13
HETATM   13  C   UNL     1     -46.985  57.570 -59.727  1.00  0.00    -0.058 A 
HETATM   14  C   UNL     1     -47.037  58.696 -60.559  1.00  0.00     0.010 A 
HETATM   15  C   UNL     1     -47.091  59.986 -60.020  1.00  0.00     0.037 A 
HETATM   16  C   UNL     1     -47.097  60.165 -58.638  1.00  0.00     0.068 A 
HETATM   17  C   UNL     1     -47.022  59.046 -57.806  1.00  0.00     0.037 A 
HETATM   18  C   UNL     1     -46.967  57.757 -58.342  1.00  0.00     0.010 A 
BRANCH  16  19
HETATM   19  O   UNL     1     -47.165  61.366 -57.986  1.00  0.00    -0.356 OA
HETATM   20  C   UNL     1     -46.864  62.526 -58.752  1.00  0.00     0.210 C 
ENDBRANCH  16  19
ENDBRANCH  12  13
ENDBRANCH  11  12
ENDBRANCH   7  11
ENDBRANCH   1   5
BRANCH   2  21
HETATM   21  C   UNL     1     -41.728  55.303 -55.230  1.00  0.00     0.147 A 
HETATM   22  N   UNL     1     -41.108  55.887 -54.187  1.00  0.00    -0.169 NA
HETATM   23  N   UNL     1     -40.561  54.848 -53.522  1.00  0.00    -0.277 N 
HETATM   24  H   UNL     1     -40.014  55.029 -52.686  1.00  0.00     0.189 HD
HETATM   25  C   UNL     1     -40.815  53.612 -54.066  1.00  0.00     0.065 A 
HETATM   26  C   UNL     1     -41.567  53.895 -55.190  1.00  0.00     0.071 A 
BRANCH  25  27
HETATM   27  C   UNL     1     -40.345  52.338 -53.492  1.00  0.00     0.025 A 
HETATM   28  C   UNL     1     -39.904  52.203 -52.153  1.00  0.00     0.080 A 
HETATM   29  C   UNL     1     -39.482  50.948 -51.684  1.00  0.00     0.037 A 
HETATM   30  C   UNL     1     -39.486  49.832 -52.523  1.00  0.00     0.003 A 
HETATM   31  C   UNL     1     -39.914  49.954 -53.837  1.00  0.00     0.001 A 
HETATM   32  C   UNL     1     -40.338  51.195 -54.314  1.00  0.00     0.016 A 
BRANCH  28  33
HETATM   33  O   UNL     1     -39.921  53.335 -51.369  1.00  0.00    -0.355 OA
HETATM   34  C   UNL     1     -40.632  53.271 -50.137  1.00  0.00     0.210 C 
ENDBRANCH  28  33
ENDBRANCH  25  27
ENDBRANCH   2  21
TORSDOF 8
ENDMDL
MODEL 8
REMARK VINA RESULT:      -8.0      1.658      2.938
REMARK  8 active torsions:
REMARK  status: ('A' for Active; 'I' for Inactive)
REMARK    1  A    between atoms: O_2  and  C_3 
REMARK    2  A    between atoms: C_6  and  C_7 
REMARK    3  A    between atoms: C_7  and  C_8 
REMARK    4  A    between atoms: C_8  and  C_9 
REMARK    5  A    between atoms: C_11  and  N_12 
REMARK       I    between atoms: N_12  and  C_13 
REMARK    6  A    between atoms: C_13  and  C_14 
REMARK    7  A    between atoms: C_18  and  C_19 
REMARK    8  A    between atoms: C_20  and  O_21 
ROOT
HETATM    1  N   UNL     1     -44.032  59.248 -51.019  1.00  0.00    -0.149 N 
HETATM    2  C   UNL     1     -44.408  57.931 -51.113  1.00  0.00     0.290 C 
HETATM    3  O   UNL     1     -45.498  57.448 -50.825  1.00  0.00    -0.265 OA
HETATM    4  H   UNL     1     -43.085  59.491 -51.274  1.00  0.00     0.188 HD
ENDROOT
BRANCH   1   5
HETATM    5  C   UNL     1     -44.844  60.261 -50.610  1.00  0.00     0.747 A 
HETATM    6  N   UNL     1     -44.565  60.904 -49.429  1.00  0.00    -0.046 NA
HETATM    7  C   UNL     1     -45.512  61.816 -49.339  1.00  0.00     0.140 A 
HETATM    8  N   UNL     1     -46.312  61.720 -50.440  1.00  0.00    -0.248 N 
HETATM    9  N   UNL     1     -45.916  60.734 -51.245  1.00  0.00     0.020 NA
HETATM   10  H   UNL     1     -47.125  62.268 -50.694  1.00  0.00     0.191 HD
BRANCH   7  11
HETATM   11  C   UNL     1     -45.734  62.838 -48.279  1.00  0.00     0.085 C 
BRANCH  11  12
HETATM   12  C   UNL     1     -46.370  62.224 -47.027  1.00  0.00     0.046 C 
BRANCH  12  13
HETATM   13  C   UNL     1     -45.516  62.400 -45.795  1.00  0.00    -0.058 A 
HETATM   14  C   UNL     1     -45.439  63.648 -45.162  1.00  0.00     0.010 A 
HETATM   15  C   UNL     1     -44.674  63.819 -44.003  1.00  0.00     0.037 A 
HETATM   16  C   UNL     1     -43.980  62.740 -43.459  1.00  0.00     0.068 A 
HETATM   17  C   UNL     1     -44.036  61.501 -44.100  1.00  0.00     0.037 A 
HETATM   18  C   UNL     1     -44.798  61.328 -45.259  1.00  0.00     0.010 A 
BRANCH  16  19
HETATM   19  O   UNL     1     -43.215  62.770 -42.325  1.00  0.00    -0.356 OA
HETATM   20  C   UNL     1     -43.554  63.749 -41.352  1.00  0.00     0.210 C 
ENDBRANCH  16  19
ENDBRANCH  12  13
ENDBRANCH  11  12
ENDBRANCH   7  11
ENDBRANCH   1   5
BRANCH   2  21
HETATM   21  C   UNL     1     -43.320  57.070 -51.611  1.00  0.00     0.147 A 
HETATM   22  N   UNL     1     -42.443  57.460 -52.555  1.00  0.00    -0.169 NA
HETATM   23  N   UNL     1     -41.646  56.382 -52.711  1.00  0.00    -0.277 N 
HETATM   24  H   UNL     1     -40.895  56.417 -53.394  1.00  0.00     0.189 HD
HETATM   25  C   UNL     1     -41.945  55.316 -51.898  1.00  0.00     0.065 A 
HETATM   26  C   UNL     1     -43.046  55.747 -51.181  1.00  0.00     0.071 A 
BRANCH  25  27
HETATM   27  C   UNL     1     -41.191  54.049 -51.875  1.00  0.00     0.025 A 
HETATM   28  C   UNL     1     -40.790  53.361 -53.046  1.00  0.00     0.080 A 
HETATM   29  C   UNL     1     -40.065  52.163 -52.934  1.00  0.00     0.037 A 
HETATM   30  C   UNL     1     -39.738  51.640 -51.682  1.00  0.00     0.003 A 
HETATM   31  C   UNL     1     -40.127  52.305 -50.528  1.00  0.00     0.001 A 
HETATM   32  C   UNL     1     -40.846  53.497 -50.627  1.00  0.00     0.016 A 
BRANCH  28  33
HETATM   33  O   UNL     1     -41.139  53.921 -54.254  1.00  0.00    -0.355 OA
HETATM   34  C   UNL     1     -40.087  54.236 -55.161  1.00  0.00     0.210 C 
ENDBRANCH  28  33
ENDBRANCH  25  27
ENDBRANCH   2  21
TORSDOF 8
ENDMDL
MODEL 9
REMARK VINA RESULT:      -7.9      2.012     11.026
REMARK  8 active torsions:
REMARK  status: ('A' for Active; 'I' for Inactive)
REMARK    1  A    between atoms: O_2  and  C_3 
REMARK    2  A    between atoms: C_6  and  C_7 
REMARK    3  A    between atoms: C_7  and  C_8 
REMARK    4  A    between atoms: C_8  and  C_9 
REMARK    5  A    between atoms: C_11  and  N_12 
REMARK       I    between atoms: N_12  and  C_13 
REMARK    6  A    between atoms: C_13  and  C_14 
REMARK    7  A    between atoms: C_18  and  C_19 
REMARK    8  A    between atoms: C_20  and  O_21 
ROOT
HETATM    1  N   UNL     1     -44.174  58.544 -52.525  1.00  0.00    -0.149 N 
HETATM    2  C   UNL     1     -44.825  58.502 -51.318  1.00  0.00     0.290 C 
HETATM    3  O   UNL     1     -45.526  57.594 -50.883  1.00  0.00    -0.265 OA
HETATM    4  H   UNL     1     -43.649  59.376 -52.754  1.00  0.00     0.188 HD
ENDROOT
BRANCH   1   5
HETATM    5  C   UNL     1     -44.177  57.541 -53.446  1.00  0.00     0.747 A 
HETATM    6  N   UNL     1     -43.242  56.540 -53.346  1.00  0.00    -0.046 NA
HETATM    7  C   UNL     1     -43.525  55.745 -54.358  1.00  0.00     0.140 A 
HETATM    8  N   UNL     1     -44.602  56.257 -55.022  1.00  0.00    -0.248 N 
HETATM    9  N   UNL     1     -45.016  57.397 -54.471  1.00  0.00     0.020 NA
HETATM   10  H   UNL     1     -45.085  55.899 -55.838  1.00  0.00     0.191 HD
BRANCH   7  11
HETATM   11  C   UNL     1     -42.868  54.474 -54.768  1.00  0.00     0.085 C 
BRANCH  11  12
HETATM   12  C   UNL     1     -41.340  54.584 -54.709  1.00  0.00     0.046 C 
BRANCH  12  13
HETATM   13  C   UNL     1     -40.713  53.516 -53.847  1.00  0.00    -0.058 A 
HETATM   14  C   UNL     1     -40.596  53.705 -52.463  1.00  0.00     0.010 A 
HETATM   15  C   UNL     1     -40.044  52.711 -51.647  1.00  0.00     0.037 A 
HETATM   16  C   UNL     1     -39.606  51.512 -52.206  1.00  0.00     0.068 A 
HETATM   17  C   UNL     1     -39.699  51.330 -53.588  1.00  0.00     0.037 A 
HETATM   18  C   UNL     1     -40.249  52.322 -54.405  1.00  0.00     0.010 A 
BRANCH  16  19
HETATM   19  O   UNL     1     -39.066  50.458 -51.520  1.00  0.00    -0.356 OA
HETATM   20  C   UNL     1     -39.899  49.836 -50.550  1.00  0.00     0.210 C 
ENDBRANCH  16  19
ENDBRANCH  12  13
ENDBRANCH  11  12
ENDBRANCH   7  11
ENDBRANCH   1   5
BRANCH   2  21
HETATM   21  C   UNL     1     -44.616  59.727 -50.524  1.00  0.00     0.147 A 
HETATM   22  N   UNL     1     -43.594  60.578 -50.736  1.00  0.00    -0.169 NA
HETATM   23  N   UNL     1     -43.778  61.532 -49.799  1.00  0.00    -0.277 N 
HETATM   24  H   UNL     1     -43.114  62.299 -49.738  1.00  0.00     0.189 HD
HETATM   25  C   UNL     1     -44.883  61.358 -49.002  1.00  0.00     0.065 A 
HETATM   26  C   UNL     1     -45.434  60.175 -49.457  1.00  0.00     0.071 A 
BRANCH  25  27
HETATM   27  C   UNL     1     -45.295  62.290 -47.936  1.00  0.00     0.025 A 
HETATM   28  C   UNL     1     -45.907  63.541 -48.189  1.00  0.00     0.080 A 
HETATM   29  C   UNL     1     -46.277  64.363 -47.113  1.00  0.00     0.037 A 
HETATM   30  C   UNL     1     -46.045  63.965 -45.795  1.00  0.00     0.003 A 
HETATM   31  C   UNL     1     -45.445  62.742 -45.536  1.00  0.00     0.001 A 
HETATM   32  C   UNL     1     -45.074  61.915 -46.596  1.00  0.00     0.016 A 
BRANCH  28  33
HETATM   33  O   UNL     1     -46.113  63.884 -49.507  1.00  0.00    -0.355 OA
HETATM   34  C   UNL     1     -47.431  63.743 -50.024  1.00  0.00     0.210 C 
ENDBRANCH  28  33
ENDBRANCH  25  27
ENDBRANCH   2  21
TORSDOF 8
ENDMDL
MODEL 10
REMARK VINA RESULT:      -7.9      5.208      9.895
REMARK  8 active torsions:
REMARK  status: ('A' for Active; 'I' for Inactive)
REMARK    1  A    between atoms: O_2  and  C_3 
REMARK    2  A    between atoms: C_6  and  C_7 
REMARK    3  A    between atoms: C_7  and  C_8 
REMARK    4  A    between atoms: C_8  and  C_9 
REMARK    5  A    between atoms: C_11  and  N_12 
REMARK       I    between atoms: N_12  and  C_13 
REMARK    6  A    between atoms: C_13  and  C_14 
REMARK    7  A    between atoms: C_18  and  C_19 
REMARK    8  A    between atoms: C_20  and  O_21 
ROOT
HETATM    1  N   UNL     1     -42.265  57.713 -53.113  1.00  0.00    -0.149 N 
HETATM    2  C   UNL     1     -41.507  58.633 -53.794  1.00  0.00     0.290 C 
HETATM    3  O   UNL     1     -40.453  59.142 -53.427  1.00  0.00    -0.265 OA
HETATM    4  H   UNL     1     -43.127  57.400 -53.537  1.00  0.00     0.188 HD
ENDROOT
BRANCH   1   5
HETATM    5  C   UNL     1     -41.942  57.181 -51.902  1.00  0.00     0.747 A 
HETATM    6  N   UNL     1     -42.178  55.847 -51.674  1.00  0.00    -0.046 NA
HETATM    7  C   UNL     1     -41.750  55.661 -50.442  1.00  0.00     0.140 A 
HETATM    8  N   UNL     1     -41.266  56.845 -49.967  1.00  0.00    -0.248 N 
HETATM    9  N   UNL     1     -41.394  57.818 -50.868  1.00  0.00     0.020 NA
HETATM   10  H   UNL     1     -40.856  57.057 -49.065  1.00  0.00     0.191 HD
BRANCH   7  11
HETATM   11  C   UNL     1     -41.725  54.410 -49.636  1.00  0.00     0.085 C 
BRANCH  11  12
HETATM   12  C   UNL     1     -40.320  53.799 -49.582  1.00  0.00     0.046 C 
BRANCH  12  13
HETATM   13  C   UNL     1     -40.141  52.668 -50.565  1.00  0.00    -0.058 A 
HETATM   14  C   UNL     1     -39.967  52.938 -51.929  1.00  0.00     0.010 A 
HETATM   15  C   UNL     1     -39.770  51.902 -52.847  1.00  0.00     0.037 A 
HETATM   16  C   UNL     1     -39.739  50.579 -52.411  1.00  0.00     0.068 A 
HETATM   17  C   UNL     1     -39.934  50.304 -51.056  1.00  0.00     0.037 A 
HETATM   18  C   UNL     1     -40.133  51.338 -50.136  1.00  0.00     0.010 A 
BRANCH  16  19
HETATM   19  O   UNL     1     -39.536  49.479 -53.200  1.00  0.00    -0.356 OA
HETATM   20  C   UNL     1     -39.731  49.653 -54.597  1.00  0.00     0.210 C 
ENDBRANCH  16  19
ENDBRANCH  12  13
ENDBRANCH  11  12
ENDBRANCH   7  11
ENDBRANCH   1   5
BRANCH   2  21
HETATM   21  C   UNL     1     -42.102  59.002 -55.090  1.00  0.00     0.147 A 
HETATM   22  N   UNL     1     -41.695  60.063 -55.814  1.00  0.00    -0.169 NA
HETATM   23  N   UNL     1     -42.499  60.034 -56.897  1.00  0.00    -0.277 N 
HETATM   24  H   UNL     1     -42.401  60.756 -57.605  1.00  0.00     0.189 HD
HETATM   25  C   UNL     1     -43.395  58.993 -56.928  1.00  0.00     0.065 A 
HETATM   26  C   UNL     1     -43.155  58.316 -55.747  1.00  0.00     0.071 A 
BRANCH  25  27
HETATM   27  C   UNL     1     -44.348  58.748 -58.026  1.00  0.00     0.025 A 
HETATM   28  C   UNL     1     -43.967  58.686 -59.389  1.00  0.00     0.080 A 
HETATM   29  C   UNL     1     -44.939  58.438 -60.371  1.00  0.00     0.037 A 
HETATM   30  C   UNL     1     -46.278  58.255 -60.023  1.00  0.00     0.003 A 
HETATM   31  C   UNL     1     -46.663  58.315 -58.691  1.00  0.00     0.001 A 
HETATM   32  C   UNL     1     -45.706  58.559 -57.705  1.00  0.00     0.016 A 
BRANCH  28  33
HETATM   33  O   UNL     1     -42.634  58.873 -59.676  1.00  0.00    -0.355 OA
HETATM   34  C   UNL     1     -41.929  57.785 -60.265  1.00  0.00     0.210 C 
ENDBRANCH  28  33
ENDBRANCH  25  27
ENDBRANCH   2  21
TORSDOF 8
ENDMDL
