MODEL 1
REMARK VINA RESULT:      -9.2      0.000      0.000
REMARK  2 active torsions:
REMARK  status: ('A' for Active; 'I' for Inactive)
REMARK       I    between atoms: N_8  and  C_9 
REMARK    1  A    between atoms: C_9  and  C_10 
REMARK    2  A    between atoms: N_12  and  C_13 
ROOT
HETATM    1  C   UNL     1     -42.098  54.821 -49.758  1.00  0.00     0.021 C 
HETATM    2  C   UNL     1     -41.087  54.304 -50.779  1.00  0.00     0.087 C 
HETATM    3  C   UNL     1     -40.381  53.059 -50.254  1.00  0.00     0.207 C 
HETATM    4  O   UNL     1     -40.736  52.435 -49.261  1.00  0.00    -0.279 OA
HETATM    5  N   UNL     1     -39.327  52.662 -51.069  1.00  0.00    -0.227 NA
HETATM    6  C   UNL     1     -39.714  51.792 -52.127  1.00  0.00     0.042 A 
HETATM    7  C   UNL     1     -40.353  52.323 -53.267  1.00  0.00     0.059 A 
HETATM    8  N   UNL     1     -40.871  53.665 -53.228  1.00  0.00    -0.309 N 
HETATM    9  C   UNL     1     -40.743  54.516 -54.350  1.00  0.00     0.298 C 
HETATM   10  O   UNL     1     -40.199  54.151 -55.394  1.00  0.00    -0.264 OA
HETATM   11  C   UNL     1     -41.790  53.929 -52.090  1.00  0.00     0.145 C 
HETATM   12  C   UNL     1     -39.318  50.457 -52.071  1.00  0.00     0.026 A 
HETATM   13  C   UNL     1     -39.541  49.634 -53.173  1.00  0.00     0.002 A 
HETATM   14  C   UNL     1     -40.138  50.152 -54.323  1.00  0.00     0.002 A 
HETATM   15  C   UNL     1     -40.541  51.491 -54.374  1.00  0.00     0.031 A 
HETATM   16  H   UNL     1     -38.951  53.499 -51.510  1.00  0.00     0.136 HD
ENDROOT
BRANCH   9  17
HETATM   17  C   UNL     1     -41.223  55.919 -54.215  1.00  0.00     0.239 A 
HETATM   18  N   UNL     1     -41.142  56.600 -53.059  1.00  0.00    -0.140 NA
HETATM   19  N   UNL     1     -41.725  57.785 -53.349  1.00  0.00    -0.225 N 
HETATM   20  C   UNL     1     -42.140  57.775 -54.656  1.00  0.00     0.237 A 
HETATM   21  N   UNL     1     -41.850  56.626 -55.224  1.00  0.00    -0.216 NA
BRANCH  19  22
HETATM   22  C   UNL     1     -41.836  58.820 -52.385  1.00  0.00     0.059 A 
HETATM   23  C   UNL     1     -42.712  59.891 -52.623  1.00  0.00     0.031 A 
HETATM   24  C   UNL     1     -42.838  60.919 -51.687  1.00  0.00     0.002 A 
HETATM   25  C   UNL     1     -42.096  60.884 -50.509  1.00  0.00     0.000 A 
HETATM   26  C   UNL     1     -41.225  59.824 -50.265  1.00  0.00     0.002 A 
HETATM   27  C   UNL     1     -41.090  58.791 -51.198  1.00  0.00     0.031 A 
ENDBRANCH  19  22
ENDBRANCH   9  17
TORSDOF 2
ENDMDL
MODEL 2
REMARK VINA RESULT:      -9.1      3.645      8.297
REMARK  2 active torsions:
REMARK  status: ('A' for Active; 'I' for Inactive)
REMARK       I    between atoms: N_8  and  C_9 
REMARK    1  A    between atoms: C_9  and  C_10 
REMARK    2  A    between atoms: N_12  and  C_13 
ROOT
HETATM    1  C   UNL     1     -43.901  54.685 -58.736  1.00  0.00     0.021 C 
HETATM    2  C   UNL     1     -42.939  55.841 -58.472  1.00  0.00     0.087 C 
HETATM    3  C   UNL     1     -42.621  56.582 -59.766  1.00  0.00     0.207 C 
HETATM    4  O   UNL     1     -43.226  56.417 -60.819  1.00  0.00    -0.279 OA
HETATM    5  N   UNL     1     -41.612  57.524 -59.605  1.00  0.00    -0.227 NA
HETATM    6  C   UNL     1     -42.080  58.801 -59.185  1.00  0.00     0.042 A 
HETATM    7  C   UNL     1     -42.439  59.003 -57.836  1.00  0.00     0.059 A 
HETATM    8  N   UNL     1     -42.615  57.866 -56.973  1.00  0.00    -0.309 N 
HETATM    9  C   UNL     1     -42.160  57.904 -55.634  1.00  0.00     0.298 C 
HETATM   10  O   UNL     1     -41.608  58.896 -55.155  1.00  0.00    -0.264 OA
HETATM   11  C   UNL     1     -43.562  56.847 -57.495  1.00  0.00     0.145 C 
HETATM   12  C   UNL     1     -42.030  59.860 -60.090  1.00  0.00     0.026 A 
HETATM   13  C   UNL     1     -42.323  61.149 -59.648  1.00  0.00     0.002 A 
HETATM   14  C   UNL     1     -42.644  61.372 -58.308  1.00  0.00     0.002 A 
HETATM   15  C   UNL     1     -42.700  60.306 -57.403  1.00  0.00     0.031 A 
HETATM   16  H   UNL     1     -40.997  57.188 -58.867  1.00  0.00     0.136 HD
ENDROOT
BRANCH   9  17
HETATM   17  C   UNL     1     -42.295  56.665 -54.820  1.00  0.00     0.239 A 
HETATM   18  N   UNL     1     -41.269  55.821 -54.616  1.00  0.00    -0.140 NA
HETATM   19  N   UNL     1     -41.820  54.824 -53.888  1.00  0.00    -0.225 N 
HETATM   20  C   UNL     1     -43.148  55.095 -53.686  1.00  0.00     0.237 A 
HETATM   21  N   UNL     1     -43.481  56.230 -54.257  1.00  0.00    -0.216 NA
BRANCH  19  22
HETATM   22  C   UNL     1     -41.057  53.713 -53.443  1.00  0.00     0.059 A 
HETATM   23  C   UNL     1     -40.638  53.659 -52.104  1.00  0.00     0.031 A 
HETATM   24  C   UNL     1     -39.888  52.575 -51.644  1.00  0.00     0.002 A 
HETATM   25  C   UNL     1     -39.555  51.539 -52.513  1.00  0.00     0.000 A 
HETATM   26  C   UNL     1     -39.969  51.585 -53.844  1.00  0.00     0.002 A 
HETATM   27  C   UNL     1     -40.718  52.668 -54.313  1.00  0.00     0.031 A 
ENDBRANCH  19  22
ENDBRANCH   9  17
TORSDOF 2
ENDMDL
MODEL 3
REMARK VINA RESULT:      -8.9      2.746      4.419
REMARK  2 active torsions:
REMARK  status: ('A' for Active; 'I' for Inactive)
REMARK       I    between atoms: N_8  and  C_9 
REMARK    1  A    between atoms: C_9  and  C_10 
REMARK    2  A    between atoms: N_12  and  C_13 
ROOT
HETATM    1  C   UNL     1     -43.828  55.871 -51.210  1.00  0.00     0.021 C 
HETATM    2  C   UNL     1     -42.473  55.369 -51.704  1.00  0.00     0.087 C 
HETATM    3  C   UNL     1     -41.743  54.615 -50.598  1.00  0.00     0.207 C 
HETATM    4  O   UNL     1     -42.263  54.267 -49.545  1.00  0.00    -0.279 OA
HETATM    5  N   UNL     1     -40.434  54.299 -50.945  1.00  0.00    -0.227 NA
HETATM    6  C   UNL     1     -40.306  53.065 -51.641  1.00  0.00     0.042 A 
HETATM    7  C   UNL     1     -40.650  52.996 -53.007  1.00  0.00     0.059 A 
HETATM    8  N   UNL     1     -41.397  54.071 -53.604  1.00  0.00    -0.309 N 
HETATM    9  C   UNL     1     -41.092  54.518 -54.911  1.00  0.00     0.298 C 
HETATM   10  O   UNL     1     -40.194  54.011 -55.586  1.00  0.00    -0.264 OA
HETATM   11  C   UNL     1     -42.654  54.409 -52.887  1.00  0.00     0.145 C 
HETATM   12  C   UNL     1     -39.703  51.991 -50.989  1.00  0.00     0.026 A 
HETATM   13  C   UNL     1     -39.417  50.831 -51.706  1.00  0.00     0.002 A 
HETATM   14  C   UNL     1     -39.717  50.760 -53.068  1.00  0.00     0.002 A 
HETATM   15  C   UNL     1     -40.328  51.837 -53.719  1.00  0.00     0.031 A 
HETATM   16  H   UNL     1     -40.105  55.022 -51.582  1.00  0.00     0.136 HD
ENDROOT
BRANCH   9  17
HETATM   17  C   UNL     1     -41.845  55.689 -55.437  1.00  0.00     0.239 A 
HETATM   18  N   UNL     1     -42.600  55.621 -56.547  1.00  0.00    -0.140 NA
HETATM   19  N   UNL     1     -43.053  56.886 -56.700  1.00  0.00    -0.225 N 
HETATM   20  C   UNL     1     -42.554  57.667 -55.690  1.00  0.00     0.237 A 
HETATM   21  N   UNL     1     -41.793  56.957 -54.888  1.00  0.00    -0.216 NA
BRANCH  19  22
HETATM   22  C   UNL     1     -43.913  57.249 -57.769  1.00  0.00     0.059 A 
HETATM   23  C   UNL     1     -43.733  56.654 -59.028  1.00  0.00     0.031 A 
HETATM   24  C   UNL     1     -44.569  56.996 -60.093  1.00  0.00     0.002 A 
HETATM   25  C   UNL     1     -45.589  57.927 -59.908  1.00  0.00     0.000 A 
HETATM   26  C   UNL     1     -45.774  58.520 -58.660  1.00  0.00     0.002 A 
HETATM   27  C   UNL     1     -44.940  58.186 -57.589  1.00  0.00     0.031 A 
ENDBRANCH  19  22
ENDBRANCH   9  17
TORSDOF 2
ENDMDL
MODEL 4
REMARK VINA RESULT:      -8.9      2.580      7.698
REMARK  2 active torsions:
REMARK  status: ('A' for Active; 'I' for Inactive)
REMARK       I    between atoms: N_8  and  C_9 
REMARK    1  A    between atoms: C_9  and  C_10 
REMARK    2  A    between atoms: N_12  and  C_13 
ROOT
HETATM    1  C   UNL     1     -43.624  53.889 -56.197  1.00  0.00     0.021 C 
HETATM    2  C   UNL     1     -42.727  55.125 -56.191  1.00  0.00     0.087 C 
HETATM    3  C   UNL     1     -42.905  55.926 -57.476  1.00  0.00     0.207 C 
HETATM    4  O   UNL     1     -43.802  55.732 -58.288  1.00  0.00    -0.279 OA
HETATM    5  N   UNL     1     -41.979  56.956 -57.592  1.00  0.00    -0.227 NA
HETATM    6  C   UNL     1     -42.389  58.171 -56.975  1.00  0.00     0.042 A 
HETATM    7  C   UNL     1     -42.308  58.302 -55.573  1.00  0.00     0.059 A 
HETATM    8  N   UNL     1     -42.102  57.131 -54.763  1.00  0.00    -0.309 N 
HETATM    9  C   UNL     1     -41.244  57.177 -53.641  1.00  0.00     0.298 C 
HETATM   10  O   UNL     1     -40.650  58.204 -53.308  1.00  0.00    -0.264 OA
HETATM   11  C   UNL     1     -43.081  56.041 -55.012  1.00  0.00     0.145 C 
HETATM   12  C   UNL     1     -42.720  59.253 -57.789  1.00  0.00     0.026 A 
HETATM   13  C   UNL     1     -42.959  60.496 -57.205  1.00  0.00     0.002 A 
HETATM   14  C   UNL     1     -42.847  60.652 -55.823  1.00  0.00     0.002 A 
HETATM   15  C   UNL     1     -42.521  59.562 -55.008  1.00  0.00     0.031 A 
HETATM   16  H   UNL     1     -41.133  56.661 -57.109  1.00  0.00     0.136 HD
ENDROOT
BRANCH   9  17
HETATM   17  C   UNL     1     -41.007  55.910 -52.896  1.00  0.00     0.239 A 
HETATM   18  N   UNL     1     -40.663  54.765 -53.511  1.00  0.00    -0.140 NA
HETATM   19  N   UNL     1     -40.602  53.869 -52.501  1.00  0.00    -0.225 N 
HETATM   20  C   UNL     1     -40.915  54.496 -51.323  1.00  0.00     0.237 A 
HETATM   21  N   UNL     1     -41.179  55.766 -51.531  1.00  0.00    -0.216 NA
BRANCH  19  22
HETATM   22  C   UNL     1     -40.251  52.512 -52.725  1.00  0.00     0.059 A 
HETATM   23  C   UNL     1     -39.838  51.721 -51.641  1.00  0.00     0.031 A 
HETATM   24  C   UNL     1     -39.489  50.384 -51.838  1.00  0.00     0.002 A 
HETATM   25  C   UNL     1     -39.555  49.827 -53.113  1.00  0.00     0.000 A 
HETATM   26  C   UNL     1     -39.965  50.606 -54.194  1.00  0.00     0.002 A 
HETATM   27  C   UNL     1     -40.313  51.947 -54.006  1.00  0.00     0.031 A 
ENDBRANCH  19  22
ENDBRANCH   9  17
TORSDOF 2
ENDMDL
MODEL 5
REMARK VINA RESULT:      -8.8      2.083      8.041
REMARK  2 active torsions:
REMARK  status: ('A' for Active; 'I' for Inactive)
REMARK       I    between atoms: N_8  and  C_9 
REMARK    1  A    between atoms: C_9  and  C_10 
REMARK    2  A    between atoms: N_12  and  C_13 
ROOT
HETATM    1  C   UNL     1     -42.885  57.359 -57.182  1.00  0.00     0.021 C 
HETATM    2  C   UNL     1     -42.220  57.999 -55.965  1.00  0.00     0.087 C 
HETATM    3  C   UNL     1     -42.454  59.505 -55.954  1.00  0.00     0.207 C 
HETATM    4  O   UNL     1     -43.250  60.082 -56.686  1.00  0.00    -0.279 OA
HETATM    5  N   UNL     1     -41.718  60.150 -54.968  1.00  0.00    -0.227 NA
HETATM    6  C   UNL     1     -42.373  60.208 -53.706  1.00  0.00     0.042 A 
HETATM    7  C   UNL     1     -42.406  59.062 -52.885  1.00  0.00     0.059 A 
HETATM    8  N   UNL     1     -42.050  57.783 -53.439  1.00  0.00    -0.309 N 
HETATM    9  C   UNL     1     -41.287  56.861 -52.686  1.00  0.00     0.298 C 
HETATM   10  O   UNL     1     -40.905  57.105 -51.540  1.00  0.00    -0.264 OA
HETATM   11  C   UNL     1     -42.804  57.423 -54.668  1.00  0.00     0.145 C 
HETATM   12  C   UNL     1     -42.837  61.441 -53.251  1.00  0.00     0.026 A 
HETATM   13  C   UNL     1     -43.327  61.548 -51.951  1.00  0.00     0.002 A 
HETATM   14  C   UNL     1     -43.333  60.432 -51.113  1.00  0.00     0.002 A 
HETATM   15  C   UNL     1     -42.873  59.193 -51.574  1.00  0.00     0.031 A 
HETATM   16  H   UNL     1     -40.866  59.613 -54.823  1.00  0.00     0.136 HD
ENDROOT
BRANCH   9  17
HETATM   17  C   UNL     1     -40.880  55.592 -53.349  1.00  0.00     0.239 A 
HETATM   18  N   UNL     1     -40.772  54.431 -52.679  1.00  0.00    -0.140 NA
HETATM   19  N   UNL     1     -40.336  53.563 -53.619  1.00  0.00    -0.225 N 
HETATM   20  C   UNL     1     -40.189  54.226 -54.810  1.00  0.00     0.237 A 
HETATM   21  N   UNL     1     -40.513  55.492 -54.679  1.00  0.00    -0.216 NA
BRANCH  19  22
HETATM   22  C   UNL     1     -40.101  52.195 -53.322  1.00  0.00     0.059 A 
HETATM   23  C   UNL     1     -39.798  51.820 -52.004  1.00  0.00     0.031 A 
HETATM   24  C   UNL     1     -39.565  50.479 -51.690  1.00  0.00     0.002 A 
HETATM   25  C   UNL     1     -39.637  49.508 -52.686  1.00  0.00     0.000 A 
HETATM   26  C   UNL     1     -39.938  49.873 -53.997  1.00  0.00     0.002 A 
HETATM   27  C   UNL     1     -40.170  51.213 -54.321  1.00  0.00     0.031 A 
ENDBRANCH  19  22
ENDBRANCH   9  17
TORSDOF 2
ENDMDL
MODEL 6
REMARK VINA RESULT:      -8.7      2.064      7.675
REMARK  2 active torsions:
REMARK  status: ('A' for Active; 'I' for Inactive)
REMARK       I    between atoms: N_8  and  C_9 
REMARK    1  A    between atoms: C_9  and  C_10 
REMARK    2  A    between atoms: N_12  and  C_13 
ROOT
HETATM    1  C   UNL     1     -43.798  54.704 -54.367  1.00  0.00     0.021 C 
HETATM    2  C   UNL     1     -42.860  55.852 -54.000  1.00  0.00     0.087 C 
HETATM    3  C   UNL     1     -43.076  57.041 -54.929  1.00  0.00     0.207 C 
HETATM    4  O   UNL     1     -44.018  57.144 -55.706  1.00  0.00    -0.279 OA
HETATM    5  N   UNL     1     -42.122  58.036 -54.749  1.00  0.00    -0.227 NA
HETATM    6  C   UNL     1     -42.460  58.979 -53.738  1.00  0.00     0.042 A 
HETATM    7  C   UNL     1     -42.305  58.630 -52.380  1.00  0.00     0.059 A 
HETATM    8  N   UNL     1     -42.099  57.252 -52.022  1.00  0.00    -0.309 N 
HETATM    9  C   UNL     1     -41.185  56.905 -51.000  1.00  0.00     0.298 C 
HETATM   10  O   UNL     1     -40.541  57.753 -50.378  1.00  0.00    -0.264 OA
HETATM   11  C   UNL     1     -43.125  56.323 -52.564  1.00  0.00     0.145 C 
HETATM   12  C   UNL     1     -42.796  60.276 -54.121  1.00  0.00     0.026 A 
HETATM   13  C   UNL     1     -42.964  61.254 -53.143  1.00  0.00     0.002 A 
HETATM   14  C   UNL     1     -42.779  60.935 -51.796  1.00  0.00     0.002 A 
HETATM   15  C   UNL     1     -42.448  59.630 -51.414  1.00  0.00     0.031 A 
HETATM   16  H   UNL     1     -41.264  57.583 -54.442  1.00  0.00     0.136 HD
ENDROOT
BRANCH   9  17
HETATM   17  C   UNL     1     -40.954  55.458 -50.737  1.00  0.00     0.239 A 
HETATM   18  N   UNL     1     -40.603  54.597 -51.707  1.00  0.00    -0.140 NA
HETATM   19  N   UNL     1     -40.550  53.406 -51.069  1.00  0.00    -0.225 N 
HETATM   20  C   UNL     1     -40.875  53.588 -49.750  1.00  0.00     0.237 A 
HETATM   21  N   UNL     1     -41.139  54.852 -49.508  1.00  0.00    -0.216 NA
BRANCH  19  22
HETATM   22  C   UNL     1     -40.195  52.210 -51.745  1.00  0.00     0.059 A 
HETATM   23  C   UNL     1     -39.916  51.055 -50.998  1.00  0.00     0.031 A 
HETATM   24  C   UNL     1     -39.566  49.867 -51.642  1.00  0.00     0.002 A 
HETATM   25  C   UNL     1     -39.498  49.822 -53.033  1.00  0.00     0.000 A 
HETATM   26  C   UNL     1     -39.775  50.965 -53.782  1.00  0.00     0.002 A 
HETATM   27  C   UNL     1     -40.123  52.160 -53.144  1.00  0.00     0.031 A 
ENDBRANCH  19  22
ENDBRANCH   9  17
TORSDOF 2
ENDMDL
MODEL 7
REMARK VINA RESULT:      -8.6      2.679      7.543
REMARK  2 active torsions:
REMARK  status: ('A' for Active; 'I' for Inactive)
REMARK       I    between atoms: N_8  and  C_9 
REMARK    1  A    between atoms: C_9  and  C_10 
REMARK    2  A    between atoms: N_12  and  C_13 
ROOT
HETATM    1  C   UNL     1     -39.917  58.901 -51.624  1.00  0.00     0.021 C 
HETATM    2  C   UNL     1     -41.431  58.702 -51.635  1.00  0.00     0.087 C 
HETATM    3  C   UNL     1     -42.113  59.705 -50.711  1.00  0.00     0.207 C 
HETATM    4  O   UNL     1     -41.550  60.673 -50.214  1.00  0.00    -0.279 OA
HETATM    5  N   UNL     1     -43.469  59.443 -50.551  1.00  0.00    -0.227 NA
HETATM    6  C   UNL     1     -44.292  60.049 -51.542  1.00  0.00     0.042 A 
HETATM    7  C   UNL     1     -44.368  59.478 -52.829  1.00  0.00     0.059 A 
HETATM    8  N   UNL     1     -43.404  58.485 -53.221  1.00  0.00    -0.309 N 
HETATM    9  C   UNL     1     -43.801  57.360 -53.980  1.00  0.00     0.298 C 
HETATM   10  O   UNL     1     -44.968  57.186 -54.339  1.00  0.00    -0.264 OA
HETATM   11  C   UNL     1     -41.990  58.909 -53.049  1.00  0.00     0.145 C 
HETATM   12  C   UNL     1     -45.117  61.108 -51.166  1.00  0.00     0.026 A 
HETATM   13  C   UNL     1     -46.050  61.601 -52.077  1.00  0.00     0.002 A 
HETATM   14  C   UNL     1     -46.164  61.024 -53.343  1.00  0.00     0.002 A 
HETATM   15  C   UNL     1     -45.329  59.965 -53.719  1.00  0.00     0.031 A 
HETATM   16  H   UNL     1     -43.599  58.438 -50.647  1.00  0.00     0.136 HD
ENDROOT
BRANCH   9  17
HETATM   17  C   UNL     1     -42.773  56.326 -54.279  1.00  0.00     0.239 A 
HETATM   18  N   UNL     1     -42.395  55.402 -53.378  1.00  0.00    -0.140 NA
HETATM   19  N   UNL     1     -41.427  54.712 -54.020  1.00  0.00    -0.225 N 
HETATM   20  C   UNL     1     -41.249  55.242 -55.272  1.00  0.00     0.237 A 
HETATM   21  N   UNL     1     -42.066  56.253 -55.466  1.00  0.00    -0.216 NA
BRANCH  19  22
HETATM   22  C   UNL     1     -40.759  53.617 -53.411  1.00  0.00     0.059 A 
HETATM   23  C   UNL     1     -40.518  53.642 -52.028  1.00  0.00     0.031 A 
HETATM   24  C   UNL     1     -39.864  52.576 -51.408  1.00  0.00     0.002 A 
HETATM   25  C   UNL     1     -39.451  51.479 -52.161  1.00  0.00     0.000 A 
HETATM   26  C   UNL     1     -39.688  51.447 -53.534  1.00  0.00     0.002 A 
HETATM   27  C   UNL     1     -40.340  52.512 -54.164  1.00  0.00     0.031 A 
ENDBRANCH  19  22
ENDBRANCH   9  17
TORSDOF 2
ENDMDL
MODEL 8
REMARK VINA RESULT:      -8.5      4.044      7.046
REMARK  2 active torsions:
REMARK  status: ('A' for Active; 'I' for Inactive)
REMARK       I    between atoms: N_8  and  C_9 
REMARK    1  A    between atoms: C_9  and  C_10 
REMARK    2  A    between atoms: N_12  and  C_13 
ROOT
HETATM    1  C   UNL     1     -43.002  54.024 -55.453  1.00  0.00     0.021 C 
HETATM    2  C   UNL     1     -43.084  55.391 -54.777  1.00  0.00     0.087 C 
HETATM    3  C   UNL     1     -43.169  55.238 -53.263  1.00  0.00     0.207 C 
HETATM    4  O   UNL     1     -42.969  54.187 -52.666  1.00  0.00    -0.279 OA
HETATM    5  N   UNL     1     -43.427  56.444 -52.621  1.00  0.00    -0.227 NA
HETATM    6  C   UNL     1     -42.257  57.193 -52.312  1.00  0.00     0.042 A 
HETATM    7  C   UNL     1     -41.602  57.914 -53.332  1.00  0.00     0.059 A 
HETATM    8  N   UNL     1     -41.934  57.655 -54.707  1.00  0.00    -0.309 N 
HETATM    9  C   UNL     1     -42.030  58.718 -55.635  1.00  0.00     0.298 C 
HETATM   10  O   UNL     1     -41.832  59.891 -55.314  1.00  0.00    -0.264 OA
HETATM   11  C   UNL     1     -41.835  56.224 -55.097  1.00  0.00     0.145 C 
HETATM   12  C   UNL     1     -41.875  57.312 -50.977  1.00  0.00     0.026 A 
HETATM   13  C   UNL     1     -40.836  58.177 -50.640  1.00  0.00     0.002 A 
HETATM   14  C   UNL     1     -40.201  58.926 -51.632  1.00  0.00     0.002 A 
HETATM   15  C   UNL     1     -40.582  58.799 -52.973  1.00  0.00     0.031 A 
HETATM   16  H   UNL     1     -43.974  57.018 -53.259  1.00  0.00     0.136 HD
ENDROOT
BRANCH   9  17
HETATM   17  C   UNL     1     -42.461  58.391 -57.022  1.00  0.00     0.239 A 
HETATM   18  N   UNL     1     -43.649  57.824 -57.294  1.00  0.00    -0.140 NA
HETATM   19  N   UNL     1     -43.618  57.652 -58.634  1.00  0.00    -0.225 N 
HETATM   20  C   UNL     1     -42.421  58.111 -59.119  1.00  0.00     0.237 A 
HETATM   21  N   UNL     1     -41.672  58.573 -58.144  1.00  0.00    -0.216 NA
BRANCH  19  22
HETATM   22  C   UNL     1     -44.709  57.081 -59.340  1.00  0.00     0.059 A 
HETATM   23  C   UNL     1     -46.012  57.531 -59.072  1.00  0.00     0.031 A 
HETATM   24  C   UNL     1     -47.099  56.985 -59.756  1.00  0.00     0.002 A 
HETATM   25  C   UNL     1     -46.895  55.993 -60.713  1.00  0.00     0.000 A 
HETATM   26  C   UNL     1     -45.604  55.543 -60.985  1.00  0.00     0.002 A 
HETATM   27  C   UNL     1     -44.509  56.082 -60.303  1.00  0.00     0.031 A 
ENDBRANCH  19  22
ENDBRANCH   9  17
TORSDOF 2
ENDMDL
MODEL 9
REMARK VINA RESULT:      -8.4      3.275      5.951
REMARK  2 active torsions:
REMARK  status: ('A' for Active; 'I' for Inactive)
REMARK       I    between atoms: N_8  and  C_9 
REMARK    1  A    between atoms: C_9  and  C_10 
REMARK    2  A    between atoms: N_12  and  C_13 
ROOT
HETATM    1  C   UNL     1     -40.201  53.671 -55.640  1.00  0.00     0.021 C 
HETATM    2  C   UNL     1     -41.152  54.135 -54.540  1.00  0.00     0.087 C 
HETATM    3  C   UNL     1     -41.060  53.218 -53.326  1.00  0.00     0.207 C 
HETATM    4  O   UNL     1     -40.187  52.372 -53.169  1.00  0.00    -0.279 OA
HETATM    5  N   UNL     1     -42.035  53.494 -52.375  1.00  0.00    -0.227 NA
HETATM    6  C   UNL     1     -41.657  54.496 -51.438  1.00  0.00     0.042 A 
HETATM    7  C   UNL     1     -41.690  55.854 -51.818  1.00  0.00     0.059 A 
HETATM    8  N   UNL     1     -41.812  56.197 -53.209  1.00  0.00    -0.309 N 
HETATM    9  C   UNL     1     -42.627  57.279 -53.613  1.00  0.00     0.298 C 
HETATM   10  O   UNL     1     -43.254  57.968 -52.805  1.00  0.00    -0.264 OA
HETATM   11  C   UNL     1     -40.795  55.556 -54.084  1.00  0.00     0.145 C 
HETATM   12  C   UNL     1     -41.406  54.115 -50.120  1.00  0.00     0.026 A 
HETATM   13  C   UNL     1     -41.201  55.099 -49.155  1.00  0.00     0.002 A 
HETATM   14  C   UNL     1     -41.266  56.448 -49.506  1.00  0.00     0.002 A 
HETATM   15  C   UNL     1     -41.512  56.827 -50.831  1.00  0.00     0.031 A 
HETATM   16  H   UNL     1     -42.848  53.857 -52.869  1.00  0.00     0.136 HD
ENDROOT
BRANCH   9  17
HETATM   17  C   UNL     1     -42.778  57.527 -55.073  1.00  0.00     0.239 A 
HETATM   18  N   UNL     1     -43.508  56.727 -55.869  1.00  0.00    -0.140 NA
HETATM   19  N   UNL     1     -43.339  57.264 -57.098  1.00  0.00    -0.225 N 
HETATM   20  C   UNL     1     -42.515  58.356 -57.003  1.00  0.00     0.237 A 
HETATM   21  N   UNL     1     -42.141  58.546 -55.758  1.00  0.00    -0.216 NA
BRANCH  19  22
HETATM   22  C   UNL     1     -43.966  56.716 -58.247  1.00  0.00     0.059 A 
HETATM   23  C   UNL     1     -45.076  57.371 -58.803  1.00  0.00     0.031 A 
HETATM   24  C   UNL     1     -45.707  56.849 -59.934  1.00  0.00     0.002 A 
HETATM   25  C   UNL     1     -45.234  55.676 -60.519  1.00  0.00     0.000 A 
HETATM   26  C   UNL     1     -44.131  55.021 -59.973  1.00  0.00     0.002 A 
HETATM   27  C   UNL     1     -43.495  55.535 -58.838  1.00  0.00     0.031 A 
ENDBRANCH  19  22
ENDBRANCH   9  17
TORSDOF 2
ENDMDL
MODEL 10
REMARK VINA RESULT:      -8.4      3.523      8.028
REMARK  2 active torsions:
REMARK  status: ('A' for Active; 'I' for Inactive)
REMARK       I    between atoms: N_8  and  C_9 
REMARK    1  A    between atoms: C_9  and  C_10 
REMARK    2  A    between atoms: N_12  and  C_13 
ROOT
HETATM    1  C   UNL     1     -42.511  59.694 -53.808  1.00  0.00     0.021 C 
HETATM    2  C   UNL     1     -43.129  59.181 -55.107  1.00  0.00     0.087 C 
HETATM    3  C   UNL     1     -43.599  60.342 -55.975  1.00  0.00     0.207 C 
HETATM    4  O   UNL     1     -43.314  61.515 -55.766  1.00  0.00    -0.279 OA
HETATM    5  N   UNL     1     -44.330  59.918 -57.079  1.00  0.00    -0.227 NA
HETATM    6  C   UNL     1     -43.529  59.611 -58.215  1.00  0.00     0.042 A 
HETATM    7  C   UNL     1     -42.819  58.393 -58.259  1.00  0.00     0.059 A 
HETATM    8  N   UNL     1     -42.668  57.618 -57.056  1.00  0.00    -0.309 N 
HETATM    9  C   UNL     1     -42.766  56.208 -57.094  1.00  0.00     0.298 C 
HETATM   10  O   UNL     1     -42.975  55.591 -58.140  1.00  0.00    -0.264 OA
HETATM   11  C   UNL     1     -42.099  58.377 -55.912  1.00  0.00     0.145 C 
HETATM   12  C   UNL     1     -43.586  60.459 -59.320  1.00  0.00     0.026 A 
HETATM   13  C   UNL     1     -42.944  60.086 -60.499  1.00  0.00     0.002 A 
HETATM   14  C   UNL     1     -42.267  58.867 -60.571  1.00  0.00     0.002 A 
HETATM   15  C   UNL     1     -42.206  58.021 -59.458  1.00  0.00     0.031 A 
HETATM   16  H   UNL     1     -44.800  59.054 -56.820  1.00  0.00     0.136 HD
ENDROOT
BRANCH   9  17
HETATM   17  C   UNL     1     -42.686  55.472 -55.803  1.00  0.00     0.239 A 
HETATM   18  N   UNL     1     -41.639  54.691 -55.482  1.00  0.00    -0.140 NA
HETATM   19  N   UNL     1     -41.983  54.180 -54.279  1.00  0.00    -0.225 N 
HETATM   20  C   UNL     1     -43.217  54.660 -53.922  1.00  0.00     0.237 A 
HETATM   21  N   UNL     1     -43.687  55.462 -54.849  1.00  0.00    -0.216 NA
BRANCH  19  22
HETATM   22  C   UNL     1     -41.128  53.296 -53.570  1.00  0.00     0.059 A 
HETATM   23  C   UNL     1     -40.560  52.202 -54.241  1.00  0.00     0.031 A 
HETATM   24  C   UNL     1     -39.716  51.321 -53.563  1.00  0.00     0.002 A 
HETATM   25  C   UNL     1     -39.430  51.528 -52.215  1.00  0.00     0.000 A 
HETATM   26  C   UNL     1     -39.990  52.613 -51.542  1.00  0.00     0.002 A 
HETATM   27  C   UNL     1     -40.839  53.498 -52.213  1.00  0.00     0.031 A 
ENDBRANCH  19  22
ENDBRANCH   9  17
TORSDOF 2
ENDMDL
