MODEL 1
REMARK VINA RESULT:      -9.1      0.000      0.000
REMARK  4 active torsions:
REMARK  status: ('A' for Active; 'I' for Inactive)
REMARK       I    between atoms: N_2  and  C_4 
REMARK       I    between atoms: C_4  and  N_6 
REMARK    1  A    between atoms: N_6  and  C_7 
REMARK    2  A    between atoms: C_12  and  C_13 
REMARK    3  A    between atoms: C_15  and  N_16 
REMARK    4  A    between atoms: N_16  and  C_17 
ROOT
HETATM    1  C   UNL     1     -43.244  56.389 -56.226  1.00  0.00     0.164 A 
HETATM    2  N   UNL     1     -42.075  55.867 -55.829  1.00  0.00    -0.210 NA
HETATM    3  C   UNL     1     -41.767  55.903 -54.523  1.00  0.00     0.143 A 
HETATM    4  C   UNL     1     -42.629  56.476 -53.576  1.00  0.00     0.039 A 
HETATM    5  C   UNL     1     -42.375  56.551 -52.182  1.00  0.00     0.018 A 
HETATM    6  C   UNL     1     -43.293  57.151 -51.322  1.00  0.00     0.001 A 
HETATM    7  C   UNL     1     -44.470  57.672 -51.840  1.00  0.00     0.002 A 
HETATM    8  C   UNL     1     -44.725  57.583 -53.212  1.00  0.00     0.032 A 
HETATM    9  C   UNL     1     -43.827  56.990 -54.091  1.00  0.00     0.073 A 
HETATM   10  N   UNL     1     -44.145  56.936 -55.390  1.00  0.00    -0.228 NA
ENDROOT
BRANCH   1  11
HETATM   11  C   UNL     1     -43.533  56.361 -57.678  1.00  0.00     0.039 A 
HETATM   12  C   UNL     1     -43.817  57.516 -58.455  1.00  0.00     0.050 A 
HETATM   13  C   UNL     1     -44.116  57.374 -59.821  1.00  0.00     0.030 A 
HETATM   14  C   UNL     1     -44.112  56.123 -60.440  1.00  0.00     0.002 A 
HETATM   15  C   UNL     1     -43.824  54.987 -59.700  1.00  0.00     0.001 A 
HETATM   16  C   UNL     1     -43.544  55.107 -58.340  1.00  0.00     0.018 A 
BRANCH  12  17
HETATM   17  N   UNL     1     -43.851  58.786 -57.825  1.00  0.00    -0.308 N 
HETATM   18  C   UNL     1     -42.899  59.777 -57.838  1.00  0.00     0.322 C 
HETATM   19  N   UNL     1     -43.338  60.998 -57.321  1.00  0.00    -0.343 N 
HETATM   20  O   UNL     1     -41.750  59.637 -58.248  1.00  0.00    -0.247 OA
HETATM   21  C   UNL     1     -42.363  62.072 -57.226  1.00  0.00     0.154 C 
HETATM   22  C   UNL     1     -44.734  61.409 -57.234  1.00  0.00     0.154 C 
HETATM   23  H   UNL     1     -44.551  58.871 -57.095  1.00  0.00     0.170 HD
ENDBRANCH  12  17
ENDBRANCH   1  11
BRANCH   3  24
HETATM   24  N   UNL     1     -40.520  55.363 -54.107  1.00  0.00    -0.340 N 
HETATM   25  H   UNL     1     -39.802  55.656 -54.761  1.00  0.00     0.167 HD
BRANCH  24  26
HETATM   26  C   UNL     1     -40.300  54.043 -53.638  1.00  0.00     0.034 A 
HETATM   27  C   UNL     1     -40.283  53.794 -52.256  1.00  0.00     0.032 A 
HETATM   28  C   UNL     1     -40.094  52.505 -51.732  1.00  0.00     0.034 A 
HETATM   29  C   UNL     1     -39.950  51.464 -52.651  1.00  0.00     0.062 A 
HETATM   30  N   UNL     1     -39.752  50.118 -52.487  1.00  0.00    -0.278 N 
HETATM   31  C   UNL     1     -39.996  51.659 -54.025  1.00  0.00     0.013 A 
HETATM   32  H   UNL     1     -39.661  49.608 -51.616  1.00  0.00     0.189 HD
HETATM   33  N   UNL     1     -39.678  49.427 -53.639  1.00  0.00    -0.186 NA
HETATM   34  C   UNL     1     -39.828  50.369 -54.573  1.00  0.00     0.152 A 
HETATM   35  C   UNL     1     -40.187  52.959 -54.526  1.00  0.00     0.044 A 
ENDBRANCH  24  26
ENDBRANCH   3  24
TORSDOF 4
ENDMDL
MODEL 2
REMARK VINA RESULT:      -9.0      2.402      5.504
REMARK  4 active torsions:
REMARK  status: ('A' for Active; 'I' for Inactive)
REMARK       I    between atoms: N_2  and  C_4 
REMARK       I    between atoms: C_4  and  N_6 
REMARK    1  A    between atoms: N_6  and  C_7 
REMARK    2  A    between atoms: C_12  and  C_13 
REMARK    3  A    between atoms: C_15  and  N_16 
REMARK    4  A    between atoms: N_16  and  C_17 
ROOT
HETATM    1  C   UNL     1     -42.762  55.619 -55.852  1.00  0.00     0.164 A 
HETATM    2  N   UNL     1     -43.448  56.019 -54.773  1.00  0.00    -0.210 NA
HETATM    3  C   UNL     1     -43.140  55.482 -53.582  1.00  0.00     0.143 A 
HETATM    4  C   UNL     1     -42.132  54.515 -53.445  1.00  0.00     0.039 A 
HETATM    5  C   UNL     1     -41.749  53.902 -52.224  1.00  0.00     0.018 A 
HETATM    6  C   UNL     1     -40.740  52.943 -52.194  1.00  0.00     0.001 A 
HETATM    7  C   UNL     1     -40.100  52.592 -53.375  1.00  0.00     0.002 A 
HETATM    8  C   UNL     1     -40.469  53.208 -54.574  1.00  0.00     0.032 A 
HETATM    9  C   UNL     1     -41.472  54.169 -54.632  1.00  0.00     0.073 A 
HETATM   10  N   UNL     1     -41.763  54.719 -55.817  1.00  0.00    -0.228 NA
ENDROOT
BRANCH   1  11
HETATM   11  C   UNL     1     -43.153  56.210 -57.153  1.00  0.00     0.039 A 
HETATM   12  C   UNL     1     -43.634  57.538 -57.311  1.00  0.00     0.050 A 
HETATM   13  C   UNL     1     -44.013  57.989 -58.586  1.00  0.00     0.030 A 
HETATM   14  C   UNL     1     -43.902  57.168 -59.710  1.00  0.00     0.002 A 
HETATM   15  C   UNL     1     -43.422  55.875 -59.577  1.00  0.00     0.001 A 
HETATM   16  C   UNL     1     -43.058  55.405 -58.316  1.00  0.00     0.018 A 
BRANCH  12  17
HETATM   17  N   UNL     1     -43.777  58.365 -56.168  1.00  0.00    -0.308 N 
HETATM   18  C   UNL     1     -42.980  59.406 -55.756  1.00  0.00     0.322 C 
HETATM   19  N   UNL     1     -43.527  60.170 -54.723  1.00  0.00    -0.343 N 
HETATM   20  O   UNL     1     -41.873  59.665 -56.221  1.00  0.00    -0.247 OA
HETATM   21  C   UNL     1     -42.707  61.240 -54.177  1.00  0.00     0.154 C 
HETATM   22  C   UNL     1     -44.949  60.250 -54.413  1.00  0.00     0.154 C 
HETATM   23  H   UNL     1     -44.399  57.992 -55.458  1.00  0.00     0.170 HD
ENDBRANCH  12  17
ENDBRANCH   1  11
BRANCH   3  24
HETATM   24  N   UNL     1     -43.881  55.896 -52.441  1.00  0.00    -0.340 N 
HETATM   25  H   UNL     1     -44.802  55.473 -52.478  1.00  0.00     0.167 HD
BRANCH  24  26
HETATM   26  C   UNL     1     -43.922  57.209 -51.909  1.00  0.00     0.034 A 
HETATM   27  C   UNL     1     -45.151  57.753 -51.503  1.00  0.00     0.032 A 
HETATM   28  C   UNL     1     -45.251  59.039 -50.947  1.00  0.00     0.034 A 
HETATM   29  C   UNL     1     -44.062  59.753 -50.786  1.00  0.00     0.062 A 
HETATM   30  N   UNL     1     -43.805  61.004 -50.290  1.00  0.00    -0.278 N 
HETATM   31  C   UNL     1     -42.822  59.240 -51.140  1.00  0.00     0.013 A 
HETATM   32  H   UNL     1     -44.473  61.679 -49.938  1.00  0.00     0.189 HD
HETATM   33  N   UNL     1     -42.501  61.337 -50.284  1.00  0.00    -0.186 NA
HETATM   34  C   UNL     1     -41.906  60.260 -50.802  1.00  0.00     0.152 A 
HETATM   35  C   UNL     1     -42.746  57.950 -51.695  1.00  0.00     0.044 A 
ENDBRANCH  24  26
ENDBRANCH   3  24
TORSDOF 4
ENDMDL
MODEL 3
REMARK VINA RESULT:      -8.9      2.821      5.671
REMARK  4 active torsions:
REMARK  status: ('A' for Active; 'I' for Inactive)
REMARK       I    between atoms: N_2  and  C_4 
REMARK       I    between atoms: C_4  and  N_6 
REMARK    1  A    between atoms: N_6  and  C_7 
REMARK    2  A    between atoms: C_12  and  C_13 
REMARK    3  A    between atoms: C_15  and  N_16 
REMARK    4  A    between atoms: N_16  and  C_17 
ROOT
HETATM    1  C   UNL     1     -41.164  57.864 -53.181  1.00  0.00     0.164 A 
HETATM    2  N   UNL     1     -41.498  56.582 -52.985  1.00  0.00    -0.210 NA
HETATM    3  C   UNL     1     -42.109  55.919 -53.980  1.00  0.00     0.143 A 
HETATM    4  C   UNL     1     -42.408  56.536 -55.204  1.00  0.00     0.039 A 
HETATM    5  C   UNL     1     -43.049  55.904 -56.301  1.00  0.00     0.018 A 
HETATM    6  C   UNL     1     -43.311  56.606 -57.475  1.00  0.00     0.001 A 
HETATM    7  C   UNL     1     -42.932  57.938 -57.568  1.00  0.00     0.002 A 
HETATM    8  C   UNL     1     -42.287  58.555 -56.492  1.00  0.00     0.032 A 
HETATM    9  C   UNL     1     -42.013  57.876 -55.311  1.00  0.00     0.073 A 
HETATM   10  N   UNL     1     -41.386  58.532 -54.327  1.00  0.00    -0.228 NA
ENDROOT
BRANCH   1  11
HETATM   11  C   UNL     1     -40.522  58.571 -52.048  1.00  0.00     0.039 A 
HETATM   12  C   UNL     1     -41.220  59.023 -50.895  1.00  0.00     0.050 A 
HETATM   13  C   UNL     1     -40.521  59.718 -49.893  1.00  0.00     0.030 A 
HETATM   14  C   UNL     1     -39.149  59.951 -49.992  1.00  0.00     0.002 A 
HETATM   15  C   UNL     1     -38.450  59.505 -51.103  1.00  0.00     0.001 A 
HETATM   16  C   UNL     1     -39.130  58.830 -52.115  1.00  0.00     0.018 A 
BRANCH  12  17
HETATM   17  N   UNL     1     -42.619  58.815 -50.804  1.00  0.00    -0.308 N 
HETATM   18  C   UNL     1     -43.639  59.672 -51.143  1.00  0.00     0.322 C 
HETATM   19  N   UNL     1     -44.903  59.077 -51.160  1.00  0.00    -0.343 N 
HETATM   20  O   UNL     1     -43.494  60.863 -51.403  1.00  0.00    -0.247 OA
HETATM   21  C   UNL     1     -46.042  59.938 -51.431  1.00  0.00     0.154 C 
HETATM   22  C   UNL     1     -45.146  57.648 -51.316  1.00  0.00     0.154 C 
HETATM   23  H   UNL     1     -42.889  58.043 -50.202  1.00  0.00     0.170 HD
ENDBRANCH  12  17
ENDBRANCH   1  11
BRANCH   3  24
HETATM   24  N   UNL     1     -42.477  54.563 -53.763  1.00  0.00    -0.340 N 
HETATM   25  H   UNL     1     -43.303  54.538 -53.176  1.00  0.00     0.167 HD
BRANCH  24  26
HETATM   26  C   UNL     1     -41.589  53.496 -53.474  1.00  0.00     0.034 A 
HETATM   27  C   UNL     1     -40.936  53.457 -52.232  1.00  0.00     0.032 A 
HETATM   28  C   UNL     1     -40.064  52.414 -51.881  1.00  0.00     0.034 A 
HETATM   29  C   UNL     1     -39.893  51.391 -52.815  1.00  0.00     0.062 A 
HETATM   30  N   UNL     1     -39.132  50.251 -52.795  1.00  0.00    -0.278 N 
HETATM   31  C   UNL     1     -40.547  51.371 -54.039  1.00  0.00     0.013 A 
HETATM   32  H   UNL     1     -38.514  49.932 -52.059  1.00  0.00     0.189 HD
HETATM   33  N   UNL     1     -39.249  49.491 -53.900  1.00  0.00    -0.186 NA
HETATM   34  C   UNL     1     -40.112  50.177 -54.655  1.00  0.00     0.152 A 
HETATM   35  C   UNL     1     -41.415  52.426 -54.370  1.00  0.00     0.044 A 
ENDBRANCH  24  26
ENDBRANCH   3  24
TORSDOF 4
ENDMDL
MODEL 4
REMARK VINA RESULT:      -8.9      2.997      7.201
REMARK  4 active torsions:
REMARK  status: ('A' for Active; 'I' for Inactive)
REMARK       I    between atoms: N_2  and  C_4 
REMARK       I    between atoms: C_4  and  N_6 
REMARK    1  A    between atoms: N_6  and  C_7 
REMARK    2  A    between atoms: C_12  and  C_13 
REMARK    3  A    between atoms: C_15  and  N_16 
REMARK    4  A    between atoms: N_16  and  C_17 
ROOT
HETATM    1  C   UNL     1     -42.932  57.056 -52.827  1.00  0.00     0.164 A 
HETATM    2  N   UNL     1     -42.761  57.339 -54.126  1.00  0.00    -0.210 NA
HETATM    3  C   UNL     1     -42.090  56.463 -54.890  1.00  0.00     0.143 A 
HETATM    4  C   UNL     1     -41.562  55.274 -54.362  1.00  0.00     0.039 A 
HETATM    5  C   UNL     1     -40.844  54.300 -55.103  1.00  0.00     0.018 A 
HETATM    6  C   UNL     1     -40.351  53.155 -54.483  1.00  0.00     0.001 A 
HETATM    7  C   UNL     1     -40.574  52.966 -53.127  1.00  0.00     0.002 A 
HETATM    8  C   UNL     1     -41.295  53.919 -52.402  1.00  0.00     0.032 A 
HETATM    9  C   UNL     1     -41.799  55.070 -52.996  1.00  0.00     0.073 A 
HETATM   10  N   UNL     1     -42.486  55.933 -52.237  1.00  0.00    -0.228 NA
ENDROOT
BRANCH   1  11
HETATM   11  C   UNL     1     -43.649  58.063 -52.010  1.00  0.00     0.039 A 
HETATM   12  C   UNL     1     -43.031  59.209 -51.438  1.00  0.00     0.050 A 
HETATM   13  C   UNL     1     -43.796  60.083 -50.647  1.00  0.00     0.030 A 
HETATM   14  C   UNL     1     -45.158  59.866 -50.433  1.00  0.00     0.002 A 
HETATM   15  C   UNL     1     -45.779  58.762 -50.994  1.00  0.00     0.001 A 
HETATM   16  C   UNL     1     -45.032  57.874 -51.767  1.00  0.00     0.018 A 
BRANCH  12  17
HETATM   17  N   UNL     1     -41.642  59.417 -51.629  1.00  0.00    -0.308 N 
HETATM   18  C   UNL     1     -40.632  59.382 -50.697  1.00  0.00     0.322 C 
HETATM   19  N   UNL     1     -39.348  59.390 -51.246  1.00  0.00    -0.343 N 
HETATM   20  O   UNL     1     -40.804  59.357 -49.481  1.00  0.00    -0.247 OA
HETATM   21  C   UNL     1     -38.227  59.436 -50.322  1.00  0.00     0.154 C 
HETATM   22  C   UNL     1     -39.023  58.972 -52.605  1.00  0.00     0.154 C 
HETATM   23  H   UNL     1     -41.404  59.874 -52.504  1.00  0.00     0.170 HD
ENDBRANCH  12  17
ENDBRANCH   1  11
BRANCH   3  24
HETATM   24  N   UNL     1     -41.896  56.772 -56.264  1.00  0.00    -0.340 N 
HETATM   25  H   UNL     1     -41.321  57.604 -56.334  1.00  0.00     0.167 HD
BRANCH  24  26
HETATM   26  C   UNL     1     -42.890  56.729 -57.274  1.00  0.00     0.034 A 
HETATM   27  C   UNL     1     -43.661  57.873 -57.535  1.00  0.00     0.032 A 
HETATM   28  C   UNL     1     -44.643  57.898 -58.538  1.00  0.00     0.034 A 
HETATM   29  C   UNL     1     -44.806  56.735 -59.294  1.00  0.00     0.062 A 
HETATM   30  N   UNL     1     -45.654  56.423 -60.324  1.00  0.00    -0.278 N 
HETATM   31  C   UNL     1     -44.041  55.594 -59.094  1.00  0.00     0.013 A 
HETATM   32  H   UNL     1     -46.363  57.013 -60.742  1.00  0.00     0.189 HD
HETATM   33  N   UNL     1     -45.492  55.180 -60.814  1.00  0.00    -0.186 NA
HETATM   34  C   UNL     1     -44.509  54.678 -60.061  1.00  0.00     0.152 A 
HETATM   35  C   UNL     1     -43.063  55.592 -58.084  1.00  0.00     0.044 A 
ENDBRANCH  24  26
ENDBRANCH   3  24
TORSDOF 4
ENDMDL
MODEL 5
REMARK VINA RESULT:      -8.8      2.918      7.268
REMARK  4 active torsions:
REMARK  status: ('A' for Active; 'I' for Inactive)
REMARK       I    between atoms: N_2  and  C_4 
REMARK       I    between atoms: C_4  and  N_6 
REMARK    1  A    between atoms: N_6  and  C_7 
REMARK    2  A    between atoms: C_12  and  C_13 
REMARK    3  A    between atoms: C_15  and  N_16 
REMARK    4  A    between atoms: N_16  and  C_17 
ROOT
HETATM    1  C   UNL     1     -43.402  56.993 -52.319  1.00  0.00     0.164 A 
HETATM    2  N   UNL     1     -43.774  56.750 -53.584  1.00  0.00    -0.210 NA
HETATM    3  C   UNL     1     -43.217  55.714 -54.228  1.00  0.00     0.143 A 
HETATM    4  C   UNL     1     -42.258  54.892 -53.616  1.00  0.00     0.039 A 
HETATM    5  C   UNL     1     -41.625  53.780 -54.230  1.00  0.00     0.018 A 
HETATM    6  C   UNL     1     -40.676  53.030 -53.540  1.00  0.00     0.001 A 
HETATM    7  C   UNL     1     -40.354  53.376 -52.235  1.00  0.00     0.002 A 
HETATM    8  C   UNL     1     -40.989  54.463 -51.627  1.00  0.00     0.032 A 
HETATM    9  C   UNL     1     -41.941  55.226 -52.293  1.00  0.00     0.073 A 
HETATM   10  N   UNL     1     -42.511  56.247 -51.642  1.00  0.00    -0.228 NA
ENDROOT
BRANCH   1  11
HETATM   11  C   UNL     1     -44.014  58.166 -51.653  1.00  0.00     0.039 A 
HETATM   12  C   UNL     1     -43.309  59.358 -51.335  1.00  0.00     0.050 A 
HETATM   13  C   UNL     1     -43.977  60.399 -50.667  1.00  0.00     0.030 A 
HETATM   14  C   UNL     1     -45.328  60.299 -50.333  1.00  0.00     0.002 A 
HETATM   15  C   UNL     1     -46.035  59.149 -50.648  1.00  0.00     0.001 A 
HETATM   16  C   UNL     1     -45.384  58.100 -51.294  1.00  0.00     0.018 A 
BRANCH  12  17
HETATM   17  N   UNL     1     -41.929  59.453 -51.646  1.00  0.00    -0.308 N 
HETATM   18  C   UNL     1     -40.851  59.395 -50.795  1.00  0.00     0.322 C 
HETATM   19  N   UNL     1     -39.618  59.278 -51.442  1.00  0.00    -0.343 N 
HETATM   20  O   UNL     1     -40.923  59.452 -49.570  1.00  0.00    -0.247 OA
HETATM   21  C   UNL     1     -38.425  59.293 -50.613  1.00  0.00     0.154 C 
HETATM   22  C   UNL     1     -39.436  58.763 -52.794  1.00  0.00     0.154 C 
HETATM   23  H   UNL     1     -41.733  59.841 -52.563  1.00  0.00     0.170 HD
ENDBRANCH  12  17
ENDBRANCH   1  11
BRANCH   3  24
HETATM   24  N   UNL     1     -43.602  55.468 -55.575  1.00  0.00    -0.340 N 
HETATM   25  H   UNL     1     -43.581  54.468 -55.743  1.00  0.00     0.167 HD
BRANCH  24  26
HETATM   26  C   UNL     1     -43.177  56.204 -56.709  1.00  0.00     0.034 A 
HETATM   27  C   UNL     1     -43.202  55.600 -57.976  1.00  0.00     0.032 A 
HETATM   28  C   UNL     1     -42.816  56.287 -59.138  1.00  0.00     0.034 A 
HETATM   29  C   UNL     1     -42.427  57.620 -58.986  1.00  0.00     0.062 A 
HETATM   30  N   UNL     1     -41.999  58.558 -59.888  1.00  0.00    -0.278 N 
HETATM   31  C   UNL     1     -42.422  58.267 -57.758  1.00  0.00     0.013 A 
HETATM   32  H   UNL     1     -41.872  58.443 -60.886  1.00  0.00     0.189 HD
HETATM   33  N   UNL     1     -41.729  59.760 -59.347  1.00  0.00    -0.186 NA
HETATM   34  C   UNL     1     -41.988  59.579 -58.049  1.00  0.00     0.152 A 
HETATM   35  C   UNL     1     -42.813  57.559 -56.608  1.00  0.00     0.044 A 
ENDBRANCH  24  26
ENDBRANCH   3  24
TORSDOF 4
ENDMDL
MODEL 6
REMARK VINA RESULT:      -8.6      2.883      7.239
REMARK  4 active torsions:
REMARK  status: ('A' for Active; 'I' for Inactive)
REMARK       I    between atoms: N_2  and  C_4 
REMARK       I    between atoms: C_4  and  N_6 
REMARK    1  A    between atoms: N_6  and  C_7 
REMARK    2  A    between atoms: C_12  and  C_13 
REMARK    3  A    between atoms: C_15  and  N_16 
REMARK    4  A    between atoms: N_16  and  C_17 
ROOT
HETATM    1  C   UNL     1     -42.229  55.668 -55.876  1.00  0.00     0.164 A 
HETATM    2  N   UNL     1     -42.072  56.976 -55.629  1.00  0.00    -0.210 NA
HETATM    3  C   UNL     1     -42.398  57.853 -56.590  1.00  0.00     0.143 A 
HETATM    4  C   UNL     1     -42.887  57.436 -57.838  1.00  0.00     0.039 A 
HETATM    5  C   UNL     1     -43.254  58.301 -58.902  1.00  0.00     0.018 A 
HETATM    6  C   UNL     1     -43.721  57.787 -60.109  1.00  0.00     0.001 A 
HETATM    7  C   UNL     1     -43.834  56.412 -60.264  1.00  0.00     0.002 A 
HETATM    8  C   UNL     1     -43.487  55.563 -59.209  1.00  0.00     0.032 A 
HETATM    9  C   UNL     1     -43.019  56.050 -57.995  1.00  0.00     0.073 A 
HETATM   10  N   UNL     1     -42.714  55.174 -57.030  1.00  0.00    -0.228 NA
ENDROOT
BRANCH   1  11
HETATM   11  C   UNL     1     -41.827  54.729 -54.803  1.00  0.00     0.039 A 
HETATM   12  C   UNL     1     -42.422  54.694 -53.512  1.00  0.00     0.050 A 
HETATM   13  C   UNL     1     -41.940  53.788 -52.554  1.00  0.00     0.030 A 
HETATM   14  C   UNL     1     -40.905  52.899 -52.849  1.00  0.00     0.002 A 
HETATM   15  C   UNL     1     -40.322  52.910 -54.106  1.00  0.00     0.001 A 
HETATM   16  C   UNL     1     -40.776  53.815 -55.064  1.00  0.00     0.018 A 
BRANCH  12  17
HETATM   17  N   UNL     1     -43.453  55.615 -53.198  1.00  0.00    -0.308 N 
HETATM   18  C   UNL     1     -43.565  56.440 -52.104  1.00  0.00     0.322 C 
HETATM   19  N   UNL     1     -44.576  57.397 -52.212  1.00  0.00    -0.343 N 
HETATM   20  O   UNL     1     -42.865  56.365 -51.098  1.00  0.00    -0.247 OA
HETATM   21  C   UNL     1     -44.809  58.254 -51.061  1.00  0.00     0.154 C 
HETATM   22  C   UNL     1     -45.142  57.870 -53.469  1.00  0.00     0.154 C 
HETATM   23  H   UNL     1     -44.313  55.473 -53.720  1.00  0.00     0.170 HD
ENDBRANCH  12  17
ENDBRANCH   1  11
BRANCH   3  24
HETATM   24  N   UNL     1     -42.216  59.240 -56.331  1.00  0.00    -0.340 N 
HETATM   25  H   UNL     1     -41.360  59.546 -56.780  1.00  0.00     0.167 HD
BRANCH  24  26
HETATM   26  C   UNL     1     -42.423  59.888 -55.088  1.00  0.00     0.034 A 
HETATM   27  C   UNL     1     -43.356  60.933 -54.999  1.00  0.00     0.032 A 
HETATM   28  C   UNL     1     -43.621  61.595 -53.789  1.00  0.00     0.034 A 
HETATM   29  C   UNL     1     -42.932  61.150 -52.660  1.00  0.00     0.062 A 
HETATM   30  N   UNL     1     -42.949  61.565 -51.353  1.00  0.00    -0.278 N 
HETATM   31  C   UNL     1     -42.028  60.098 -52.695  1.00  0.00     0.013 A 
HETATM   32  H   UNL     1     -43.491  62.320 -50.951  1.00  0.00     0.189 HD
HETATM   33  N   UNL     1     -42.141  60.861 -50.541  1.00  0.00    -0.186 NA
HETATM   34  C   UNL     1     -41.581  59.968 -51.362  1.00  0.00     0.152 A 
HETATM   35  C   UNL     1     -41.779  59.448 -53.917  1.00  0.00     0.044 A 
ENDBRANCH  24  26
ENDBRANCH   3  24
TORSDOF 4
ENDMDL
MODEL 7
REMARK VINA RESULT:      -8.6      1.731      2.005
REMARK  4 active torsions:
REMARK  status: ('A' for Active; 'I' for Inactive)
REMARK       I    between atoms: N_2  and  C_4 
REMARK       I    between atoms: C_4  and  N_6 
REMARK    1  A    between atoms: N_6  and  C_7 
REMARK    2  A    between atoms: C_12  and  C_13 
REMARK    3  A    between atoms: C_15  and  N_16 
REMARK    4  A    between atoms: N_16  and  C_17 
ROOT
HETATM    1  C   UNL     1     -42.603  56.972 -55.933  1.00  0.00     0.164 A 
HETATM    2  N   UNL     1     -42.799  55.836 -55.249  1.00  0.00    -0.210 NA
HETATM    3  C   UNL     1     -42.407  55.784 -53.967  1.00  0.00     0.143 A 
HETATM    4  C   UNL     1     -41.796  56.878 -53.335  1.00  0.00     0.039 A 
HETATM    5  C   UNL     1     -41.355  56.901 -51.986  1.00  0.00     0.018 A 
HETATM    6  C   UNL     1     -40.750  58.036 -51.454  1.00  0.00     0.001 A 
HETATM    7  C   UNL     1     -40.584  59.157 -52.254  1.00  0.00     0.002 A 
HETATM    8  C   UNL     1     -41.032  59.138 -53.578  1.00  0.00     0.032 A 
HETATM    9  C   UNL     1     -41.641  58.019 -54.134  1.00  0.00     0.073 A 
HETATM   10  N   UNL     1     -42.050  58.080 -55.407  1.00  0.00    -0.228 NA
ENDROOT
BRANCH   1  11
HETATM   11  C   UNL     1     -43.019  56.980 -57.355  1.00  0.00     0.039 A 
HETATM   12  C   UNL     1     -43.585  58.106 -58.012  1.00  0.00     0.050 A 
HETATM   13  C   UNL     1     -43.980  57.995 -59.355  1.00  0.00     0.030 A 
HETATM   14  C   UNL     1     -43.803  56.810 -60.070  1.00  0.00     0.002 A 
HETATM   15  C   UNL     1     -43.240  55.706 -59.449  1.00  0.00     0.001 A 
HETATM   16  C   UNL     1     -42.859  55.792 -58.111  1.00  0.00     0.018 A 
BRANCH  12  17
HETATM   17  N   UNL     1     -43.793  59.303 -57.282  1.00  0.00    -0.308 N 
HETATM   18  C   UNL     1     -44.908  59.700 -56.582  1.00  0.00     0.322 C 
HETATM   19  N   UNL     1     -44.706  60.823 -55.776  1.00  0.00    -0.343 N 
HETATM   20  O   UNL     1     -46.004  59.150 -56.643  1.00  0.00    -0.247 OA
HETATM   21  C   UNL     1     -45.860  61.351 -55.067  1.00  0.00     0.154 C 
HETATM   22  C   UNL     1     -43.409  61.268 -55.281  1.00  0.00     0.154 C 
HETATM   23  H   UNL     1     -43.136  60.046 -57.500  1.00  0.00     0.170 HD
ENDBRANCH  12  17
ENDBRANCH   1  11
BRANCH   3  24
HETATM   24  N   UNL     1     -42.602  54.573 -53.248  1.00  0.00    -0.340 N 
HETATM   25  H   UNL     1     -43.047  54.786 -52.362  1.00  0.00     0.167 HD
BRANCH  24  26
HETATM   26  C   UNL     1     -41.664  53.517 -53.129  1.00  0.00     0.034 A 
HETATM   27  C   UNL     1     -40.901  53.397 -51.956  1.00  0.00     0.032 A 
HETATM   28  C   UNL     1     -39.974  52.359 -51.772  1.00  0.00     0.034 A 
HETATM   29  C   UNL     1     -39.859  51.423 -52.801  1.00  0.00     0.062 A 
HETATM   30  N   UNL     1     -39.070  50.312 -52.945  1.00  0.00    -0.278 N 
HETATM   31  C   UNL     1     -40.619  51.482 -53.961  1.00  0.00     0.013 A 
HETATM   32  H   UNL     1     -38.380  49.954 -52.295  1.00  0.00     0.189 HD
HETATM   33  N   UNL     1     -39.264  49.643 -54.096  1.00  0.00    -0.186 NA
HETATM   34  C   UNL     1     -40.209  50.359 -54.712  1.00  0.00     0.152 A 
HETATM   35  C   UNL     1     -41.541  52.530 -54.125  1.00  0.00     0.044 A 
ENDBRANCH  24  26
ENDBRANCH   3  24
TORSDOF 4
ENDMDL
MODEL 8
REMARK VINA RESULT:      -8.6      2.361      6.363
REMARK  4 active torsions:
REMARK  status: ('A' for Active; 'I' for Inactive)
REMARK       I    between atoms: N_2  and  C_4 
REMARK       I    between atoms: C_4  and  N_6 
REMARK    1  A    between atoms: N_6  and  C_7 
REMARK    2  A    between atoms: C_12  and  C_13 
REMARK    3  A    between atoms: C_15  and  N_16 
REMARK    4  A    between atoms: N_16  and  C_17 
ROOT
HETATM    1  C   UNL     1     -43.391  57.005 -53.475  1.00  0.00     0.164 A 
HETATM    2  N   UNL     1     -43.035  57.244 -54.745  1.00  0.00    -0.210 NA
HETATM    3  C   UNL     1     -42.210  56.377 -55.353  1.00  0.00     0.143 A 
HETATM    4  C   UNL     1     -41.712  55.244 -54.693  1.00  0.00     0.039 A 
HETATM    5  C   UNL     1     -40.839  54.283 -55.267  1.00  0.00     0.018 A 
HETATM    6  C   UNL     1     -40.392  53.194 -54.524  1.00  0.00     0.001 A 
HETATM    7  C   UNL     1     -40.813  53.047 -53.210  1.00  0.00     0.002 A 
HETATM    8  C   UNL     1     -41.685  53.987 -52.651  1.00  0.00     0.032 A 
HETATM    9  C   UNL     1     -42.148  55.082 -53.371  1.00  0.00     0.073 A 
HETATM   10  N   UNL     1     -42.987  55.934 -52.770  1.00  0.00    -0.228 NA
ENDROOT
BRANCH   1  11
HETATM   11  C   UNL     1     -44.276  58.002 -52.828  1.00  0.00     0.039 A 
HETATM   12  C   UNL     1     -44.614  59.257 -53.402  1.00  0.00     0.050 A 
HETATM   13  C   UNL     1     -45.432  60.147 -52.686  1.00  0.00     0.030 A 
HETATM   14  C   UNL     1     -45.946  59.813 -51.431  1.00  0.00     0.002 A 
HETATM   15  C   UNL     1     -45.638  58.587 -50.862  1.00  0.00     0.001 A 
HETATM   16  C   UNL     1     -44.812  57.700 -51.550  1.00  0.00     0.018 A 
BRANCH  12  17
HETATM   17  N   UNL     1     -44.071  59.613 -54.662  1.00  0.00    -0.308 N 
HETATM   18  C   UNL     1     -44.703  60.192 -55.738  1.00  0.00     0.322 C 
HETATM   19  N   UNL     1     -43.836  60.633 -56.740  1.00  0.00    -0.343 N 
HETATM   20  O   UNL     1     -45.920  60.315 -55.849  1.00  0.00    -0.247 OA
HETATM   21  C   UNL     1     -44.434  61.183 -57.945  1.00  0.00     0.154 C 
HETATM   22  C   UNL     1     -42.427  60.950 -56.539  1.00  0.00     0.154 C 
HETATM   23  H   UNL     1     -43.179  59.175 -54.872  1.00  0.00     0.170 HD
ENDBRANCH  12  17
ENDBRANCH   1  11
BRANCH   3  24
HETATM   24  N   UNL     1     -41.821  56.641 -56.695  1.00  0.00    -0.340 N 
HETATM   25  H   UNL     1     -41.201  57.443 -56.704  1.00  0.00     0.167 HD
BRANCH  24  26
HETATM   26  C   UNL     1     -42.674  56.619 -57.828  1.00  0.00     0.034 A 
HETATM   27  C   UNL     1     -42.867  57.793 -58.572  1.00  0.00     0.032 A 
HETATM   28  C   UNL     1     -43.680  57.826 -59.716  1.00  0.00     0.034 A 
HETATM   29  C   UNL     1     -44.274  56.624 -60.105  1.00  0.00     0.062 A 
HETATM   30  N   UNL     1     -45.108  56.309 -61.146  1.00  0.00    -0.278 N 
HETATM   31  C   UNL     1     -44.082  55.433 -59.420  1.00  0.00     0.013 A 
HETATM   32  H   UNL     1     -45.471  56.931 -61.858  1.00  0.00     0.189 HD
HETATM   33  N   UNL     1     -45.460  55.012 -61.197  1.00  0.00    -0.186 NA
HETATM   34  C   UNL     1     -44.833  54.481 -60.143  1.00  0.00     0.152 A 
HETATM   35  C   UNL     1     -43.263  55.423 -58.277  1.00  0.00     0.044 A 
ENDBRANCH  24  26
ENDBRANCH   3  24
TORSDOF 4
ENDMDL
MODEL 9
REMARK VINA RESULT:      -8.5      2.103      5.222
REMARK  4 active torsions:
REMARK  status: ('A' for Active; 'I' for Inactive)
REMARK       I    between atoms: N_2  and  C_4 
REMARK       I    between atoms: C_4  and  N_6 
REMARK    1  A    between atoms: N_6  and  C_7 
REMARK    2  A    between atoms: C_12  and  C_13 
REMARK    3  A    between atoms: C_15  and  N_16 
REMARK    4  A    between atoms: N_16  and  C_17 
ROOT
HETATM    1  C   UNL     1     -43.521  58.728 -57.853  1.00  0.00     0.164 A 
HETATM    2  N   UNL     1     -42.748  57.803 -57.267  1.00  0.00    -0.210 NA
HETATM    3  C   UNL     1     -42.883  56.522 -57.646  1.00  0.00     0.143 A 
HETATM    4  C   UNL     1     -43.810  56.134 -58.625  1.00  0.00     0.039 A 
HETATM    5  C   UNL     1     -44.009  54.804 -59.078  1.00  0.00     0.018 A 
HETATM    6  C   UNL     1     -44.964  54.519 -60.051  1.00  0.00     0.001 A 
HETATM    7  C   UNL     1     -45.722  55.553 -60.584  1.00  0.00     0.002 A 
HETATM    8  C   UNL     1     -45.513  56.864 -60.147  1.00  0.00     0.032 A 
HETATM    9  C   UNL     1     -44.566  57.176 -59.179  1.00  0.00     0.073 A 
HETATM   10  N   UNL     1     -44.419  58.456 -58.818  1.00  0.00    -0.228 NA
ENDROOT
BRANCH   1  11
HETATM   11  C   UNL     1     -43.367  60.125 -57.385  1.00  0.00     0.039 A 
HETATM   12  C   UNL     1     -43.253  60.498 -56.018  1.00  0.00     0.050 A 
HETATM   13  C   UNL     1     -43.148  61.857 -55.680  1.00  0.00     0.030 A 
HETATM   14  C   UNL     1     -43.127  62.851 -56.659  1.00  0.00     0.002 A 
HETATM   15  C   UNL     1     -43.224  62.505 -57.998  1.00  0.00     0.001 A 
HETATM   16  C   UNL     1     -43.347  61.162 -58.351  1.00  0.00     0.018 A 
BRANCH  12  17
HETATM   17  N   UNL     1     -43.304  59.495 -55.018  1.00  0.00    -0.308 N 
HETATM   18  C   UNL     1     -42.306  59.074 -54.171  1.00  0.00     0.322 C 
HETATM   19  N   UNL     1     -42.745  58.238 -53.142  1.00  0.00    -0.343 N 
HETATM   20  O   UNL     1     -41.121  59.375 -54.284  1.00  0.00    -0.247 OA
HETATM   21  C   UNL     1     -41.735  57.687 -52.253  1.00  0.00     0.154 C 
HETATM   22  C   UNL     1     -44.115  58.179 -52.647  1.00  0.00     0.154 C 
HETATM   23  H   UNL     1     -44.092  58.860 -55.102  1.00  0.00     0.170 HD
ENDBRANCH  12  17
ENDBRANCH   1  11
BRANCH   3  24
HETATM   24  N   UNL     1     -42.072  55.541 -57.012  1.00  0.00    -0.340 N 
HETATM   25  H   UNL     1     -41.945  54.762 -57.648  1.00  0.00     0.167 HD
BRANCH  24  26
HETATM   26  C   UNL     1     -42.186  55.112 -55.665  1.00  0.00     0.034 A 
HETATM   27  C   UNL     1     -43.445  55.112 -55.043  1.00  0.00     0.032 A 
HETATM   28  C   UNL     1     -43.623  54.676 -53.720  1.00  0.00     0.034 A 
HETATM   29  C   UNL     1     -42.490  54.212 -53.049  1.00  0.00     0.062 A 
HETATM   30  N   UNL     1     -42.312  53.728 -51.779  1.00  0.00    -0.278 N 
HETATM   31  C   UNL     1     -41.234  54.161 -53.637  1.00  0.00     0.013 A 
HETATM   32  H   UNL     1     -43.011  53.621 -51.054  1.00  0.00     0.189 HD
HETATM   33  N   UNL     1     -41.048  53.358 -51.503  1.00  0.00    -0.186 NA
HETATM   34  C   UNL     1     -40.394  53.624 -52.637  1.00  0.00     0.152 A 
HETATM   35  C   UNL     1     -41.079  54.602 -54.963  1.00  0.00     0.044 A 
ENDBRANCH  24  26
ENDBRANCH   3  24
TORSDOF 4
ENDMDL
MODEL 10
REMARK VINA RESULT:      -8.3      2.620      7.700
REMARK  4 active torsions:
REMARK  status: ('A' for Active; 'I' for Inactive)
REMARK       I    between atoms: N_2  and  C_4 
REMARK       I    between atoms: C_4  and  N_6 
REMARK    1  A    between atoms: N_6  and  C_7 
REMARK    2  A    between atoms: C_12  and  C_13 
REMARK    3  A    between atoms: C_15  and  N_16 
REMARK    4  A    between atoms: N_16  and  C_17 
ROOT
HETATM    1  C   UNL     1     -42.216  55.615 -55.956  1.00  0.00     0.164 A 
HETATM    2  N   UNL     1     -42.032  56.932 -55.789  1.00  0.00    -0.210 NA
HETATM    3  C   UNL     1     -42.424  57.763 -56.767  1.00  0.00     0.143 A 
HETATM    4  C   UNL     1     -43.008  57.288 -57.951  1.00  0.00     0.039 A 
HETATM    5  C   UNL     1     -43.448  58.101 -59.028  1.00  0.00     0.018 A 
HETATM    6  C   UNL     1     -44.008  57.532 -60.168  1.00  0.00     0.001 A 
HETATM    7  C   UNL     1     -44.142  56.152 -60.244  1.00  0.00     0.002 A 
HETATM    8  C   UNL     1     -43.722  55.354 -59.176  1.00  0.00     0.032 A 
HETATM    9  C   UNL     1     -43.161  55.897 -58.027  1.00  0.00     0.073 A 
HETATM   10  N   UNL     1     -42.790  55.068 -57.043  1.00  0.00    -0.228 NA
ENDROOT
BRANCH   1  11
HETATM   11  C   UNL     1     -41.740  54.728 -54.869  1.00  0.00     0.039 A 
HETATM   12  C   UNL     1     -42.238  54.763 -53.539  1.00  0.00     0.050 A 
HETATM   13  C   UNL     1     -41.691  53.901 -52.573  1.00  0.00     0.030 A 
HETATM   14  C   UNL     1     -40.685  52.990 -52.899  1.00  0.00     0.002 A 
HETATM   15  C   UNL     1     -40.197  52.932 -54.194  1.00  0.00     0.001 A 
HETATM   16  C   UNL     1     -40.716  53.792 -55.161  1.00  0.00     0.018 A 
BRANCH  12  17
HETATM   17  N   UNL     1     -43.239  55.707 -53.196  1.00  0.00    -0.308 N 
HETATM   18  C   UNL     1     -43.201  56.689 -52.235  1.00  0.00     0.322 C 
HETATM   19  N   UNL     1     -44.253  57.605 -52.312  1.00  0.00    -0.343 N 
HETATM   20  O   UNL     1     -42.343  56.779 -51.361  1.00  0.00    -0.247 OA
HETATM   21  C   UNL     1     -44.326  58.625 -51.280  1.00  0.00     0.154 C 
HETATM   22  C   UNL     1     -45.036  57.870 -53.513  1.00  0.00     0.154 C 
HETATM   23  H   UNL     1     -44.167  55.475 -53.538  1.00  0.00     0.170 HD
ENDBRANCH  12  17
ENDBRANCH   1  11
BRANCH   3  24
HETATM   24  N   UNL     1     -42.213  59.159 -56.594  1.00  0.00    -0.340 N 
HETATM   25  H   UNL     1     -41.221  59.352 -56.673  1.00  0.00     0.167 HD
BRANCH  24  26
HETATM   26  C   UNL     1     -42.837  59.979 -55.621  1.00  0.00     0.034 A 
HETATM   27  C   UNL     1     -42.170  60.254 -54.416  1.00  0.00     0.032 A 
HETATM   28  C   UNL     1     -42.727  61.078 -53.426  1.00  0.00     0.034 A 
HETATM   29  C   UNL     1     -43.974  61.644 -53.701  1.00  0.00     0.062 A 
HETATM   30  N   UNL     1     -44.784  62.474 -52.971  1.00  0.00    -0.278 N 
HETATM   31  C   UNL     1     -44.652  61.428 -54.892  1.00  0.00     0.013 A 
HETATM   32  H   UNL     1     -44.617  62.842 -52.042  1.00  0.00     0.189 HD
HETATM   33  N   UNL     1     -45.923  62.822 -53.597  1.00  0.00    -0.186 NA
HETATM   34  C   UNL     1     -45.839  62.183 -54.767  1.00  0.00     0.152 A 
HETATM   35  C   UNL     1     -44.075  60.599 -55.870  1.00  0.00     0.044 A 
ENDBRANCH  24  26
ENDBRANCH   3  24
TORSDOF 4
ENDMDL
