MODEL 1
REMARK VINA RESULT:      -7.4      0.000      0.000
REMARK  7 active torsions:
REMARK  status: ('A' for Active; 'I' for Inactive)
REMARK    1  A    between atoms: C_2  and  N_3 
REMARK    2  A    between atoms: N_3  and  N_4 
REMARK       I    between atoms: N_4  and  C_5 
REMARK    3  A    between atoms: C_5  and  C_6 
REMARK    4  A    between atoms: C_6  and  C_7 
REMARK    5  A    between atoms: C_7  and  C_8 
REMARK    6  A    between atoms: C_8  and  N_9 
REMARK       I    between atoms: N_9  and  C_10 
REMARK       I    between atoms: C_10  and  N_11 
REMARK    7  A    between atoms: N_11  and  C_12 
ROOT
HETATM    1  C   UNL     1     -42.824  58.837 -53.227  1.00  0.00     0.068 A 
HETATM    2  C   UNL     1     -41.639  59.398 -53.689  1.00  0.00     0.124 A 
HETATM    3  N   UNL     1     -40.532  59.449 -52.926  1.00  0.00    -0.223 NA
HETATM    4  C   UNL     1     -40.610  58.959 -51.674  1.00  0.00     0.129 A 
HETATM    5 CL   UNL     1     -39.155  59.065 -50.773  1.00  0.00    -0.062 Cl
HETATM    6  C   UNL     1     -41.742  58.402 -51.120  1.00  0.00     0.067 A 
HETATM    7  C   UNL     1     -42.874  58.341 -51.923  1.00  0.00     0.051 A 
HETATM    8  C   UNL     1     -44.085  57.768 -51.419  1.00  0.00     0.099 C 
HETATM    9  N   UNL     1     -45.064  57.306 -51.007  1.00  0.00    -0.191 NA
ENDROOT
BRANCH   2  10
HETATM   10  N   UNL     1     -41.511  59.870 -55.013  1.00  0.00    -0.186 NA
HETATM   11  H   UNL     1     -41.858  60.840 -54.989  1.00  0.00     0.154 HD
BRANCH  10  12
HETATM   12  N   UNL     1     -42.204  59.087 -55.967  1.00  0.00    -0.286 N 
HETATM   13  C   UNL     1     -41.921  59.362 -57.295  1.00  0.00     0.232 C 
HETATM   14  O   UNL     1     -41.294  60.352 -57.663  1.00  0.00    -0.272 OA
HETATM   15  H   UNL     1     -42.363  58.122 -55.687  1.00  0.00     0.184 HD
BRANCH  13  16
HETATM   16  C   UNL     1     -42.410  58.309 -58.265  1.00  0.00     0.106 C 
BRANCH  16  17
HETATM   17  C   UNL     1     -43.505  57.432 -57.666  1.00  0.00     0.029 C 
BRANCH  17  18
HETATM   18  C   UNL     1     -43.121  55.957 -57.737  1.00  0.00     0.125 C 
BRANCH  18  19
HETATM   19  N   UNL     1     -43.359  55.279 -56.480  1.00  0.00    -0.343 N 
HETATM   20  C   UNL     1     -42.510  55.440 -55.412  1.00  0.00     0.316 C 
HETATM   21  N   UNL     1     -42.953  54.724 -54.329  1.00  0.00    -0.339 N 
HETATM   22  O   UNL     1     -41.501  56.129 -55.444  1.00  0.00    -0.248 OA
HETATM   23  H   UNL     1     -43.537  53.937 -54.567  1.00  0.00     0.164 HD
HETATM   24  H   UNL     1     -44.308  55.019 -56.260  1.00  0.00     0.164 HD
BRANCH  21  25
HETATM   25  C   UNL     1     -42.220  54.605 -53.075  1.00  0.00     0.086 C 
HETATM   26  C   UNL     1     -41.070  53.591 -53.133  1.00  0.00     0.025 C 
HETATM   27  C   UNL     1     -40.294  53.561 -51.817  1.00  0.00     0.002 C 
HETATM   28  C   UNL     1     -41.213  53.303 -50.624  1.00  0.00     0.000 C 
HETATM   29  C   UNL     1     -42.366  54.302 -50.571  1.00  0.00     0.002 C 
HETATM   30  C   UNL     1     -43.147  54.333 -51.883  1.00  0.00     0.025 C 
ENDBRANCH  21  25
ENDBRANCH  18  19
ENDBRANCH  17  18
ENDBRANCH  16  17
ENDBRANCH  13  16
ENDBRANCH  10  12
ENDBRANCH   2  10
TORSDOF 7
ENDMDL
MODEL 2
REMARK VINA RESULT:      -7.0      3.341      5.942
REMARK  7 active torsions:
REMARK  status: ('A' for Active; 'I' for Inactive)
REMARK    1  A    between atoms: C_2  and  N_3 
REMARK    2  A    between atoms: N_3  and  N_4 
REMARK       I    between atoms: N_4  and  C_5 
REMARK    3  A    between atoms: C_5  and  C_6 
REMARK    4  A    between atoms: C_6  and  C_7 
REMARK    5  A    between atoms: C_7  and  C_8 
REMARK    6  A    between atoms: C_8  and  N_9 
REMARK       I    between atoms: N_9  and  C_10 
REMARK       I    between atoms: C_10  and  N_11 
REMARK    7  A    between atoms: N_11  and  C_12 
ROOT
HETATM    1  C   UNL     1     -43.491  56.190 -59.069  1.00  0.00     0.068 A 
HETATM    2  C   UNL     1     -43.367  57.003 -57.947  1.00  0.00     0.124 A 
HETATM    3  N   UNL     1     -44.389  57.756 -57.501  1.00  0.00    -0.223 NA
HETATM    4  C   UNL     1     -45.543  57.724 -58.195  1.00  0.00     0.129 A 
HETATM    5 CL   UNL     1     -46.788  58.714 -57.556  1.00  0.00    -0.062 Cl
HETATM    6  C   UNL     1     -45.756  56.967 -59.327  1.00  0.00     0.067 A 
HETATM    7  C   UNL     1     -44.698  56.182 -59.768  1.00  0.00     0.051 A 
HETATM    8  C   UNL     1     -44.847  55.363 -60.933  1.00  0.00     0.099 C 
HETATM    9  N   UNL     1     -44.970  54.703 -61.878  1.00  0.00    -0.191 NA
ENDROOT
BRANCH   2  10
HETATM   10  N   UNL     1     -42.190  57.016 -57.169  1.00  0.00    -0.186 NA
HETATM   11  H   UNL     1     -41.707  56.134 -57.397  1.00  0.00     0.154 HD
BRANCH  10  12
HETATM   12  N   UNL     1     -42.426  57.142 -55.779  1.00  0.00    -0.286 N 
HETATM   13  C   UNL     1     -42.216  58.402 -55.242  1.00  0.00     0.232 C 
HETATM   14  O   UNL     1     -41.650  59.309 -55.847  1.00  0.00    -0.272 OA
HETATM   15  H   UNL     1     -43.199  56.581 -55.429  1.00  0.00     0.184 HD
BRANCH  13  16
HETATM   16  C   UNL     1     -42.786  58.588 -53.853  1.00  0.00     0.106 C 
BRANCH  16  17
HETATM   17  C   UNL     1     -43.273  57.276 -53.246  1.00  0.00     0.029 C 
BRANCH  17  18
HETATM   18  C   UNL     1     -42.363  56.833 -52.104  1.00  0.00     0.125 C 
BRANCH  18  19
HETATM   19  N   UNL     1     -41.393  55.851 -52.541  1.00  0.00    -0.343 N 
HETATM   20  C   UNL     1     -41.662  54.506 -52.475  1.00  0.00     0.316 C 
HETATM   21  N   UNL     1     -40.610  53.777 -52.967  1.00  0.00    -0.339 N 
HETATM   22  O   UNL     1     -42.703  54.043 -52.032  1.00  0.00    -0.248 OA
HETATM   23  H   UNL     1     -39.722  54.252 -52.920  1.00  0.00     0.164 HD
HETATM   24  H   UNL     1     -40.714  56.137 -53.230  1.00  0.00     0.164 HD
BRANCH  21  25
HETATM   25  C   UNL     1     -40.543  52.320 -52.940  1.00  0.00     0.086 C 
HETATM   26  C   UNL     1     -39.548  51.772 -51.910  1.00  0.00     0.025 C 
HETATM   27  C   UNL     1     -39.573  50.245 -51.876  1.00  0.00     0.002 C 
HETATM   28  C   UNL     1     -39.338  49.645 -53.261  1.00  0.00     0.000 C 
HETATM   29  C   UNL     1     -40.319  50.198 -54.292  1.00  0.00     0.002 C 
HETATM   30  C   UNL     1     -40.294  51.724 -54.332  1.00  0.00     0.025 C 
ENDBRANCH  21  25
ENDBRANCH  18  19
ENDBRANCH  17  18
ENDBRANCH  16  17
ENDBRANCH  13  16
ENDBRANCH  10  12
ENDBRANCH   2  10
TORSDOF 7
ENDMDL
MODEL 3
REMARK VINA RESULT:      -6.8      2.552      4.991
REMARK  7 active torsions:
REMARK  status: ('A' for Active; 'I' for Inactive)
REMARK    1  A    between atoms: C_2  and  N_3 
REMARK    2  A    between atoms: N_3  and  N_4 
REMARK       I    between atoms: N_4  and  C_5 
REMARK    3  A    between atoms: C_5  and  C_6 
REMARK    4  A    between atoms: C_6  and  C_7 
REMARK    5  A    between atoms: C_7  and  C_8 
REMARK    6  A    between atoms: C_8  and  N_9 
REMARK       I    between atoms: N_9  and  C_10 
REMARK       I    between atoms: C_10  and  N_11 
REMARK    7  A    between atoms: N_11  and  C_12 
ROOT
HETATM    1  C   UNL     1     -43.090  55.190 -50.774  1.00  0.00     0.068 A 
HETATM    2  C   UNL     1     -43.601  56.482 -50.722  1.00  0.00     0.124 A 
HETATM    3  N   UNL     1     -42.803  57.563 -50.778  1.00  0.00    -0.223 NA
HETATM    4  C   UNL     1     -41.474  57.360 -50.860  1.00  0.00     0.129 A 
HETATM    5 CL   UNL     1     -40.534  58.792 -50.926  1.00  0.00    -0.062 Cl
HETATM    6  C   UNL     1     -40.872  56.121 -50.897  1.00  0.00     0.067 A 
HETATM    7  C   UNL     1     -41.708  55.012 -50.854  1.00  0.00     0.051 A 
HETATM    8  C   UNL     1     -41.157  53.692 -50.897  1.00  0.00     0.099 C 
HETATM    9  N   UNL     1     -40.706  52.624 -50.930  1.00  0.00    -0.191 NA
ENDROOT
BRANCH   2  10
HETATM   10  N   UNL     1     -44.991  56.728 -50.692  1.00  0.00    -0.186 NA
HETATM   11  H   UNL     1     -45.429  55.825 -50.930  1.00  0.00     0.154 HD
BRANCH  10  12
HETATM   12  N   UNL     1     -45.407  57.760 -51.565  1.00  0.00    -0.286 N 
HETATM   13  C   UNL     1     -45.727  58.968 -50.965  1.00  0.00     0.232 C 
HETATM   14  O   UNL     1     -45.870  59.103 -49.752  1.00  0.00    -0.272 OA
HETATM   15  H   UNL     1     -44.934  57.769 -52.466  1.00  0.00     0.184 HD
BRANCH  13  16
HETATM   16  C   UNL     1     -45.842  60.129 -51.928  1.00  0.00     0.106 C 
BRANCH  16  17
HETATM   17  C   UNL     1     -44.533  60.901 -52.063  1.00  0.00     0.029 C 
BRANCH  17  18
HETATM   18  C   UNL     1     -43.908  60.675 -53.437  1.00  0.00     0.125 C 
BRANCH  18  19
HETATM   19  N   UNL     1     -42.943  59.595 -53.415  1.00  0.00    -0.343 N 
HETATM   20  C   UNL     1     -43.098  58.486 -54.211  1.00  0.00     0.316 C 
HETATM   21  N   UNL     1     -42.052  57.616 -54.038  1.00  0.00    -0.339 N 
HETATM   22  O   UNL     1     -44.047  58.316 -54.961  1.00  0.00    -0.248 OA
HETATM   23  H   UNL     1     -41.588  57.702 -53.147  1.00  0.00     0.164 HD
HETATM   24  H   UNL     1     -41.999  59.814 -53.135  1.00  0.00     0.164 HD
BRANCH  21  25
HETATM   25  C   UNL     1     -41.972  56.301 -54.662  1.00  0.00     0.086 C 
HETATM   26  C   UNL     1     -43.155  55.388 -54.317  1.00  0.00     0.025 C 
HETATM   27  C   UNL     1     -43.055  54.053 -55.054  1.00  0.00     0.002 C 
HETATM   28  C   UNL     1     -41.717  53.363 -54.797  1.00  0.00     0.000 C 
HETATM   29  C   UNL     1     -40.537  54.274 -55.127  1.00  0.00     0.002 C 
HETATM   30  C   UNL     1     -40.630  55.608 -54.389  1.00  0.00     0.025 C 
ENDBRANCH  21  25
ENDBRANCH  18  19
ENDBRANCH  17  18
ENDBRANCH  16  17
ENDBRANCH  13  16
ENDBRANCH  10  12
ENDBRANCH   2  10
TORSDOF 7
ENDMDL
MODEL 4
REMARK VINA RESULT:      -6.8      5.135      6.668
REMARK  7 active torsions:
REMARK  status: ('A' for Active; 'I' for Inactive)
REMARK    1  A    between atoms: C_2  and  N_3 
REMARK    2  A    between atoms: N_3  and  N_4 
REMARK       I    between atoms: N_4  and  C_5 
REMARK    3  A    between atoms: C_5  and  C_6 
REMARK    4  A    between atoms: C_6  and  C_7 
REMARK    5  A    between atoms: C_7  and  C_8 
REMARK    6  A    between atoms: C_8  and  N_9 
REMARK       I    between atoms: N_9  and  C_10 
REMARK       I    between atoms: C_10  and  N_11 
REMARK    7  A    between atoms: N_11  and  C_12 
ROOT
HETATM    1  C   UNL     1     -45.150  60.942 -46.220  1.00  0.00     0.068 A 
HETATM    2  C   UNL     1     -45.977  60.829 -47.332  1.00  0.00     0.124 A 
HETATM    3  N   UNL     1     -46.829  61.809 -47.685  1.00  0.00    -0.223 NA
HETATM    4  C   UNL     1     -46.881  62.907 -46.907  1.00  0.00     0.129 A 
HETATM    5 CL   UNL     1     -47.993  64.102 -47.431  1.00  0.00    -0.062 Cl
HETATM    6  C   UNL     1     -46.117  63.103 -45.777  1.00  0.00     0.067 A 
HETATM    7  C   UNL     1     -45.230  62.091 -45.432  1.00  0.00     0.051 A 
HETATM    8  C   UNL     1     -44.398  62.227 -44.275  1.00  0.00     0.099 C 
HETATM    9  N   UNL     1     -43.727  62.339 -43.337  1.00  0.00    -0.191 NA
ENDROOT
BRANCH   2  10
HETATM   10  N   UNL     1     -45.907  59.716 -48.196  1.00  0.00    -0.186 NA
HETATM   11  H   UNL     1     -45.501  58.958 -47.626  1.00  0.00     0.154 HD
BRANCH  10  12
HETATM   12  N   UNL     1     -45.153  59.951 -49.370  1.00  0.00    -0.286 N 
HETATM   13  C   UNL     1     -45.624  59.345 -50.524  1.00  0.00     0.232 C 
HETATM   14  O   UNL     1     -46.495  58.478 -50.524  1.00  0.00    -0.272 OA
HETATM   15  H   UNL     1     -44.750  60.883 -49.434  1.00  0.00     0.184 HD
BRANCH  13  16
HETATM   16  C   UNL     1     -45.008  59.873 -51.800  1.00  0.00     0.106 C 
BRANCH  16  17
HETATM   17  C   UNL     1     -44.337  58.775 -52.618  1.00  0.00     0.029 C 
BRANCH  17  18
HETATM   18  C   UNL     1     -42.992  58.388 -52.009  1.00  0.00     0.125 C 
BRANCH  18  19
HETATM   19  N   UNL     1     -42.312  57.385 -52.803  1.00  0.00    -0.343 N 
HETATM   20  C   UNL     1     -42.219  56.083 -52.376  1.00  0.00     0.316 C 
HETATM   21  N   UNL     1     -41.558  55.317 -53.301  1.00  0.00    -0.339 N 
HETATM   22  O   UNL     1     -42.668  55.683 -51.312  1.00  0.00    -0.248 OA
HETATM   23  H   UNL     1     -40.936  55.838 -53.899  1.00  0.00     0.164 HD
HETATM   24  H   UNL     1     -42.257  57.533 -53.799  1.00  0.00     0.164 HD
BRANCH  21  25
HETATM   25  C   UNL     1     -41.207  53.916 -53.100  1.00  0.00     0.086 C 
HETATM   26  C   UNL     1     -40.309  53.680 -51.879  1.00  0.00     0.025 C 
HETATM   27  C   UNL     1     -40.033  52.191 -51.676  1.00  0.00     0.002 C 
HETATM   28  C   UNL     1     -39.455  51.546 -52.934  1.00  0.00     0.000 C 
HETATM   29  C   UNL     1     -40.340  51.789 -54.154  1.00  0.00     0.002 C 
HETATM   30  C   UNL     1     -40.615  53.277 -54.364  1.00  0.00     0.025 C 
ENDBRANCH  21  25
ENDBRANCH  18  19
ENDBRANCH  17  18
ENDBRANCH  16  17
ENDBRANCH  13  16
ENDBRANCH  10  12
ENDBRANCH   2  10
TORSDOF 7
ENDMDL
MODEL 5
REMARK VINA RESULT:      -6.7      2.895      5.919
REMARK  7 active torsions:
REMARK  status: ('A' for Active; 'I' for Inactive)
REMARK    1  A    between atoms: C_2  and  N_3 
REMARK    2  A    between atoms: N_3  and  N_4 
REMARK       I    between atoms: N_4  and  C_5 
REMARK    3  A    between atoms: C_5  and  C_6 
REMARK    4  A    between atoms: C_6  and  C_7 
REMARK    5  A    between atoms: C_7  and  C_8 
REMARK    6  A    between atoms: C_8  and  N_9 
REMARK       I    between atoms: N_9  and  C_10 
REMARK       I    between atoms: C_10  and  N_11 
REMARK    7  A    between atoms: N_11  and  C_12 
ROOT
HETATM    1  C   UNL     1     -43.535  55.741 -58.626  1.00  0.00     0.068 A 
HETATM    2  C   UNL     1     -42.845  56.532 -57.714  1.00  0.00     0.124 A 
HETATM    3  N   UNL     1     -42.404  57.762 -58.033  1.00  0.00    -0.223 NA
HETATM    4  C   UNL     1     -42.626  58.205 -59.285  1.00  0.00     0.129 A 
HETATM    5 CL   UNL     1     -42.030  59.780 -59.603  1.00  0.00    -0.062 Cl
HETATM    6  C   UNL     1     -43.282  57.489 -60.264  1.00  0.00     0.067 A 
HETATM    7  C   UNL     1     -43.746  56.226 -59.918  1.00  0.00     0.051 A 
HETATM    8  C   UNL     1     -44.443  55.427 -60.879  1.00  0.00     0.099 C 
HETATM    9  N   UNL     1     -45.005  54.782 -61.661  1.00  0.00    -0.191 NA
ENDROOT
BRANCH   2  10
HETATM   10  N   UNL     1     -42.645  56.119 -56.380  1.00  0.00    -0.186 NA
HETATM   11  H   UNL     1     -43.040  55.168 -56.330  1.00  0.00     0.154 HD
BRANCH  10  12
HETATM   12  N   UNL     1     -43.228  56.981 -55.421  1.00  0.00    -0.286 N 
HETATM   13  C   UNL     1     -44.016  56.370 -54.459  1.00  0.00     0.232 C 
HETATM   14  O   UNL     1     -44.390  55.202 -54.532  1.00  0.00    -0.272 OA
HETATM   15  H   UNL     1     -42.644  57.769 -55.151  1.00  0.00     0.184 HD
BRANCH  13  16
HETATM   16  C   UNL     1     -44.346  57.252 -53.275  1.00  0.00     0.106 C 
BRANCH  16  17
HETATM   17  C   UNL     1     -43.387  58.432 -53.146  1.00  0.00     0.029 C 
BRANCH  17  18
HETATM   18  C   UNL     1     -42.423  58.224 -51.982  1.00  0.00     0.125 C 
BRANCH  18  19
HETATM   19  N   UNL     1     -42.214  56.819 -51.702  1.00  0.00    -0.343 N 
HETATM   20  C   UNL     1     -41.332  56.069 -52.442  1.00  0.00     0.316 C 
HETATM   21  N   UNL     1     -41.285  54.779 -51.977  1.00  0.00    -0.339 N 
HETATM   22  O   UNL     1     -40.689  56.509 -53.383  1.00  0.00    -0.248 OA
HETATM   23  H   UNL     1     -42.118  54.487 -51.489  1.00  0.00     0.164 HD
HETATM   24  H   UNL     1     -42.399  56.494 -50.766  1.00  0.00     0.164 HD
BRANCH  21  25
HETATM   25  C   UNL     1     -40.523  53.710 -52.611  1.00  0.00     0.086 C 
HETATM   26  C   UNL     1     -41.229  53.092 -53.825  1.00  0.00     0.025 C 
HETATM   27  C   UNL     1     -40.354  52.031 -54.490  1.00  0.00     0.002 C 
HETATM   28  C   UNL     1     -39.905  50.963 -53.496  1.00  0.00     0.000 C 
HETATM   29  C   UNL     1     -39.213  51.575 -52.280  1.00  0.00     0.002 C 
HETATM   30  C   UNL     1     -40.085  52.635 -51.609  1.00  0.00     0.025 C 
ENDBRANCH  21  25
ENDBRANCH  18  19
ENDBRANCH  17  18
ENDBRANCH  16  17
ENDBRANCH  13  16
ENDBRANCH  10  12
ENDBRANCH   2  10
TORSDOF 7
ENDMDL
MODEL 6
REMARK VINA RESULT:      -6.7     16.740     19.743
REMARK  7 active torsions:
REMARK  status: ('A' for Active; 'I' for Inactive)
REMARK    1  A    between atoms: C_2  and  N_3 
REMARK    2  A    between atoms: N_3  and  N_4 
REMARK       I    between atoms: N_4  and  C_5 
REMARK    3  A    between atoms: C_5  and  C_6 
REMARK    4  A    between atoms: C_6  and  C_7 
REMARK    5  A    between atoms: C_7  and  C_8 
REMARK    6  A    between atoms: C_8  and  N_9 
REMARK       I    between atoms: N_9  and  C_10 
REMARK       I    between atoms: C_10  and  N_11 
REMARK    7  A    between atoms: N_11  and  C_12 
ROOT
HETATM    1  C   UNL     1     -30.947  39.255 -55.714  1.00  0.00     0.068 A 
HETATM    2  C   UNL     1     -32.075  39.950 -55.289  1.00  0.00     0.124 A 
HETATM    3  N   UNL     1     -33.277  39.769 -55.865  1.00  0.00    -0.223 NA
HETATM    4  C   UNL     1     -33.358  38.907 -56.896  1.00  0.00     0.129 A 
HETATM    5 CL   UNL     1     -34.926  38.739 -57.568  1.00  0.00    -0.062 Cl
HETATM    6  C   UNL     1     -32.296  38.187 -57.400  1.00  0.00     0.067 A 
HETATM    7  C   UNL     1     -31.062  38.371 -56.787  1.00  0.00     0.051 A 
HETATM    8  C   UNL     1     -29.914  37.652 -57.251  1.00  0.00     0.099 C 
HETATM    9  N   UNL     1     -28.986  37.071 -57.630  1.00  0.00    -0.191 NA
ENDROOT
BRANCH   2  10
HETATM   10  N   UNL     1     -32.034  40.818 -54.178  1.00  0.00    -0.186 NA
HETATM   11  H   UNL     1     -31.143  40.606 -53.703  1.00  0.00     0.154 HD
BRANCH  10  12
HETATM   12  N   UNL     1     -33.140  40.682 -53.306  1.00  0.00    -0.286 N 
HETATM   13  C   UNL     1     -32.834  40.508 -51.965  1.00  0.00     0.232 C 
HETATM   14  O   UNL     1     -31.704  40.257 -51.556  1.00  0.00    -0.272 OA
HETATM   15  H   UNL     1     -33.948  41.247 -53.556  1.00  0.00     0.184 HD
BRANCH  13  16
HETATM   16  C   UNL     1     -34.009  40.699 -51.031  1.00  0.00     0.106 C 
BRANCH  16  17
HETATM   17  C   UNL     1     -34.875  41.890 -51.425  1.00  0.00     0.029 C 
BRANCH  17  18
HETATM   18  C   UNL     1     -36.305  41.447 -51.727  1.00  0.00     0.125 C 
BRANCH  18  19
HETATM   19  N   UNL     1     -36.757  41.935 -53.013  1.00  0.00    -0.343 N 
HETATM   20  C   UNL     1     -36.668  41.157 -54.142  1.00  0.00     0.316 C 
HETATM   21  N   UNL     1     -37.180  41.819 -55.228  1.00  0.00    -0.339 N 
HETATM   22  O   UNL     1     -36.190  40.032 -54.155  1.00  0.00    -0.248 OA
HETATM   23  H   UNL     1     -37.164  42.824 -55.143  1.00  0.00     0.164 HD
HETATM   24  H   UNL     1     -37.468  42.650 -53.020  1.00  0.00     0.164 HD
BRANCH  21  25
HETATM   25  C   UNL     1     -37.138  41.305 -56.591  1.00  0.00     0.086 C 
HETATM   26  C   UNL     1     -36.895  42.391 -57.648  1.00  0.00     0.025 C 
HETATM   27  C   UNL     1     -36.789  41.785 -59.046  1.00  0.00     0.002 C 
HETATM   28  C   UNL     1     -38.008  40.932 -59.387  1.00  0.00     0.000 C 
HETATM   29  C   UNL     1     -38.261  39.858 -58.332  1.00  0.00     0.002 C 
HETATM   30  C   UNL     1     -38.372  40.458 -56.932  1.00  0.00     0.025 C 
ENDBRANCH  21  25
ENDBRANCH  18  19
ENDBRANCH  17  18
ENDBRANCH  16  17
ENDBRANCH  13  16
ENDBRANCH  10  12
ENDBRANCH   2  10
TORSDOF 7
ENDMDL
MODEL 7
REMARK VINA RESULT:      -6.6      2.620      5.949
REMARK  7 active torsions:
REMARK  status: ('A' for Active; 'I' for Inactive)
REMARK    1  A    between atoms: C_2  and  N_3 
REMARK    2  A    between atoms: N_3  and  N_4 
REMARK       I    between atoms: N_4  and  C_5 
REMARK    3  A    between atoms: C_5  and  C_6 
REMARK    4  A    between atoms: C_6  and  C_7 
REMARK    5  A    between atoms: C_7  and  C_8 
REMARK    6  A    between atoms: C_8  and  N_9 
REMARK       I    between atoms: N_9  and  C_10 
REMARK       I    between atoms: C_10  and  N_11 
REMARK    7  A    between atoms: N_11  and  C_12 
ROOT
HETATM    1  C   UNL     1     -40.347  52.921 -54.182  1.00  0.00     0.068 A 
HETATM    2  C   UNL     1     -40.596  54.103 -53.492  1.00  0.00     0.124 A 
HETATM    3  N   UNL     1     -40.511  54.173 -52.151  1.00  0.00    -0.223 NA
HETATM    4  C   UNL     1     -40.201  53.047 -51.481  1.00  0.00     0.129 A 
HETATM    5 CL   UNL     1     -40.115  53.228 -49.779  1.00  0.00    -0.062 Cl
HETATM    6  C   UNL     1     -39.955  51.826 -52.073  1.00  0.00     0.067 A 
HETATM    7  C   UNL     1     -40.031  51.770 -53.459  1.00  0.00     0.051 A 
HETATM    8  C   UNL     1     -39.782  50.539 -54.144  1.00  0.00     0.099 C 
HETATM    9  N   UNL     1     -39.581  49.539 -54.696  1.00  0.00    -0.191 NA
ENDROOT
BRANCH   2  10
HETATM   10  N   UNL     1     -40.870  55.311 -54.168  1.00  0.00    -0.186 NA
HETATM   11  H   UNL     1     -41.648  55.742 -53.646  1.00  0.00     0.154 HD
BRANCH  10  12
HETATM   12  N   UNL     1     -41.188  55.139 -55.537  1.00  0.00    -0.286 N 
HETATM   13  C   UNL     1     -42.536  55.189 -55.855  1.00  0.00     0.232 C 
HETATM   14  O   UNL     1     -43.431  55.156 -55.015  1.00  0.00    -0.272 OA
HETATM   15  H   UNL     1     -40.515  55.547 -56.181  1.00  0.00     0.184 HD
BRANCH  13  16
HETATM   16  C   UNL     1     -42.820  55.337 -57.334  1.00  0.00     0.106 C 
BRANCH  16  17
HETATM   17  C   UNL     1     -43.495  56.665 -57.664  1.00  0.00     0.029 C 
BRANCH  17  18
HETATM   18  C   UNL     1     -42.669  57.839 -57.146  1.00  0.00     0.125 C 
BRANCH  18  19
HETATM   19  N   UNL     1     -43.397  58.614 -56.162  1.00  0.00    -0.343 N 
HETATM   20  C   UNL     1     -42.977  58.680 -54.856  1.00  0.00     0.316 C 
HETATM   21  N   UNL     1     -43.806  59.490 -54.122  1.00  0.00    -0.339 N 
HETATM   22  O   UNL     1     -41.999  58.088 -54.426  1.00  0.00    -0.248 OA
HETATM   23  H   UNL     1     -44.738  59.574 -54.498  1.00  0.00     0.164 HD
HETATM   24  H   UNL     1     -43.952  59.388 -56.492  1.00  0.00     0.164 HD
BRANCH  21  25
HETATM   25  C   UNL     1     -43.691  59.684 -52.682  1.00  0.00     0.086 C 
HETATM   26  C   UNL     1     -45.043  59.866 -51.979  1.00  0.00     0.025 C 
HETATM   27  C   UNL     1     -44.866  59.993 -50.467  1.00  0.00     0.002 C 
HETATM   28  C   UNL     1     -43.888  61.108 -50.103  1.00  0.00     0.000 C 
HETATM   29  C   UNL     1     -42.546  60.937 -50.810  1.00  0.00     0.002 C 
HETATM   30  C   UNL     1     -42.717  60.814 -52.323  1.00  0.00     0.025 C 
ENDBRANCH  21  25
ENDBRANCH  18  19
ENDBRANCH  17  18
ENDBRANCH  16  17
ENDBRANCH  13  16
ENDBRANCH  10  12
ENDBRANCH   2  10
TORSDOF 7
ENDMDL
MODEL 8
REMARK VINA RESULT:      -6.6      3.058      5.150
REMARK  7 active torsions:
REMARK  status: ('A' for Active; 'I' for Inactive)
REMARK    1  A    between atoms: C_2  and  N_3 
REMARK    2  A    between atoms: N_3  and  N_4 
REMARK       I    between atoms: N_4  and  C_5 
REMARK    3  A    between atoms: C_5  and  C_6 
REMARK    4  A    between atoms: C_6  and  C_7 
REMARK    5  A    between atoms: C_7  and  C_8 
REMARK    6  A    between atoms: C_8  and  N_9 
REMARK       I    between atoms: N_9  and  C_10 
REMARK       I    between atoms: C_10  and  N_11 
REMARK    7  A    between atoms: N_11  and  C_12 
ROOT
HETATM    1  C   UNL     1     -42.111  57.733 -54.901  1.00  0.00     0.068 A 
HETATM    2  C   UNL     1     -41.891  59.061 -55.251  1.00  0.00     0.124 A 
HETATM    3  N   UNL     1     -42.185  59.530 -56.477  1.00  0.00    -0.223 NA
HETATM    4  C   UNL     1     -42.681  58.661 -57.380  1.00  0.00     0.129 A 
HETATM    5 CL   UNL     1     -43.026  59.344 -58.914  1.00  0.00    -0.062 Cl
HETATM    6  C   UNL     1     -42.915  57.326 -57.134  1.00  0.00     0.067 A 
HETATM    7  C   UNL     1     -42.622  56.857 -55.860  1.00  0.00     0.051 A 
HETATM    8  C   UNL     1     -42.847  55.483 -55.529  1.00  0.00     0.099 C 
HETATM    9  N   UNL     1     -43.028  54.369 -55.264  1.00  0.00    -0.191 NA
ENDROOT
BRANCH   2  10
HETATM   10  N   UNL     1     -41.424  60.006 -54.312  1.00  0.00    -0.186 NA
HETATM   11  H   UNL     1     -40.570  60.403 -54.731  1.00  0.00     0.154 HD
BRANCH  10  12
HETATM   12  N   UNL     1     -41.177  59.461 -53.030  1.00  0.00    -0.286 N 
HETATM   13  C   UNL     1     -41.983  59.935 -52.006  1.00  0.00     0.232 C 
HETATM   14  O   UNL     1     -42.713  60.916 -52.119  1.00  0.00    -0.272 OA
HETATM   15  H   UNL     1     -40.910  58.480 -53.031  1.00  0.00     0.184 HD
BRANCH  13  16
HETATM   16  C   UNL     1     -41.927  59.110 -50.739  1.00  0.00     0.106 C 
BRANCH  16  17
HETATM   17  C   UNL     1     -40.922  57.966 -50.837  1.00  0.00     0.029 C 
BRANCH  17  18
HETATM   18  C   UNL     1     -41.596  56.625 -50.556  1.00  0.00     0.125 C 
BRANCH  18  19
HETATM   19  N   UNL     1     -40.709  55.513 -50.826  1.00  0.00    -0.343 N 
HETATM   20  C   UNL     1     -41.141  54.411 -51.523  1.00  0.00     0.316 C 
HETATM   21  N   UNL     1     -40.122  53.505 -51.676  1.00  0.00    -0.339 N 
HETATM   22  O   UNL     1     -42.282  54.275 -51.939  1.00  0.00    -0.248 OA
HETATM   23  H   UNL     1     -39.401  53.574 -50.974  1.00  0.00     0.164 HD
HETATM   24  H   UNL     1     -39.718  55.699 -50.855  1.00  0.00     0.164 HD
BRANCH  21  25
HETATM   25  C   UNL     1     -40.284  52.189 -52.281  1.00  0.00     0.086 C 
HETATM   26  C   UNL     1     -39.448  51.097 -51.603  1.00  0.00     0.025 C 
HETATM   27  C   UNL     1     -39.713  49.729 -52.231  1.00  0.00     0.002 C 
HETATM   28  C   UNL     1     -39.495  49.749 -53.742  1.00  0.00     0.000 C 
HETATM   29  C   UNL     1     -40.316  50.843 -54.420  1.00  0.00     0.002 C 
HETATM   30  C   UNL     1     -40.052  52.213 -53.798  1.00  0.00     0.025 C 
ENDBRANCH  21  25
ENDBRANCH  18  19
ENDBRANCH  17  18
ENDBRANCH  16  17
ENDBRANCH  13  16
ENDBRANCH  10  12
ENDBRANCH   2  10
TORSDOF 7
ENDMDL
MODEL 9
REMARK VINA RESULT:      -6.4      2.392      6.332
REMARK  7 active torsions:
REMARK  status: ('A' for Active; 'I' for Inactive)
REMARK    1  A    between atoms: C_2  and  N_3 
REMARK    2  A    between atoms: N_3  and  N_4 
REMARK       I    between atoms: N_4  and  C_5 
REMARK    3  A    between atoms: C_5  and  C_6 
REMARK    4  A    between atoms: C_6  and  C_7 
REMARK    5  A    between atoms: C_7  and  C_8 
REMARK    6  A    between atoms: C_8  and  N_9 
REMARK       I    between atoms: N_9  and  C_10 
REMARK       I    between atoms: C_10  and  N_11 
REMARK    7  A    between atoms: N_11  and  C_12 
ROOT
HETATM    1  C   UNL     1     -42.537  54.345 -52.179  1.00  0.00     0.068 A 
HETATM    2  C   UNL     1     -43.079  54.891 -51.020  1.00  0.00     0.124 A 
HETATM    3  N   UNL     1     -42.427  54.853 -49.845  1.00  0.00    -0.223 NA
HETATM    4  C   UNL     1     -41.229  54.239 -49.811  1.00  0.00     0.129 A 
HETATM    5 CL   UNL     1     -40.470  54.237 -48.274  1.00  0.00    -0.062 Cl
HETATM    6  C   UNL     1     -40.618  53.652 -50.899  1.00  0.00     0.067 A 
HETATM    7  C   UNL     1     -41.295  53.712 -52.110  1.00  0.00     0.051 A 
HETATM    8  C   UNL     1     -40.720  53.132 -53.286  1.00  0.00     0.099 C 
HETATM    9  N   UNL     1     -40.252  52.659 -54.235  1.00  0.00    -0.191 NA
ENDROOT
BRANCH   2  10
HETATM   10  N   UNL     1     -44.306  55.588 -51.036  1.00  0.00    -0.186 NA
HETATM   11  H   UNL     1     -45.015  54.881 -51.285  1.00  0.00     0.154 HD
BRANCH  10  12
HETATM   12  N   UNL     1     -44.327  56.688 -51.926  1.00  0.00    -0.286 N 
HETATM   13  C   UNL     1     -44.874  57.860 -51.427  1.00  0.00     0.232 C 
HETATM   14  O   UNL     1     -45.509  57.916 -50.377  1.00  0.00    -0.272 OA
HETATM   15  H   UNL     1     -43.522  56.746 -52.545  1.00  0.00     0.184 HD
BRANCH  13  16
HETATM   16  C   UNL     1     -44.583  59.086 -52.263  1.00  0.00     0.106 C 
BRANCH  16  17
HETATM   17  C   UNL     1     -43.152  59.584 -52.085  1.00  0.00     0.029 C 
BRANCH  17  18
HETATM   18  C   UNL     1     -42.679  60.335 -53.326  1.00  0.00     0.125 C 
BRANCH  18  19
HETATM   19  N   UNL     1     -42.159  59.434 -54.332  1.00  0.00    -0.343 N 
HETATM   20  C   UNL     1     -42.873  59.148 -55.470  1.00  0.00     0.316 C 
HETATM   21  N   UNL     1     -42.170  58.296 -56.282  1.00  0.00    -0.339 N 
HETATM   22  O   UNL     1     -43.984  59.600 -55.706  1.00  0.00    -0.248 OA
HETATM   23  H   UNL     1     -41.492  57.729 -55.796  1.00  0.00     0.164 HD
HETATM   24  H   UNL     1     -41.157  59.329 -54.397  1.00  0.00     0.164 HD
BRANCH  21  25
HETATM   25  C   UNL     1     -42.696  57.723 -57.515  1.00  0.00     0.086 C 
HETATM   26  C   UNL     1     -42.921  56.207 -57.438  1.00  0.00     0.025 C 
HETATM   27  C   UNL     1     -43.540  55.675 -58.729  1.00  0.00     0.002 C 
HETATM   28  C   UNL     1     -42.712  56.059 -59.954  1.00  0.00     0.000 C 
HETATM   29  C   UNL     1     -42.475  57.566 -60.027  1.00  0.00     0.002 C 
HETATM   30  C   UNL     1     -41.853  58.102 -58.740  1.00  0.00     0.025 C 
ENDBRANCH  21  25
ENDBRANCH  18  19
ENDBRANCH  17  18
ENDBRANCH  16  17
ENDBRANCH  13  16
ENDBRANCH  10  12
ENDBRANCH   2  10
TORSDOF 7
ENDMDL
MODEL 10
REMARK VINA RESULT:      -6.4      2.024      2.627
REMARK  7 active torsions:
REMARK  status: ('A' for Active; 'I' for Inactive)
REMARK    1  A    between atoms: C_2  and  N_3 
REMARK    2  A    between atoms: N_3  and  N_4 
REMARK       I    between atoms: N_4  and  C_5 
REMARK    3  A    between atoms: C_5  and  C_6 
REMARK    4  A    between atoms: C_6  and  C_7 
REMARK    5  A    between atoms: C_7  and  C_8 
REMARK    6  A    between atoms: C_8  and  N_9 
REMARK       I    between atoms: N_9  and  C_10 
REMARK       I    between atoms: C_10  and  N_11 
REMARK    7  A    between atoms: N_11  and  C_12 
ROOT
HETATM    1  C   UNL     1     -41.569  58.804 -53.275  1.00  0.00     0.068 A 
HETATM    2  C   UNL     1     -42.236  59.600 -54.199  1.00  0.00     0.124 A 
HETATM    3  N   UNL     1     -43.494  60.028 -53.989  1.00  0.00    -0.223 NA
HETATM    4  C   UNL     1     -44.110  59.637 -52.857  1.00  0.00     0.129 A 
HETATM    5 CL   UNL     1     -45.708  60.228 -52.672  1.00  0.00    -0.062 Cl
HETATM    6  C   UNL     1     -43.540  58.835 -51.892  1.00  0.00     0.067 A 
HETATM    7  C   UNL     1     -42.235  58.413 -52.113  1.00  0.00     0.051 A 
HETATM    8  C   UNL     1     -41.574  57.583 -51.152  1.00  0.00     0.099 C 
HETATM    9  N   UNL     1     -41.042  56.910 -50.372  1.00  0.00    -0.191 NA
ENDROOT
BRANCH   2  10
HETATM   10  N   UNL     1     -41.600  60.070 -55.368  1.00  0.00    -0.186 NA
HETATM   11  H   UNL     1     -41.505  61.088 -55.233  1.00  0.00     0.154 HD
BRANCH  10  12
HETATM   12  N   UNL     1     -42.296  59.761 -56.561  1.00  0.00    -0.286 N 
HETATM   13  C   UNL     1     -41.708  60.202 -57.736  1.00  0.00     0.232 C 
HETATM   14  O   UNL     1     -40.773  60.999 -57.766  1.00  0.00    -0.272 OA
HETATM   15  H   UNL     1     -42.765  58.859 -56.555  1.00  0.00     0.184 HD
BRANCH  13  16
HETATM   16  C   UNL     1     -42.283  59.581 -58.989  1.00  0.00     0.106 C 
BRANCH  16  17
HETATM   17  C   UNL     1     -42.309  58.057 -58.922  1.00  0.00     0.029 C 
BRANCH  17  18
HETATM   18  C   UNL     1     -43.709  57.552 -58.581  1.00  0.00     0.125 C 
BRANCH  18  19
HETATM   19  N   UNL     1     -43.671  56.239 -57.971  1.00  0.00    -0.343 N 
HETATM   20  C   UNL     1     -43.083  56.040 -56.746  1.00  0.00     0.316 C 
HETATM   21  N   UNL     1     -43.193  54.727 -56.365  1.00  0.00    -0.339 N 
HETATM   22  O   UNL     1     -42.539  56.924 -56.102  1.00  0.00    -0.248 OA
HETATM   23  H   UNL     1     -43.300  54.083 -57.133  1.00  0.00     0.164 HD
HETATM   24  H   UNL     1     -44.385  55.578 -58.236  1.00  0.00     0.164 HD
BRANCH  21  25
HETATM   25  C   UNL     1     -42.582  54.172 -55.163  1.00  0.00     0.086 C 
HETATM   26  C   UNL     1     -43.087  54.818 -53.866  1.00  0.00     0.025 C 
HETATM   27  C   UNL     1     -42.467  54.149 -52.640  1.00  0.00     0.002 C 
HETATM   28  C   UNL     1     -40.942  54.142 -52.708  1.00  0.00     0.000 C 
HETATM   29  C   UNL     1     -40.436  53.512 -54.003  1.00  0.00     0.002 C 
HETATM   30  C   UNL     1     -41.049  54.180 -55.233  1.00  0.00     0.025 C 
ENDBRANCH  21  25
ENDBRANCH  18  19
ENDBRANCH  17  18
ENDBRANCH  16  17
ENDBRANCH  13  16
ENDBRANCH  10  12
ENDBRANCH   2  10
TORSDOF 7
ENDMDL
