MODEL 1
REMARK VINA RESULT:      -9.1      0.000      0.000
REMARK  5 active torsions:
REMARK  status: ('A' for Active; 'I' for Inactive)
REMARK    1  A    between atoms: C_3  and  C_4 
REMARK    2  A    between atoms: N_7  and  C_9 
REMARK    3  A    between atoms: C_9  and  C_10 
REMARK    4  A    between atoms: C_21  and  C_22 
REMARK    5  A    between atoms: C_22  and  N_23 
ROOT
HETATM    1  C   UNL     1     -41.388  59.135 -54.254  1.00  0.00     0.159 C 
HETATM    2  N   UNL     1     -42.328  58.122 -53.804  1.00  0.00    -0.323 N 
HETATM    3  C   UNL     1     -43.187  58.077 -52.159  1.00  0.00     0.134 A 
HETATM    4  N   UNL     1     -44.335  56.860 -52.219  1.00  0.00    -0.134 NA
HETATM    5  N   UNL     1     -44.202  56.161 -54.028  1.00  0.00    -0.133 NA
HETATM    6  C   UNL     1     -43.055  56.904 -54.884  1.00  0.00     0.155 A 
ENDROOT
BRANCH   3   7
HETATM    7  C   UNL     1     -43.085  59.169 -51.324  1.00  0.00     0.060 C 
HETATM    8  C   UNL     1     -44.130  59.455 -52.479  1.00  0.00     0.040 C 
HETATM    9  C   UNL     1     -44.331  57.922 -53.558  1.00  0.00     0.236 C 
HETATM   10  N   UNL     1     -42.687  56.479 -52.944  1.00  0.00    -0.067 N 
HETATM   11  H   UNL     1     -42.027  56.144 -53.637  1.00  0.00     0.280 HD
HETATM   12  C   UNL     1     -41.451  56.977 -51.613  1.00  0.00     0.236 C 
HETATM   13  C   UNL     1     -41.621  58.582 -51.178  1.00  0.00     0.040 C 
BRANCH  10  14
HETATM   14  C   UNL     1     -43.041  54.870 -52.353  1.00  0.00     0.273 C 
BRANCH  14  15
HETATM   15  C   UNL     1     -41.962  53.880 -52.760  1.00  0.00    -0.030 A 
HETATM   16  C   UNL     1     -41.013  53.379 -51.857  1.00  0.00     0.051 A 
HETATM   17  C   UNL     1     -40.046  52.469 -52.281  1.00  0.00     0.117 A 
HETATM   18  F   UNL     1     -39.185  51.981 -51.381  1.00  0.00    -0.206 F 
HETATM   19  C   UNL     1     -39.968  52.069 -53.606  1.00  0.00     0.042 A 
HETATM   20  C   UNL     1     -40.869  52.597 -54.526  1.00  0.00     0.004 A 
HETATM   21  C   UNL     1     -41.858  53.494 -54.108  1.00  0.00     0.009 A 
ENDBRANCH  14  15
ENDBRANCH  10  14
ENDBRANCH   3   7
BRANCH   6  22
HETATM   22  C   UNL     1     -42.565  56.572 -56.265  1.00  0.00     0.315 C 
BRANCH  22  23
HETATM   23  N   UNL     1     -43.596  56.338 -57.381  1.00  0.00    -0.064 N 
HETATM   24  H   UNL     1     -44.295  55.678 -57.019  1.00  0.00     0.280 HD
HETATM   25  C   UNL     1     -44.320  57.659 -57.625  1.00  0.00     0.235 C 
HETATM   26  C   UNL     1     -45.470  57.570 -58.619  1.00  0.00     0.028 C 
HETATM   27  C   UNL     1     -44.999  57.485 -60.066  1.00  0.00     0.002 C 
HETATM   28  C   UNL     1     -44.713  56.071 -60.551  1.00  0.00     0.002 C 
HETATM   29  C   UNL     1     -44.129  55.120 -59.517  1.00  0.00     0.028 C 
HETATM   30  C   UNL     1     -43.026  55.713 -58.648  1.00  0.00     0.235 C 
ENDBRANCH  22  23
ENDBRANCH   6  22
TORSDOF 5
ENDMDL
MODEL 2
REMARK VINA RESULT:      -9.0      1.202      1.909
REMARK  5 active torsions:
REMARK  status: ('A' for Active; 'I' for Inactive)
REMARK    1  A    between atoms: C_3  and  C_4 
REMARK    2  A    between atoms: N_7  and  C_9 
REMARK    3  A    between atoms: C_9  and  C_10 
REMARK    4  A    between atoms: C_21  and  C_22 
REMARK    5  A    between atoms: C_22  and  N_23 
ROOT
HETATM    1  C   UNL     1     -40.707  58.770 -53.588  1.00  0.00     0.159 C 
HETATM    2  N   UNL     1     -41.729  57.808 -53.211  1.00  0.00    -0.323 N 
HETATM    3  C   UNL     1     -42.840  57.913 -51.728  1.00  0.00     0.134 A 
HETATM    4  N   UNL     1     -43.991  56.707 -51.868  1.00  0.00    -0.134 NA
HETATM    5  N   UNL     1     -43.590  55.854 -53.569  1.00  0.00    -0.133 NA
HETATM    6  C   UNL     1     -42.305  56.509 -54.289  1.00  0.00     0.155 A 
ENDROOT
BRANCH   3   7
HETATM    7  C   UNL     1     -42.846  59.071 -50.980  1.00  0.00     0.060 C 
HETATM    8  C   UNL     1     -43.723  59.254 -52.287  1.00  0.00     0.040 C 
HETATM    9  C   UNL     1     -43.784  57.635 -53.250  1.00  0.00     0.236 C 
HETATM   10  N   UNL     1     -42.246  56.258 -52.301  1.00  0.00    -0.067 N 
HETATM   11  H   UNL     1     -41.501  55.870 -52.868  1.00  0.00     0.280 HD
HETATM   12  C   UNL     1     -41.200  56.873 -50.861  1.00  0.00     0.236 C 
HETATM   13  C   UNL     1     -41.418  58.507 -50.589  1.00  0.00     0.040 C 
BRANCH  10  14
HETATM   14  C   UNL     1     -42.686  54.702 -51.631  1.00  0.00     0.273 C 
BRANCH  14  15
HETATM   15  C   UNL     1     -41.606  53.664 -51.887  1.00  0.00    -0.030 A 
HETATM   16  C   UNL     1     -41.304  53.183 -53.169  1.00  0.00     0.051 A 
HETATM   17  C   UNL     1     -40.299  52.233 -53.349  1.00  0.00     0.117 A 
HETATM   18  F   UNL     1     -40.011  51.831 -54.592  1.00  0.00    -0.206 F 
HETATM   19  C   UNL     1     -39.605  51.709 -52.270  1.00  0.00     0.042 A 
HETATM   20  C   UNL     1     -39.928  52.137 -50.985  1.00  0.00     0.004 A 
HETATM   21  C   UNL     1     -40.919  53.106 -50.794  1.00  0.00     0.009 A 
ENDBRANCH  14  15
ENDBRANCH  10  14
ENDBRANCH   3   7
BRANCH   6  22
HETATM   22  C   UNL     1     -41.610  56.055 -55.541  1.00  0.00     0.315 C 
BRANCH  22  23
HETATM   23  N   UNL     1     -42.089  56.603 -56.895  1.00  0.00    -0.064 N 
HETATM   24  H   UNL     1     -41.280  56.604 -57.529  1.00  0.00     0.280 HD
HETATM   25  C   UNL     1     -43.096  55.608 -57.466  1.00  0.00     0.235 C 
HETATM   26  C   UNL     1     -43.576  55.938 -58.872  1.00  0.00     0.028 C 
HETATM   27  C   UNL     1     -44.587  57.079 -58.902  1.00  0.00     0.002 C 
HETATM   28  C   UNL     1     -43.966  58.465 -58.988  1.00  0.00     0.002 C 
HETATM   29  C   UNL     1     -42.651  58.651 -58.245  1.00  0.00     0.028 C 
HETATM   30  C   UNL     1     -42.606  58.035 -56.851  1.00  0.00     0.235 C 
ENDBRANCH  22  23
ENDBRANCH   6  22
TORSDOF 5
ENDMDL
MODEL 3
REMARK VINA RESULT:      -8.5      2.394      6.480
REMARK  5 active torsions:
REMARK  status: ('A' for Active; 'I' for Inactive)
REMARK    1  A    between atoms: C_3  and  C_4 
REMARK    2  A    between atoms: N_7  and  C_9 
REMARK    3  A    between atoms: C_9  and  C_10 
REMARK    4  A    between atoms: C_21  and  C_22 
REMARK    5  A    between atoms: C_22  and  N_23 
ROOT
HETATM    1  C   UNL     1     -43.648  54.275 -52.055  1.00  0.00     0.159 C 
HETATM    2  N   UNL     1     -42.821  55.231 -52.774  1.00  0.00    -0.323 N 
HETATM    3  C   UNL     1     -42.633  57.035 -52.378  1.00  0.00     0.134 A 
HETATM    4  N   UNL     1     -41.401  57.639 -53.334  1.00  0.00    -0.134 NA
HETATM    5  N   UNL     1     -40.764  56.097 -54.332  1.00  0.00    -0.133 NA
HETATM    6  C   UNL     1     -41.597  54.762 -53.983  1.00  0.00     0.155 A 
ENDROOT
BRANCH   3   7
HETATM    7  C   UNL     1     -43.175  57.519 -51.206  1.00  0.00     0.060 C 
HETATM    8  C   UNL     1     -41.861  56.689 -50.903  1.00  0.00     0.040 C 
HETATM    9  C   UNL     1     -41.078  56.112 -52.517  1.00  0.00     0.236 C 
HETATM   10  N   UNL     1     -42.591  56.540 -54.158  1.00  0.00    -0.067 N 
HETATM   11  H   UNL     1     -42.921  55.783 -54.748  1.00  0.00     0.280 HD
HETATM   12  C   UNL     1     -44.262  57.291 -53.722  1.00  0.00     0.236 C 
HETATM   13  C   UNL     1     -44.495  57.363 -52.068  1.00  0.00     0.040 C 
BRANCH  10  14
HETATM   14  C   UNL     1     -42.212  57.572 -55.520  1.00  0.00     0.273 C 
BRANCH  14  15
HETATM   15  C   UNL     1     -43.079  57.242 -56.724  1.00  0.00    -0.030 A 
HETATM   16  C   UNL     1     -42.895  56.086 -57.497  1.00  0.00     0.051 A 
HETATM   17  C   UNL     1     -43.722  55.828 -58.589  1.00  0.00     0.117 A 
HETATM   18  F   UNL     1     -43.543  54.694 -59.276  1.00  0.00    -0.206 F 
HETATM   19  C   UNL     1     -44.713  56.720 -58.966  1.00  0.00     0.042 A 
HETATM   20  C   UNL     1     -44.875  57.897 -58.241  1.00  0.00     0.004 A 
HETATM   21  C   UNL     1     -44.066  58.157 -57.130  1.00  0.00     0.009 A 
ENDBRANCH  14  15
ENDBRANCH  10  14
ENDBRANCH   3   7
BRANCH   6  22
HETATM   22  C   UNL     1     -41.495  53.408 -54.626  1.00  0.00     0.315 C 
BRANCH  22  23
HETATM   23  N   UNL     1     -40.485  52.394 -54.064  1.00  0.00    -0.064 N 
HETATM   24  H   UNL     1     -39.576  52.593 -54.500  1.00  0.00     0.280 HD
HETATM   25  C   UNL     1     -40.330  52.675 -52.572  1.00  0.00     0.235 C 
HETATM   26  C   UNL     1     -39.262  51.837 -51.883  1.00  0.00     0.028 C 
HETATM   27  C   UNL     1     -39.705  50.400 -51.633  1.00  0.00     0.002 C 
HETATM   28  C   UNL     1     -39.441  49.451 -52.792  1.00  0.00     0.002 C 
HETATM   29  C   UNL     1     -39.587  50.047 -54.185  1.00  0.00     0.028 C 
HETATM   30  C   UNL     1     -40.808  50.939 -54.379  1.00  0.00     0.235 C 
ENDBRANCH  22  23
ENDBRANCH   6  22
TORSDOF 5
ENDMDL
MODEL 4
REMARK VINA RESULT:      -8.5      2.141      5.788
REMARK  5 active torsions:
REMARK  status: ('A' for Active; 'I' for Inactive)
REMARK    1  A    between atoms: C_3  and  C_4 
REMARK    2  A    between atoms: N_7  and  C_9 
REMARK    3  A    between atoms: C_9  and  C_10 
REMARK    4  A    between atoms: C_21  and  C_22 
REMARK    5  A    between atoms: C_22  and  N_23 
ROOT
HETATM    1  C   UNL     1     -44.822  57.899 -51.057  1.00  0.00     0.159 C 
HETATM    2  N   UNL     1     -43.589  58.182 -51.774  1.00  0.00    -0.323 N 
HETATM    3  C   UNL     1     -42.934  59.864 -52.207  1.00  0.00     0.134 A 
HETATM    4  N   UNL     1     -41.386  59.666 -52.809  1.00  0.00    -0.134 NA
HETATM    5  N   UNL     1     -41.059  57.754 -52.682  1.00  0.00    -0.133 NA
HETATM    6  C   UNL     1     -42.332  56.958 -52.093  1.00  0.00     0.155 A 
ENDROOT
BRANCH   3   7
HETATM    7  C   UNL     1     -43.552  60.976 -51.676  1.00  0.00     0.060 C 
HETATM    8  C   UNL     1     -42.624  60.290 -50.591  1.00  0.00     0.040 C 
HETATM    9  C   UNL     1     -41.714  58.828 -51.356  1.00  0.00     0.236 C 
HETATM   10  N   UNL     1     -42.658  58.472 -53.392  1.00  0.00    -0.067 N 
HETATM   11  H   UNL     1     -43.056  57.565 -53.609  1.00  0.00     0.280 HD
HETATM   12  C   UNL     1     -44.098  59.544 -53.959  1.00  0.00     0.236 C 
HETATM   13  C   UNL     1     -44.647  60.541 -52.735  1.00  0.00     0.040 C 
BRANCH  10  14
HETATM   14  C   UNL     1     -41.719  58.528 -54.869  1.00  0.00     0.273 C 
BRANCH  14  15
HETATM   15  C   UNL     1     -42.261  57.558 -55.906  1.00  0.00    -0.030 A 
HETATM   16  C   UNL     1     -42.486  56.202 -55.632  1.00  0.00     0.051 A 
HETATM   17  C   UNL     1     -42.989  55.355 -56.618  1.00  0.00     0.117 A 
HETATM   18  F   UNL     1     -43.232  54.077 -56.306  1.00  0.00    -0.206 F 
HETATM   19  C   UNL     1     -43.238  55.816 -57.901  1.00  0.00     0.042 A 
HETATM   20  C   UNL     1     -42.971  57.148 -58.205  1.00  0.00     0.004 A 
HETATM   21  C   UNL     1     -42.487  58.012 -57.217  1.00  0.00     0.009 A 
ENDBRANCH  14  15
ENDBRANCH  10  14
ENDBRANCH   3   7
BRANCH   6  22
HETATM   22  C   UNL     1     -42.519  55.474 -51.960  1.00  0.00     0.315 C 
BRANCH  22  23
HETATM   23  N   UNL     1     -41.347  54.544 -52.313  1.00  0.00    -0.064 N 
HETATM   24  H   UNL     1     -40.594  55.131 -52.692  1.00  0.00     0.280 HD
HETATM   25  C   UNL     1     -40.824  53.944 -51.010  1.00  0.00     0.235 C 
HETATM   26  C   UNL     1     -39.572  53.093 -51.169  1.00  0.00     0.028 C 
HETATM   27  C   UNL     1     -39.859  51.719 -51.763  1.00  0.00     0.002 C 
HETATM   28  C   UNL     1     -39.856  51.680 -53.284  1.00  0.00     0.002 C 
HETATM   29  C   UNL     1     -40.389  52.923 -53.981  1.00  0.00     0.028 C 
HETATM   30  C   UNL     1     -41.663  53.503 -53.378  1.00  0.00     0.235 C 
ENDBRANCH  22  23
ENDBRANCH   6  22
TORSDOF 5
ENDMDL
