MODEL 1
REMARK VINA RESULT:      -7.9      0.000      0.000
REMARK  5 active torsions:
REMARK  status: ('A' for Active; 'I' for Inactive)
REMARK    1  A    between atoms: N_1  and  C_5 
REMARK    2  A    between atoms: C_5  and  C_6 
REMARK    3  A    between atoms: C_6  and  C_7 
REMARK    4  A    between atoms: C_6  and  C_20 
REMARK       I    between atoms: C_7  and  N_9 
REMARK    5  A    between atoms: N_9  and  C_10 
ROOT
HETATM    1  C   UNL     1     -40.852  54.734 -54.314  1.00  0.00     0.232 C 
HETATM    2  O   UNL     1     -39.792  54.882 -54.925  1.00  0.00    -0.272 OA
HETATM    3  N   UNL     1     -42.081  55.256 -54.658  1.00  0.00    -0.327 N 
HETATM    4  H   UNL     1     -42.802  55.275 -53.941  1.00  0.00     0.169 HD
ENDROOT
BRANCH   1   5
HETATM    5  C   UNL     1     -40.852  53.953 -53.004  1.00  0.00     0.136 C 
BRANCH   5   6
HETATM    6  C   UNL     1     -42.247  54.053 -52.349  1.00  0.00     0.248 C 
BRANCH   6   7
HETATM    7  N   UNL     1     -42.176  54.441 -50.909  1.00  0.00    -0.078 N 
HETATM    8  H   UNL     1     -41.541  53.778 -50.421  1.00  0.00     0.274 HD
HETATM    9  H   UNL     1     -41.802  55.389 -50.775  1.00  0.00     0.274 HD
HETATM   10  H   UNL     1     -43.089  54.384 -50.444  1.00  0.00     0.274 HD
ENDBRANCH   6   7
ENDBRANCH   5   6
BRANCH   5  11
HETATM   11  C   UNL     1     -40.415  52.502 -53.134  1.00  0.00    -0.043 A 
HETATM   12  C   UNL     1     -39.809  51.878 -52.029  1.00  0.00     0.008 A 
HETATM   13  C   UNL     1     -39.422  50.540 -52.091  1.00  0.00     0.001 A 
HETATM   14  C   UNL     1     -39.633  49.806 -53.254  1.00  0.00     0.000 A 
HETATM   15  C   UNL     1     -40.231  50.410 -54.357  1.00  0.00     0.001 A 
HETATM   16  C   UNL     1     -40.624  51.749 -54.301  1.00  0.00     0.008 A 
ENDBRANCH   5  11
ENDBRANCH   1   5
BRANCH   3  17
HETATM   17  C   UNL     1     -42.417  55.900 -55.869  1.00  0.00     0.035 A 
HETATM   18  C   UNL     1     -42.276  57.290 -55.916  1.00  0.00     0.030 A 
HETATM   19  C   UNL     1     -42.612  58.000 -57.073  1.00  0.00     0.016 A 
HETATM   20  C   UNL     1     -43.118  57.328 -58.196  1.00  0.00    -0.008 A 
HETATM   21  C   UNL     1     -43.488  57.985 -59.373  1.00  0.00     0.128 A 
HETATM   22  C   UNL     1     -43.280  55.929 -58.156  1.00  0.00    -0.021 A 
HETATM   23  N   UNL     1     -43.996  57.371 -60.464  1.00  0.00    -0.272 NA
HETATM   24  C   UNL     1     -44.149  56.034 -60.390  1.00  0.00     0.117 A 
HETATM   25  C   UNL     1     -43.809  55.280 -59.278  1.00  0.00     0.031 A 
HETATM   26  C   UNL     1     -42.918  55.227 -56.989  1.00  0.00     0.042 A 
ENDBRANCH   3  17
TORSDOF 5
ENDMDL
MODEL 2
REMARK VINA RESULT:      -7.8      3.608      7.683
REMARK  5 active torsions:
REMARK  status: ('A' for Active; 'I' for Inactive)
REMARK    1  A    between atoms: N_1  and  C_5 
REMARK    2  A    between atoms: C_5  and  C_6 
REMARK    3  A    between atoms: C_6  and  C_7 
REMARK    4  A    between atoms: C_6  and  C_20 
REMARK       I    between atoms: C_7  and  N_9 
REMARK    5  A    between atoms: N_9  and  C_10 
ROOT
HETATM    1  C   UNL     1     -42.665  56.027 -52.585  1.00  0.00     0.232 C 
HETATM    2  O   UNL     1     -43.479  55.497 -51.827  1.00  0.00    -0.272 OA
HETATM    3  N   UNL     1     -41.449  55.509 -52.980  1.00  0.00    -0.327 N 
HETATM    4  H   UNL     1     -40.775  56.151 -53.389  1.00  0.00     0.169 HD
ENDROOT
BRANCH   1   5
HETATM    5  C   UNL     1     -42.952  57.425 -53.125  1.00  0.00     0.136 C 
BRANCH   5   6
HETATM    6  C   UNL     1     -44.355  57.445 -53.770  1.00  0.00     0.248 C 
BRANCH   6   7
HETATM    7  N   UNL     1     -44.724  56.133 -54.378  1.00  0.00    -0.078 N 
HETATM    8  H   UNL     1     -44.079  55.944 -55.171  1.00  0.00     0.274 HD
HETATM    9  H   UNL     1     -44.641  55.353 -53.712  1.00  0.00     0.274 HD
HETATM   10  H   UNL     1     -45.678  56.133 -54.758  1.00  0.00     0.274 HD
ENDBRANCH   6   7
ENDBRANCH   5   6
BRANCH   5  11
HETATM   11  C   UNL     1     -42.808  58.539 -52.101  1.00  0.00    -0.043 A 
HETATM   12  C   UNL     1     -41.527  58.837 -51.604  1.00  0.00     0.008 A 
HETATM   13  C   UNL     1     -41.342  59.873 -50.689  1.00  0.00     0.001 A 
HETATM   14  C   UNL     1     -42.430  60.625 -50.257  1.00  0.00     0.000 A 
HETATM   15  C   UNL     1     -43.706  60.342 -50.740  1.00  0.00     0.001 A 
HETATM   16  C   UNL     1     -43.897  59.308 -51.658  1.00  0.00     0.008 A 
ENDBRANCH   5  11
ENDBRANCH   1   5
BRANCH   3  17
HETATM   17  C   UNL     1     -40.975  54.199 -52.755  1.00  0.00     0.035 A 
HETATM   18  C   UNL     1     -40.506  53.898 -51.472  1.00  0.00     0.030 A 
HETATM   19  C   UNL     1     -39.999  52.629 -51.180  1.00  0.00     0.016 A 
HETATM   20  C   UNL     1     -39.932  51.645 -52.178  1.00  0.00    -0.008 A 
HETATM   21  C   UNL     1     -39.419  50.365 -51.949  1.00  0.00     0.128 A 
HETATM   22  C   UNL     1     -40.386  51.939 -53.478  1.00  0.00    -0.021 A 
HETATM   23  N   UNL     1     -39.322  49.401 -52.892  1.00  0.00    -0.272 NA
HETATM   24  C   UNL     1     -39.755  49.717 -54.128  1.00  0.00     0.117 A 
HETATM   25  C   UNL     1     -40.290  50.951 -54.465  1.00  0.00     0.031 A 
HETATM   26  C   UNL     1     -40.913  53.218 -53.750  1.00  0.00     0.042 A 
ENDBRANCH   3  17
TORSDOF 5
ENDMDL
MODEL 3
REMARK VINA RESULT:      -7.8      3.686      7.641
REMARK  5 active torsions:
REMARK  status: ('A' for Active; 'I' for Inactive)
REMARK    1  A    between atoms: N_1  and  C_5 
REMARK    2  A    between atoms: C_5  and  C_6 
REMARK    3  A    between atoms: C_6  and  C_7 
REMARK    4  A    between atoms: C_6  and  C_20 
REMARK       I    between atoms: C_7  and  N_9 
REMARK    5  A    between atoms: N_9  and  C_10 
ROOT
HETATM    1  C   UNL     1     -42.435  55.760 -52.852  1.00  0.00     0.232 C 
HETATM    2  O   UNL     1     -43.249  55.142 -52.163  1.00  0.00    -0.272 OA
HETATM    3  N   UNL     1     -41.246  55.275 -53.356  1.00  0.00    -0.327 N 
HETATM    4  H   UNL     1     -40.560  55.953 -53.678  1.00  0.00     0.169 HD
ENDROOT
BRANCH   1   5
HETATM    5  C   UNL     1     -42.688  57.232 -53.161  1.00  0.00     0.136 C 
BRANCH   5   6
HETATM    6  C   UNL     1     -44.200  57.457 -53.378  1.00  0.00     0.248 C 
BRANCH   6   7
HETATM    7  N   UNL     1     -44.794  56.470 -54.329  1.00  0.00    -0.078 N 
HETATM    8  H   UNL     1     -45.159  56.987 -55.153  1.00  0.00     0.274 HD
HETATM    9  H   UNL     1     -44.105  55.786 -54.667  1.00  0.00     0.274 HD
HETATM   10  H   UNL     1     -45.584  55.959 -53.918  1.00  0.00     0.274 HD
ENDBRANCH   6   7
ENDBRANCH   5   6
BRANCH   5  11
HETATM   11  C   UNL     1     -42.138  58.199 -52.124  1.00  0.00    -0.043 A 
HETATM   12  C   UNL     1     -40.800  58.061 -51.716  1.00  0.00     0.008 A 
HETATM   13  C   UNL     1     -40.243  58.945 -50.792  1.00  0.00     0.001 A 
HETATM   14  C   UNL     1     -41.012  59.977 -50.263  1.00  0.00     0.000 A 
HETATM   15  C   UNL     1     -42.340  60.126 -50.656  1.00  0.00     0.001 A 
HETATM   16  C   UNL     1     -42.902  59.246 -51.583  1.00  0.00     0.008 A 
ENDBRANCH   5  11
ENDBRANCH   1   5
BRANCH   3  17
HETATM   17  C   UNL     1     -40.810  53.932 -53.349  1.00  0.00     0.035 A 
HETATM   18  C   UNL     1     -40.734  53.277 -54.582  1.00  0.00     0.030 A 
HETATM   19  C   UNL     1     -40.334  51.939 -54.653  1.00  0.00     0.016 A 
HETATM   20  C   UNL     1     -40.026  51.228 -53.483  1.00  0.00    -0.008 A 
HETATM   21  C   UNL     1     -39.638  49.885 -53.489  1.00  0.00     0.128 A 
HETATM   22  C   UNL     1     -40.115  51.872 -52.233  1.00  0.00    -0.021 A 
HETATM   23  N   UNL     1     -39.354  49.166 -52.381  1.00  0.00    -0.272 NA
HETATM   24  C   UNL     1     -39.459  49.807 -51.200  1.00  0.00     0.117 A 
HETATM   25  C   UNL     1     -39.826  51.138 -51.076  1.00  0.00     0.031 A 
HETATM   26  C   UNL     1     -40.500  53.226 -52.182  1.00  0.00     0.042 A 
ENDBRANCH   3  17
TORSDOF 5
ENDMDL
MODEL 4
REMARK VINA RESULT:      -7.7      1.550      2.031
REMARK  5 active torsions:
REMARK  status: ('A' for Active; 'I' for Inactive)
REMARK    1  A    between atoms: N_1  and  C_5 
REMARK    2  A    between atoms: C_5  and  C_6 
REMARK    3  A    between atoms: C_6  and  C_7 
REMARK    4  A    between atoms: C_6  and  C_20 
REMARK       I    between atoms: C_7  and  N_9 
REMARK    5  A    between atoms: N_9  and  C_10 
ROOT
HETATM    1  C   UNL     1     -42.196  55.242 -54.626  1.00  0.00     0.232 C 
HETATM    2  O   UNL     1     -43.284  54.762 -54.302  1.00  0.00    -0.272 OA
HETATM    3  N   UNL     1     -41.877  55.818 -55.838  1.00  0.00    -0.327 N 
HETATM    4  H   UNL     1     -40.892  55.932 -56.060  1.00  0.00     0.169 HD
ENDROOT
BRANCH   1   5
HETATM    5  C   UNL     1     -41.029  55.166 -53.647  1.00  0.00     0.136 C 
BRANCH   5   6
HETATM    6  C   UNL     1     -41.394  55.930 -52.355  1.00  0.00     0.248 C 
BRANCH   6   7
HETATM    7  N   UNL     1     -42.279  57.104 -52.617  1.00  0.00    -0.078 N 
HETATM    8  H   UNL     1     -42.255  57.313 -53.635  1.00  0.00     0.274 HD
HETATM    9  H   UNL     1     -43.257  56.925 -52.355  1.00  0.00     0.274 HD
HETATM   10  H   UNL     1     -41.962  57.949 -52.127  1.00  0.00     0.274 HD
ENDBRANCH   6   7
ENDBRANCH   5   6
BRANCH   5  11
HETATM   11  C   UNL     1     -40.561  53.754 -53.329  1.00  0.00    -0.043 A 
HETATM   12  C   UNL     1     -40.394  52.845 -54.388  1.00  0.00     0.008 A 
HETATM   13  C   UNL     1     -39.936  51.550 -54.148  1.00  0.00     0.001 A 
HETATM   14  C   UNL     1     -39.640  51.144 -52.850  1.00  0.00     0.000 A 
HETATM   15  C   UNL     1     -39.801  52.033 -51.790  1.00  0.00     0.001 A 
HETATM   16  C   UNL     1     -40.256  53.332 -52.024  1.00  0.00     0.008 A 
ENDBRANCH   5  11
ENDBRANCH   1   5
BRANCH   3  17
HETATM   17  C   UNL     1     -42.772  56.147 -56.879  1.00  0.00     0.035 A 
HETATM   18  C   UNL     1     -43.418  57.385 -56.803  1.00  0.00     0.030 A 
HETATM   19  C   UNL     1     -44.336  57.770 -57.784  1.00  0.00     0.016 A 
HETATM   20  C   UNL     1     -44.640  56.907 -58.848  1.00  0.00    -0.008 A 
HETATM   21  C   UNL     1     -45.563  57.230 -59.848  1.00  0.00     0.128 A 
HETATM   22  C   UNL     1     -44.010  55.651 -58.928  1.00  0.00    -0.021 A 
HETATM   23  N   UNL     1     -45.893  56.415 -60.874  1.00  0.00    -0.272 NA
HETATM   24  C   UNL     1     -45.281  55.216 -60.917  1.00  0.00     0.117 A 
HETATM   25  C   UNL     1     -44.345  54.795 -59.984  1.00  0.00     0.031 A 
HETATM   26  C   UNL     1     -43.072  55.287 -57.941  1.00  0.00     0.042 A 
ENDBRANCH   3  17
TORSDOF 5
ENDMDL
MODEL 5
REMARK VINA RESULT:      -7.5      1.209      2.265
REMARK  5 active torsions:
REMARK  status: ('A' for Active; 'I' for Inactive)
REMARK    1  A    between atoms: N_1  and  C_5 
REMARK    2  A    between atoms: C_5  and  C_6 
REMARK    3  A    between atoms: C_6  and  C_7 
REMARK    4  A    between atoms: C_6  and  C_20 
REMARK       I    between atoms: C_7  and  N_9 
REMARK    5  A    between atoms: N_9  and  C_10 
ROOT
HETATM    1  C   UNL     1     -41.401  55.358 -54.402  1.00  0.00     0.232 C 
HETATM    2  O   UNL     1     -40.255  55.734 -54.657  1.00  0.00    -0.272 OA
HETATM    3  N   UNL     1     -42.541  55.641 -55.124  1.00  0.00    -0.327 N 
HETATM    4  H   UNL     1     -43.437  55.492 -54.666  1.00  0.00     0.169 HD
ENDROOT
BRANCH   1   5
HETATM    5  C   UNL     1     -41.651  54.543 -53.136  1.00  0.00     0.136 C 
BRANCH   5   6
HETATM    6  C   UNL     1     -43.171  54.354 -52.942  1.00  0.00     0.248 C 
BRANCH   6   7
HETATM    7  N   UNL     1     -43.714  55.192 -51.832  1.00  0.00    -0.078 N 
HETATM    8  H   UNL     1     -43.455  56.182 -52.011  1.00  0.00     0.274 HD
HETATM    9  H   UNL     1     -44.739  55.142 -51.767  1.00  0.00     0.274 HD
HETATM   10  H   UNL     1     -43.318  54.935 -50.920  1.00  0.00     0.274 HD
ENDBRANCH   6   7
ENDBRANCH   5   6
BRANCH   5  11
HETATM   11  C   UNL     1     -40.927  53.206 -53.093  1.00  0.00    -0.043 A 
HETATM   12  C   UNL     1     -40.956  52.386 -54.234  1.00  0.00     0.008 A 
HETATM   13  C   UNL     1     -40.279  51.167 -54.251  1.00  0.00     0.001 A 
HETATM   14  C   UNL     1     -39.566  50.749 -53.132  1.00  0.00     0.000 A 
HETATM   15  C   UNL     1     -39.528  51.550 -51.993  1.00  0.00     0.001 A 
HETATM   16  C   UNL     1     -40.201  52.773 -51.971  1.00  0.00     0.008 A 
ENDBRANCH   5  11
ENDBRANCH   1   5
BRANCH   3  17
HETATM   17  C   UNL     1     -42.607  56.252 -56.395  1.00  0.00     0.035 A 
HETATM   18  C   UNL     1     -42.972  55.444 -57.476  1.00  0.00     0.030 A 
HETATM   19  C   UNL     1     -43.036  55.973 -58.769  1.00  0.00     0.016 A 
HETATM   20  C   UNL     1     -42.710  57.317 -59.002  1.00  0.00    -0.008 A 
HETATM   21  C   UNL     1     -42.738  57.896 -60.274  1.00  0.00     0.128 A 
HETATM   22  C   UNL     1     -42.325  58.137 -57.924  1.00  0.00    -0.021 A 
HETATM   23  N   UNL     1     -42.412  59.181 -60.536  1.00  0.00    -0.272 NA
HETATM   24  C   UNL     1     -42.037  59.937 -59.486  1.00  0.00     0.117 A 
HETATM   25  C   UNL     1     -41.981  59.470 -58.181  1.00  0.00     0.031 A 
HETATM   26  C   UNL     1     -42.286  57.594 -56.625  1.00  0.00     0.042 A 
ENDBRANCH   3  17
TORSDOF 5
ENDMDL
MODEL 6
REMARK VINA RESULT:      -7.5      3.588      7.482
REMARK  5 active torsions:
REMARK  status: ('A' for Active; 'I' for Inactive)
REMARK    1  A    between atoms: N_1  and  C_5 
REMARK    2  A    between atoms: C_5  and  C_6 
REMARK    3  A    between atoms: C_6  and  C_7 
REMARK    4  A    between atoms: C_6  and  C_20 
REMARK       I    between atoms: C_7  and  N_9 
REMARK    5  A    between atoms: N_9  and  C_10 
ROOT
HETATM    1  C   UNL     1     -42.075  55.897 -51.110  1.00  0.00     0.232 C 
HETATM    2  O   UNL     1     -42.927  55.282 -50.467  1.00  0.00    -0.272 OA
HETATM    3  N   UNL     1     -40.946  55.367 -51.698  1.00  0.00    -0.327 N 
HETATM    4  H   UNL     1     -40.208  56.014 -51.967  1.00  0.00     0.169 HD
ENDROOT
BRANCH   1   5
HETATM    5  C   UNL     1     -42.201  57.411 -51.254  1.00  0.00     0.136 C 
BRANCH   5   6
HETATM    6  C   UNL     1     -40.939  58.085 -50.672  1.00  0.00     0.248 C 
BRANCH   6   7
HETATM    7  N   UNL     1     -41.267  59.133 -49.659  1.00  0.00    -0.078 N 
HETATM    8  H   UNL     1     -41.539  58.660 -48.774  1.00  0.00     0.274 HD
HETATM    9  H   UNL     1     -40.467  59.746 -49.455  1.00  0.00     0.274 HD
HETATM   10  H   UNL     1     -42.060  59.718 -49.946  1.00  0.00     0.274 HD
ENDBRANCH   6   7
ENDBRANCH   5   6
BRANCH   5  11
HETATM   11  C   UNL     1     -42.469  57.891 -52.671  1.00  0.00    -0.043 A 
HETATM   12  C   UNL     1     -43.702  57.577 -53.268  1.00  0.00     0.008 A 
HETATM   13  C   UNL     1     -44.005  58.024 -54.554  1.00  0.00     0.001 A 
HETATM   14  C   UNL     1     -43.084  58.790 -55.261  1.00  0.00     0.000 A 
HETATM   15  C   UNL     1     -41.857  59.109 -54.684  1.00  0.00     0.001 A 
HETATM   16  C   UNL     1     -41.549  58.667 -53.396  1.00  0.00     0.008 A 
ENDBRANCH   5  11
ENDBRANCH   1   5
BRANCH   3  17
HETATM   17  C   UNL     1     -40.633  53.999 -51.847  1.00  0.00     0.035 A 
HETATM   18  C   UNL     1     -40.290  53.290 -50.692  1.00  0.00     0.030 A 
HETATM   19  C   UNL     1     -39.946  51.937 -50.764  1.00  0.00     0.016 A 
HETATM   20  C   UNL     1     -39.915  51.278 -52.002  1.00  0.00    -0.008 A 
HETATM   21  C   UNL     1     -39.561  49.932 -52.138  1.00  0.00     0.128 A 
HETATM   22  C   UNL     1     -40.243  51.984 -53.175  1.00  0.00    -0.021 A 
HETATM   23  N   UNL     1     -39.503  49.273 -53.316  1.00  0.00    -0.272 NA
HETATM   24  C   UNL     1     -39.811  49.979 -54.422  1.00  0.00     0.117 A 
HETATM   25  C   UNL     1     -40.184  51.315 -54.404  1.00  0.00     0.031 A 
HETATM   26  C   UNL     1     -40.608  53.342 -53.082  1.00  0.00     0.042 A 
ENDBRANCH   3  17
TORSDOF 5
ENDMDL
MODEL 7
REMARK VINA RESULT:      -7.4      2.896      7.404
REMARK  5 active torsions:
REMARK  status: ('A' for Active; 'I' for Inactive)
REMARK    1  A    between atoms: N_1  and  C_5 
REMARK    2  A    between atoms: C_5  and  C_6 
REMARK    3  A    between atoms: C_6  and  C_7 
REMARK    4  A    between atoms: C_6  and  C_20 
REMARK       I    between atoms: C_7  and  N_9 
REMARK    5  A    between atoms: N_9  and  C_10 
ROOT
HETATM    1  C   UNL     1     -42.316  55.908 -52.339  1.00  0.00     0.232 C 
HETATM    2  O   UNL     1     -43.158  55.218 -51.761  1.00  0.00    -0.272 OA
HETATM    3  N   UNL     1     -41.140  55.466 -52.909  1.00  0.00    -0.327 N 
HETATM    4  H   UNL     1     -40.427  56.162 -53.116  1.00  0.00     0.169 HD
ENDROOT
BRANCH   1   5
HETATM    5  C   UNL     1     -42.513  57.419 -52.409  1.00  0.00     0.136 C 
BRANCH   5   6
HETATM    6  C   UNL     1     -41.426  58.116 -51.562  1.00  0.00     0.248 C 
BRANCH   6   7
HETATM    7  N   UNL     1     -41.387  57.614 -50.157  1.00  0.00    -0.078 N 
HETATM    8  H   UNL     1     -41.412  56.576 -50.177  1.00  0.00     0.274 HD
HETATM    9  H   UNL     1     -40.532  57.898 -49.661  1.00  0.00     0.274 HD
HETATM   10  H   UNL     1     -42.197  57.926 -49.608  1.00  0.00     0.274 HD
ENDBRANCH   6   7
ENDBRANCH   5   6
BRANCH   5  11
HETATM   11  C   UNL     1     -42.551  57.987 -53.819  1.00  0.00    -0.043 A 
HETATM   12  C   UNL     1     -41.848  59.175 -54.087  1.00  0.00     0.008 A 
HETATM   13  C   UNL     1     -41.827  59.714 -55.373  1.00  0.00     0.001 A 
HETATM   14  C   UNL     1     -42.506  59.078 -56.408  1.00  0.00     0.000 A 
HETATM   15  C   UNL     1     -43.208  57.901 -56.158  1.00  0.00     0.001 A 
HETATM   16  C   UNL     1     -43.230  57.354 -54.873  1.00  0.00     0.008 A 
ENDBRANCH   5  11
ENDBRANCH   1   5
BRANCH   3  17
HETATM   17  C   UNL     1     -40.753  54.125 -53.116  1.00  0.00     0.035 A 
HETATM   18  C   UNL     1     -40.785  53.644 -54.428  1.00  0.00     0.030 A 
HETATM   19  C   UNL     1     -40.438  52.318 -54.708  1.00  0.00     0.016 A 
HETATM   20  C   UNL     1     -40.075  51.446 -53.671  1.00  0.00    -0.008 A 
HETATM   21  C   UNL     1     -39.737  50.107 -53.888  1.00  0.00     0.128 A 
HETATM   22  C   UNL     1     -40.054  51.914 -52.343  1.00  0.00    -0.021 A 
HETATM   23  N   UNL     1     -39.402  49.236 -52.911  1.00  0.00    -0.272 NA
HETATM   24  C   UNL     1     -39.401  49.711 -51.650  1.00  0.00     0.117 A 
HETATM   25  C   UNL     1     -39.712  51.021 -51.320  1.00  0.00     0.031 A 
HETATM   26  C   UNL     1     -40.387  53.258 -52.081  1.00  0.00     0.042 A 
ENDBRANCH   3  17
TORSDOF 5
ENDMDL
MODEL 8
REMARK VINA RESULT:      -7.3      1.686      2.888
REMARK  5 active torsions:
REMARK  status: ('A' for Active; 'I' for Inactive)
REMARK    1  A    between atoms: N_1  and  C_5 
REMARK    2  A    between atoms: C_5  and  C_6 
REMARK    3  A    between atoms: C_6  and  C_7 
REMARK    4  A    between atoms: C_6  and  C_20 
REMARK       I    between atoms: C_7  and  N_9 
REMARK    5  A    between atoms: N_9  and  C_10 
ROOT
HETATM    1  C   UNL     1     -40.973  53.949 -54.369  1.00  0.00     0.232 C 
HETATM    2  O   UNL     1     -39.898  54.080 -54.957  1.00  0.00    -0.272 OA
HETATM    3  N   UNL     1     -42.136  54.650 -54.613  1.00  0.00    -0.327 N 
HETATM    4  H   UNL     1     -42.857  54.630 -53.896  1.00  0.00     0.169 HD
ENDROOT
BRANCH   1   5
HETATM    5  C   UNL     1     -41.069  52.969 -53.204  1.00  0.00     0.136 C 
BRANCH   5   6
HETATM    6  C   UNL     1     -39.948  51.914 -53.330  1.00  0.00     0.248 C 
BRANCH   6   7
HETATM    7  N   UNL     1     -40.189  50.955 -54.448  1.00  0.00    -0.078 N 
HETATM    8  H   UNL     1     -40.626  50.097 -54.057  1.00  0.00     0.274 HD
HETATM    9  H   UNL     1     -40.824  51.334 -55.162  1.00  0.00     0.274 HD
HETATM   10  H   UNL     1     -39.318  50.667 -54.910  1.00  0.00     0.274 HD
ENDBRANCH   6   7
ENDBRANCH   5   6
BRANCH   5  11
HETATM   11  C   UNL     1     -41.053  53.618 -51.829  1.00  0.00    -0.043 A 
HETATM   12  C   UNL     1     -42.256  54.125 -51.308  1.00  0.00     0.008 A 
HETATM   13  C   UNL     1     -42.295  54.699 -50.038  1.00  0.00     0.001 A 
HETATM   14  C   UNL     1     -41.137  54.777 -49.271  1.00  0.00     0.000 A 
HETATM   15  C   UNL     1     -39.937  54.279 -49.773  1.00  0.00     0.001 A 
HETATM   16  C   UNL     1     -39.891  53.701 -51.043  1.00  0.00     0.008 A 
ENDBRANCH   5  11
ENDBRANCH   1   5
BRANCH   3  17
HETATM   17  C   UNL     1     -42.390  55.515 -55.699  1.00  0.00     0.035 A 
HETATM   18  C   UNL     1     -42.227  56.886 -55.478  1.00  0.00     0.030 A 
HETATM   19  C   UNL     1     -42.483  57.806 -56.499  1.00  0.00     0.016 A 
HETATM   20  C   UNL     1     -42.930  57.367 -57.754  1.00  0.00    -0.008 A 
HETATM   21  C   UNL     1     -43.219  58.240 -58.807  1.00  0.00     0.128 A 
HETATM   22  C   UNL     1     -43.113  55.990 -57.985  1.00  0.00    -0.021 A 
HETATM   23  N   UNL     1     -43.669  57.852 -60.020  1.00  0.00    -0.272 NA
HETATM   24  C   UNL     1     -43.844  56.528 -60.207  1.00  0.00     0.117 A 
HETATM   25  C   UNL     1     -43.582  55.573 -59.237  1.00  0.00     0.031 A 
HETATM   26  C   UNL     1     -42.831  55.074 -56.951  1.00  0.00     0.042 A 
ENDBRANCH   3  17
TORSDOF 5
ENDMDL
MODEL 9
REMARK VINA RESULT:      -7.3      1.614      2.420
REMARK  5 active torsions:
REMARK  status: ('A' for Active; 'I' for Inactive)
REMARK    1  A    between atoms: N_1  and  C_5 
REMARK    2  A    between atoms: C_5  and  C_6 
REMARK    3  A    between atoms: C_6  and  C_7 
REMARK    4  A    between atoms: C_6  and  C_20 
REMARK       I    between atoms: C_7  and  N_9 
REMARK    5  A    between atoms: N_9  and  C_10 
ROOT
HETATM    1  C   UNL     1     -41.414  54.195 -53.089  1.00  0.00     0.232 C 
HETATM    2  O   UNL     1     -42.586  53.921 -52.823  1.00  0.00    -0.272 OA
HETATM    3  N   UNL     1     -40.965  54.937 -54.162  1.00  0.00    -0.327 N 
HETATM    4  H   UNL     1     -39.980  54.866 -54.403  1.00  0.00     0.169 HD
ENDROOT
BRANCH   1   5
HETATM    5  C   UNL     1     -40.301  53.635 -52.210  1.00  0.00     0.136 C 
BRANCH   5   6
HETATM    6  C   UNL     1     -40.617  53.939 -50.729  1.00  0.00     0.248 C 
BRANCH   6   7
HETATM    7  N   UNL     1     -41.037  55.355 -50.514  1.00  0.00    -0.078 N 
HETATM    8  H   UNL     1     -40.487  55.745 -49.723  1.00  0.00     0.274 HD
HETATM    9  H   UNL     1     -40.866  55.946 -51.338  1.00  0.00     0.274 HD
HETATM   10  H   UNL     1     -42.029  55.433 -50.259  1.00  0.00     0.274 HD
ENDBRANCH   6   7
ENDBRANCH   5   6
BRANCH   5  11
HETATM   11  C   UNL     1     -40.021  52.154 -52.412  1.00  0.00    -0.043 A 
HETATM   12  C   UNL     1     -39.768  51.354 -51.284  1.00  0.00     0.008 A 
HETATM   13  C   UNL     1     -39.539  49.985 -51.419  1.00  0.00     0.001 A 
HETATM   14  C   UNL     1     -39.557  49.396 -52.679  1.00  0.00     0.000 A 
HETATM   15  C   UNL     1     -39.805  50.175 -53.807  1.00  0.00     0.001 A 
HETATM   16  C   UNL     1     -40.038  51.545 -53.678  1.00  0.00     0.008 A 
ENDBRANCH   5  11
ENDBRANCH   1   5
BRANCH   3  17
HETATM   17  C   UNL     1     -41.754  55.687 -55.060  1.00  0.00     0.035 A 
HETATM   18  C   UNL     1     -42.263  55.019 -56.178  1.00  0.00     0.030 A 
HETATM   19  C   UNL     1     -43.034  55.702 -57.124  1.00  0.00     0.016 A 
HETATM   20  C   UNL     1     -43.285  57.074 -56.977  1.00  0.00    -0.008 A 
HETATM   21  C   UNL     1     -44.033  57.813 -57.899  1.00  0.00     0.128 A 
HETATM   22  C   UNL     1     -42.765  57.762 -55.864  1.00  0.00    -0.021 A 
HETATM   23  N   UNL     1     -44.277  59.139 -57.797  1.00  0.00    -0.272 NA
HETATM   24  C   UNL     1     -43.757  59.770 -56.727  1.00  0.00     0.117 A 
HETATM   25  C   UNL     1     -43.008  59.137 -55.747  1.00  0.00     0.031 A 
HETATM   26  C   UNL     1     -42.008  57.055 -54.909  1.00  0.00     0.042 A 
ENDBRANCH   3  17
TORSDOF 5
ENDMDL
MODEL 10
REMARK VINA RESULT:      -7.2      2.015      7.795
REMARK  5 active torsions:
REMARK  status: ('A' for Active; 'I' for Inactive)
REMARK    1  A    between atoms: N_1  and  C_5 
REMARK    2  A    between atoms: C_5  and  C_6 
REMARK    3  A    between atoms: C_6  and  C_7 
REMARK    4  A    between atoms: C_6  and  C_20 
REMARK       I    between atoms: C_7  and  N_9 
REMARK    5  A    between atoms: N_9  and  C_10 
ROOT
HETATM    1  C   UNL     1     -42.733  56.913 -57.441  1.00  0.00     0.232 C 
HETATM    2  O   UNL     1     -42.531  57.896 -56.725  1.00  0.00    -0.272 OA
HETATM    3  N   UNL     1     -42.649  55.589 -57.065  1.00  0.00    -0.327 N 
HETATM    4  H   UNL     1     -42.584  54.893 -57.804  1.00  0.00     0.169 HD
ENDROOT
BRANCH   1   5
HETATM    5  C   UNL     1     -43.054  57.122 -58.918  1.00  0.00     0.136 C 
BRANCH   5   6
HETATM    6  C   UNL     1     -42.119  56.241 -59.774  1.00  0.00     0.248 C 
BRANCH   6   7
HETATM    7  N   UNL     1     -40.931  56.992 -60.280  1.00  0.00    -0.078 N 
HETATM    8  H   UNL     1     -41.254  57.674 -60.995  1.00  0.00     0.274 HD
HETATM    9  H   UNL     1     -40.454  57.519 -59.537  1.00  0.00     0.274 HD
HETATM   10  H   UNL     1     -40.246  56.378 -60.734  1.00  0.00     0.274 HD
ENDBRANCH   6   7
ENDBRANCH   5   6
BRANCH   5  11
HETATM   11  C   UNL     1     -44.511  56.886 -59.287  1.00  0.00    -0.043 A 
HETATM   12  C   UNL     1     -45.501  57.652 -58.647  1.00  0.00     0.008 A 
HETATM   13  C   UNL     1     -46.847  57.494 -58.977  1.00  0.00     0.001 A 
HETATM   14  C   UNL     1     -47.223  56.571 -59.947  1.00  0.00     0.000 A 
HETATM   15  C   UNL     1     -46.254  55.803 -60.590  1.00  0.00     0.001 A 
HETATM   16  C   UNL     1     -44.905  55.959 -60.266  1.00  0.00     0.008 A 
ENDBRANCH   5  11
ENDBRANCH   1   5
BRANCH   3  17
HETATM   17  C   UNL     1     -42.504  55.090 -55.752  1.00  0.00     0.035 A 
HETATM   18  C   UNL     1     -43.485  55.443 -54.821  1.00  0.00     0.030 A 
HETATM   19  C   UNL     1     -43.397  55.007 -53.495  1.00  0.00     0.016 A 
HETATM   20  C   UNL     1     -42.307  54.229 -53.076  1.00  0.00    -0.008 A 
HETATM   21  C   UNL     1     -42.156  53.779 -51.761  1.00  0.00     0.128 A 
HETATM   22  C   UNL     1     -41.304  53.880 -54.000  1.00  0.00    -0.021 A 
HETATM   23  N   UNL     1     -41.110  53.045 -51.320  1.00  0.00    -0.272 NA
HETATM   24  C   UNL     1     -40.161  52.737 -52.226  1.00  0.00     0.117 A 
HETATM   25  C   UNL     1     -40.213  53.122 -53.557  1.00  0.00     0.031 A 
HETATM   26  C   UNL     1     -41.419  54.311 -55.337  1.00  0.00     0.042 A 
ENDBRANCH   3  17
TORSDOF 5
ENDMDL
