MODEL 1
REMARK VINA RESULT:      -8.8      0.000      0.000
REMARK  3 active torsions:
REMARK  status: ('A' for Active; 'I' for Inactive)
REMARK    1  A    between atoms: C_10  and  N_11 
REMARK       I    between atoms: N_11  and  C_12 
REMARK    2  A    between atoms: C_12  and  C_13 
REMARK    3  A    between atoms: C_18  and  N_19 
ROOT
HETATM    1  N   UNL     1     -41.779  55.910 -54.561  1.00  0.00    -0.323 N 
HETATM    2  C   UNL     1     -42.465  55.802 -53.368  1.00  0.00     0.258 C 
HETATM    3  O   UNL     1     -43.654  56.023 -53.173  1.00  0.00    -0.267 OA
HETATM    4  H   UNL     1     -40.792  55.682 -54.542  1.00  0.00     0.169 HD
ENDROOT
BRANCH   2   5
HETATM    5  C   UNL     1     -41.671  55.255 -52.236  1.00  0.00     0.056 A 
HETATM    6  C   UNL     1     -41.252  56.004 -51.135  1.00  0.00     0.050 A 
HETATM    7 CL   UNL     1     -41.683  57.657 -50.893  1.00  0.00    -0.083 Cl
HETATM    8  C   UNL     1     -40.455  55.398 -50.165  1.00  0.00     0.027 A 
HETATM    9  C   UNL     1     -40.073  54.056 -50.293  1.00  0.00     0.031 A 
HETATM   10  C   UNL     1     -40.486  53.282 -51.383  1.00  0.00     0.038 A 
HETATM   11  C   UNL     1     -41.306  53.898 -52.339  1.00  0.00     0.048 A 
BRANCH  10  12
HETATM   12  N   UNL     1     -40.082  51.928 -51.540  1.00  0.00    -0.318 N 
HETATM   13  C   UNL     1     -39.670  51.318 -52.735  1.00  0.00     0.224 C 
HETATM   14  O   UNL     1     -39.519  51.811 -53.842  1.00  0.00    -0.273 OA
HETATM   15  C   UNL     1     -39.515  49.839 -52.468  1.00  0.00     0.105 C 
HETATM   16  C   UNL     1     -39.396  49.769 -50.959  1.00  0.00     0.029 C 
HETATM   17  C   UNL     1     -40.222  50.946 -50.488  1.00  0.00     0.133 C 
ENDBRANCH  10  12
ENDBRANCH   2   5
BRANCH   1  18
HETATM   18  C   UNL     1     -42.292  56.264 -55.826  1.00  0.00     0.035 A 
HETATM   19  C   UNL     1     -42.379  57.574 -56.294  1.00  0.00     0.032 A 
HETATM   20  C   UNL     1     -42.933  57.869 -57.549  1.00  0.00     0.033 A 
HETATM   21  C   UNL     1     -43.406  56.802 -58.318  1.00  0.00     0.042 A 
HETATM   22  N   UNL     1     -44.005  56.792 -59.557  1.00  0.00    -0.359 N 
HETATM   23  C   UNL     1     -43.327  55.481 -57.890  1.00  0.00    -0.005 A 
HETATM   24  C   UNL     1     -44.324  55.507 -59.925  1.00  0.00     0.006 A 
HETATM   25  H   UNL     1     -44.192  57.620 -60.105  1.00  0.00     0.166 HD
HETATM   26  C   UNL     1     -45.006  55.195 -61.205  1.00  0.00     0.068 C 
HETATM   27  C   UNL     1     -43.900  54.674 -58.910  1.00  0.00     0.038 A 
HETATM   28  C   UNL     1     -42.753  55.208 -56.631  1.00  0.00     0.043 A 
ENDBRANCH   1  18
TORSDOF 3
ENDMDL
MODEL 2
REMARK VINA RESULT:      -8.5      3.298      9.002
REMARK  3 active torsions:
REMARK  status: ('A' for Active; 'I' for Inactive)
REMARK    1  A    between atoms: C_10  and  N_11 
REMARK       I    between atoms: N_11  and  C_12 
REMARK    2  A    between atoms: C_12  and  C_13 
REMARK    3  A    between atoms: C_18  and  N_19 
ROOT
HETATM    1  N   UNL     1     -41.700  55.676 -56.278  1.00  0.00    -0.323 N 
HETATM    2  C   UNL     1     -42.858  56.360 -56.588  1.00  0.00     0.258 C 
HETATM    3  O   UNL     1     -43.828  56.544 -55.863  1.00  0.00    -0.267 OA
HETATM    4  H   UNL     1     -40.993  55.624 -57.003  1.00  0.00     0.169 HD
ENDROOT
BRANCH   2   5
HETATM    5  C   UNL     1     -42.857  57.024 -57.919  1.00  0.00     0.056 A 
HETATM    6  C   UNL     1     -43.271  56.412 -59.103  1.00  0.00     0.050 A 
HETATM    7 CL   UNL     1     -43.934  54.820 -59.168  1.00  0.00    -0.083 Cl
HETATM    8  C   UNL     1     -43.164  57.113 -60.304  1.00  0.00     0.027 A 
HETATM    9  C   UNL     1     -42.641  58.412 -60.326  1.00  0.00     0.031 A 
HETATM   10  C   UNL     1     -42.225  59.050 -59.151  1.00  0.00     0.038 A 
HETATM   11  C   UNL     1     -42.361  58.342 -57.948  1.00  0.00     0.048 A 
BRANCH  10  12
HETATM   12  N   UNL     1     -41.667  60.357 -59.162  1.00  0.00    -0.318 N 
HETATM   13  C   UNL     1     -41.297  61.111 -58.037  1.00  0.00     0.224 C 
HETATM   14  O   UNL     1     -41.319  60.800 -56.857  1.00  0.00    -0.273 OA
HETATM   15  C   UNL     1     -40.927  62.497 -58.512  1.00  0.00     0.105 C 
HETATM   16  C   UNL     1     -40.654  62.296 -59.989  1.00  0.00     0.029 C 
HETATM   17  C   UNL     1     -41.577  61.156 -60.364  1.00  0.00     0.133 C 
ENDBRANCH  10  12
ENDBRANCH   2   5
BRANCH   1  18
HETATM   18  C   UNL     1     -41.355  55.066 -55.055  1.00  0.00     0.035 A 
HETATM   19  C   UNL     1     -41.348  55.728 -53.827  1.00  0.00     0.032 A 
HETATM   20  C   UNL     1     -40.958  55.079 -52.647  1.00  0.00     0.033 A 
HETATM   21  C   UNL     1     -40.566  53.741 -52.739  1.00  0.00     0.042 A 
HETATM   22  N   UNL     1     -40.125  52.871 -51.768  1.00  0.00    -0.359 N 
HETATM   23  C   UNL     1     -40.570  53.043 -53.943  1.00  0.00    -0.005 A 
HETATM   24  C   UNL     1     -39.832  51.646 -52.317  1.00  0.00     0.006 A 
HETATM   25  H   UNL     1     -40.021  53.113 -50.793  1.00  0.00     0.166 HD
HETATM   26  C   UNL     1     -39.309  50.518 -51.509  1.00  0.00     0.068 C 
HETATM   27  C   UNL     1     -40.113  51.726 -53.667  1.00  0.00     0.038 A 
HETATM   28  C   UNL     1     -40.979  53.713 -55.114  1.00  0.00     0.043 A 
ENDBRANCH   1  18
TORSDOF 3
ENDMDL
MODEL 3
REMARK VINA RESULT:      -8.3      4.145      8.152
REMARK  3 active torsions:
REMARK  status: ('A' for Active; 'I' for Inactive)
REMARK    1  A    between atoms: C_10  and  N_11 
REMARK       I    between atoms: N_11  and  C_12 
REMARK    2  A    between atoms: C_12  and  C_13 
REMARK    3  A    between atoms: C_18  and  N_19 
ROOT
HETATM    1  N   UNL     1     -42.601  56.154 -52.391  1.00  0.00    -0.323 N 
HETATM    2  C   UNL     1     -42.303  57.343 -53.023  1.00  0.00     0.258 C 
HETATM    3  O   UNL     1     -41.267  57.633 -53.610  1.00  0.00    -0.267 OA
HETATM    4  H   UNL     1     -43.513  56.084 -51.956  1.00  0.00     0.169 HD
ENDROOT
BRANCH   2   5
HETATM    5  C   UNL     1     -43.418  58.326 -53.069  1.00  0.00     0.056 A 
HETATM    6  C   UNL     1     -44.201  58.574 -54.197  1.00  0.00     0.050 A 
HETATM    7 CL   UNL     1     -44.039  57.699 -55.676  1.00  0.00    -0.083 Cl
HETATM    8  C   UNL     1     -45.179  59.567 -54.141  1.00  0.00     0.027 A 
HETATM    9  C   UNL     1     -45.370  60.312 -52.970  1.00  0.00     0.031 A 
HETATM   10  C   UNL     1     -44.603  60.077 -51.824  1.00  0.00     0.038 A 
HETATM   11  C   UNL     1     -43.640  59.060 -51.887  1.00  0.00     0.048 A 
BRANCH  10  12
HETATM   12  N   UNL     1     -44.768  60.845 -50.639  1.00  0.00    -0.318 N 
HETATM   13  C   UNL     1     -45.487  60.462 -49.495  1.00  0.00     0.224 C 
HETATM   14  O   UNL     1     -46.055  59.407 -49.257  1.00  0.00    -0.273 OA
HETATM   15  C   UNL     1     -45.546  61.653 -48.567  1.00  0.00     0.105 C 
HETATM   16  C   UNL     1     -44.413  62.531 -49.057  1.00  0.00     0.029 C 
HETATM   17  C   UNL     1     -44.348  62.225 -50.539  1.00  0.00     0.133 C 
ENDBRANCH  10  12
ENDBRANCH   2   5
BRANCH   1  18
HETATM   18  C   UNL     1     -41.804  54.993 -52.307  1.00  0.00     0.035 A 
HETATM   19  C   UNL     1     -40.975  54.693 -51.226  1.00  0.00     0.032 A 
HETATM   20  C   UNL     1     -40.175  53.541 -51.214  1.00  0.00     0.033 A 
HETATM   21  C   UNL     1     -40.228  52.701 -52.329  1.00  0.00     0.042 A 
HETATM   22  N   UNL     1     -39.553  51.532 -52.599  1.00  0.00    -0.359 N 
HETATM   23  C   UNL     1     -41.050  52.961 -53.422  1.00  0.00    -0.005 A 
HETATM   24  C   UNL     1     -39.906  51.047 -53.835  1.00  0.00     0.006 A 
HETATM   25  H   UNL     1     -38.882  51.106 -51.975  1.00  0.00     0.166 HD
HETATM   26  C   UNL     1     -39.315  49.811 -54.402  1.00  0.00     0.068 C 
HETATM   27  C   UNL     1     -40.846  51.913 -54.360  1.00  0.00     0.038 A 
HETATM   28  C   UNL     1     -41.855  54.118 -53.405  1.00  0.00     0.043 A 
ENDBRANCH   1  18
TORSDOF 3
ENDMDL
MODEL 4
REMARK VINA RESULT:      -8.2      3.124      8.976
REMARK  3 active torsions:
REMARK  status: ('A' for Active; 'I' for Inactive)
REMARK    1  A    between atoms: C_10  and  N_11 
REMARK       I    between atoms: N_11  and  C_12 
REMARK    2  A    between atoms: C_12  and  C_13 
REMARK    3  A    between atoms: C_18  and  N_19 
ROOT
HETATM    1  N   UNL     1     -41.663  55.602 -56.232  1.00  0.00    -0.323 N 
HETATM    2  C   UNL     1     -42.780  55.301 -56.984  1.00  0.00     0.258 C 
HETATM    3  O   UNL     1     -43.614  54.431 -56.760  1.00  0.00    -0.267 OA
HETATM    4  H   UNL     1     -41.081  56.361 -56.565  1.00  0.00     0.169 HD
ENDROOT
BRANCH   2   5
HETATM    5  C   UNL     1     -43.031  56.216 -58.129  1.00  0.00     0.056 A 
HETATM    6  C   UNL     1     -43.691  55.845 -59.302  1.00  0.00     0.050 A 
HETATM    7 CL   UNL     1     -44.392  54.287 -59.545  1.00  0.00    -0.083 Cl
HETATM    8  C   UNL     1     -43.810  56.772 -60.337  1.00  0.00     0.027 A 
HETATM    9  C   UNL     1     -43.270  58.058 -60.206  1.00  0.00     0.031 A 
HETATM   10  C   UNL     1     -42.611  58.456 -59.038  1.00  0.00     0.038 A 
HETATM   11  C   UNL     1     -42.519  57.522 -57.997  1.00  0.00     0.048 A 
BRANCH  10  12
HETATM   12  N   UNL     1     -42.034  59.749 -58.903  1.00  0.00    -0.318 N 
HETATM   13  C   UNL     1     -41.654  60.366 -57.701  1.00  0.00     0.224 C 
HETATM   14  O   UNL     1     -41.679  59.924 -56.563  1.00  0.00    -0.273 OA
HETATM   15  C   UNL     1     -41.263  61.791 -58.018  1.00  0.00     0.105 C 
HETATM   16  C   UNL     1     -40.994  61.754 -59.509  1.00  0.00     0.029 C 
HETATM   17  C   UNL     1     -41.932  60.676 -60.008  1.00  0.00     0.133 C 
ENDBRANCH  10  12
ENDBRANCH   2   5
BRANCH   1  18
HETATM   18  C   UNL     1     -41.245  55.007 -55.024  1.00  0.00     0.035 A 
HETATM   19  C   UNL     1     -40.620  53.763 -54.942  1.00  0.00     0.032 A 
HETATM   20  C   UNL     1     -40.260  53.204 -53.707  1.00  0.00     0.033 A 
HETATM   21  C   UNL     1     -40.555  53.933 -52.552  1.00  0.00     0.042 A 
HETATM   22  N   UNL     1     -40.339  53.632 -51.227  1.00  0.00    -0.359 N 
HETATM   23  C   UNL     1     -41.169  55.181 -52.594  1.00  0.00    -0.005 A 
HETATM   24  C   UNL     1     -40.810  54.641 -50.422  1.00  0.00     0.006 A 
HETATM   25  H   UNL     1     -39.907  52.778 -50.901  1.00  0.00     0.166 HD
HETATM   26  C   UNL     1     -40.735  54.575 -48.942  1.00  0.00     0.068 C 
HETATM   27  C   UNL     1     -41.318  55.621 -51.250  1.00  0.00     0.038 A 
HETATM   28  C   UNL     1     -41.509  55.728 -53.847  1.00  0.00     0.043 A 
ENDBRANCH   1  18
TORSDOF 3
ENDMDL
MODEL 5
REMARK VINA RESULT:      -8.1      3.719      8.031
REMARK  3 active torsions:
REMARK  status: ('A' for Active; 'I' for Inactive)
REMARK    1  A    between atoms: C_10  and  N_11 
REMARK       I    between atoms: N_11  and  C_12 
REMARK    2  A    between atoms: C_12  and  C_13 
REMARK    3  A    between atoms: C_18  and  N_19 
ROOT
HETATM    1  N   UNL     1     -41.593  56.360 -53.674  1.00  0.00    -0.323 N 
HETATM    2  C   UNL     1     -42.920  56.723 -53.773  1.00  0.00     0.258 C 
HETATM    3  O   UNL     1     -43.889  55.978 -53.871  1.00  0.00    -0.267 OA
HETATM    4  H   UNL     1     -40.919  57.113 -53.596  1.00  0.00     0.169 HD
ENDROOT
BRANCH   2   5
HETATM    5  C   UNL     1     -43.184  58.181 -53.640  1.00  0.00     0.056 A 
HETATM    6  C   UNL     1     -42.938  59.119 -54.643  1.00  0.00     0.050 A 
HETATM    7 CL   UNL     1     -42.377  58.697 -56.220  1.00  0.00    -0.083 Cl
HETATM    8  C   UNL     1     -43.163  60.470 -54.381  1.00  0.00     0.027 A 
HETATM    9  C   UNL     1     -43.625  60.884 -53.124  1.00  0.00     0.031 A 
HETATM   10  C   UNL     1     -43.885  59.962 -52.105  1.00  0.00     0.038 A 
HETATM   11  C   UNL     1     -43.677  58.605 -52.390  1.00  0.00     0.048 A 
BRANCH  10  12
HETATM   12  N   UNL     1     -44.327  60.370 -50.816  1.00  0.00    -0.318 N 
HETATM   13  C   UNL     1     -45.458  59.890 -50.136  1.00  0.00     0.224 C 
HETATM   14  O   UNL     1     -46.242  59.013 -50.463  1.00  0.00    -0.273 OA
HETATM   15  C   UNL     1     -45.640  60.731 -48.894  1.00  0.00     0.105 C 
HETATM   16  C   UNL     1     -44.276  61.363 -48.699  1.00  0.00     0.029 C 
HETATM   17  C   UNL     1     -43.744  61.490 -50.111  1.00  0.00     0.133 C 
ENDBRANCH  10  12
ENDBRANCH   2   5
BRANCH   1  18
HETATM   18  C   UNL     1     -41.051  55.059 -53.627  1.00  0.00     0.035 A 
HETATM   19  C   UNL     1     -40.682  54.326 -54.755  1.00  0.00     0.032 A 
HETATM   20  C   UNL     1     -40.182  53.020 -54.649  1.00  0.00     0.033 A 
HETATM   21  C   UNL     1     -40.072  52.468 -53.370  1.00  0.00     0.042 A 
HETATM   22  N   UNL     1     -39.640  51.224 -52.969  1.00  0.00    -0.359 N 
HETATM   23  C   UNL     1     -40.421  53.170 -52.221  1.00  0.00    -0.005 A 
HETATM   24  C   UNL     1     -39.717  51.106 -51.603  1.00  0.00     0.006 A 
HETATM   25  H   UNL     1     -39.326  50.500 -53.601  1.00  0.00     0.166 HD
HETATM   26  C   UNL     1     -39.340  49.860 -50.891  1.00  0.00     0.068 C 
HETATM   27  C   UNL     1     -40.187  52.308 -51.115  1.00  0.00     0.038 A 
HETATM   28  C   UNL     1     -40.907  54.487 -52.352  1.00  0.00     0.043 A 
ENDBRANCH   1  18
TORSDOF 3
ENDMDL
MODEL 6
REMARK VINA RESULT:      -8.0      3.232      8.190
REMARK  3 active torsions:
REMARK  status: ('A' for Active; 'I' for Inactive)
REMARK    1  A    between atoms: C_10  and  N_11 
REMARK       I    between atoms: N_11  and  C_12 
REMARK    2  A    between atoms: C_12  and  C_13 
REMARK    3  A    between atoms: C_18  and  N_19 
ROOT
HETATM    1  N   UNL     1     -41.838  57.190 -53.389  1.00  0.00    -0.323 N 
HETATM    2  C   UNL     1     -41.117  58.365 -53.336  1.00  0.00     0.258 C 
HETATM    3  O   UNL     1     -39.972  58.517 -52.924  1.00  0.00    -0.267 OA
HETATM    4  H   UNL     1     -42.776  57.247 -53.766  1.00  0.00     0.169 HD
ENDROOT
BRANCH   2   5
HETATM    5  C   UNL     1     -41.790  59.542 -53.949  1.00  0.00     0.056 A 
HETATM    6  C   UNL     1     -42.423  60.552 -53.223  1.00  0.00     0.050 A 
HETATM    7 CL   UNL     1     -42.428  60.621 -51.499  1.00  0.00    -0.083 Cl
HETATM    8  C   UNL     1     -43.078  61.574 -53.910  1.00  0.00     0.027 A 
HETATM    9  C   UNL     1     -43.108  61.585 -55.310  1.00  0.00     0.031 A 
HETATM   10  C   UNL     1     -42.475  60.588 -56.061  1.00  0.00     0.038 A 
HETATM   11  C   UNL     1     -41.800  59.580 -55.358  1.00  0.00     0.048 A 
BRANCH  10  12
HETATM   12  N   UNL     1     -42.521  60.572 -57.482  1.00  0.00    -0.318 N 
HETATM   13  C   UNL     1     -41.539  61.076 -58.349  1.00  0.00     0.224 C 
HETATM   14  O   UNL     1     -40.451  61.563 -58.086  1.00  0.00    -0.273 OA
HETATM   15  C   UNL     1     -42.089  61.011 -59.755  1.00  0.00     0.105 C 
HETATM   16  C   UNL     1     -43.216  60.005 -59.641  1.00  0.00     0.029 C 
HETATM   17  C   UNL     1     -43.702  60.182 -58.219  1.00  0.00     0.133 C 
ENDBRANCH  10  12
ENDBRANCH   2   5
BRANCH   1  18
HETATM   18  C   UNL     1     -41.416  55.897 -53.017  1.00  0.00     0.035 A 
HETATM   19  C   UNL     1     -41.205  55.494 -51.698  1.00  0.00     0.032 A 
HETATM   20  C   UNL     1     -40.748  54.205 -51.390  1.00  0.00     0.033 A 
HETATM   21  C   UNL     1     -40.501  53.331 -52.452  1.00  0.00     0.042 A 
HETATM   22  N   UNL     1     -40.039  52.035 -52.453  1.00  0.00    -0.359 N 
HETATM   23  C   UNL     1     -40.709  53.693 -53.780  1.00  0.00    -0.005 A 
HETATM   24  C   UNL     1     -39.930  51.564 -53.739  1.00  0.00     0.006 A 
HETATM   25  H   UNL     1     -39.801  51.515 -51.619  1.00  0.00     0.166 HD
HETATM   26  C   UNL     1     -39.431  50.202 -54.046  1.00  0.00     0.068 C 
HETATM   27  C   UNL     1     -40.354  52.573 -54.581  1.00  0.00     0.038 A 
HETATM   28  C   UNL     1     -41.182  54.990 -54.064  1.00  0.00     0.043 A 
ENDBRANCH   1  18
TORSDOF 3
ENDMDL
MODEL 7
REMARK VINA RESULT:      -7.7      2.701      8.039
REMARK  3 active torsions:
REMARK  status: ('A' for Active; 'I' for Inactive)
REMARK    1  A    between atoms: C_10  and  N_11 
REMARK       I    between atoms: N_11  and  C_12 
REMARK    2  A    between atoms: C_12  and  C_13 
REMARK    3  A    between atoms: C_18  and  N_19 
ROOT
HETATM    1  N   UNL     1     -41.929  56.787 -53.803  1.00  0.00    -0.323 N 
HETATM    2  C   UNL     1     -41.291  58.009 -53.777  1.00  0.00     0.258 C 
HETATM    3  O   UNL     1     -40.198  58.266 -53.285  1.00  0.00    -0.267 OA
HETATM    4  H   UNL     1     -42.834  56.754 -54.260  1.00  0.00     0.169 HD
ENDROOT
BRANCH   2   5
HETATM    5  C   UNL     1     -41.980  59.093 -54.527  1.00  0.00     0.056 A 
HETATM    6  C   UNL     1     -42.529  60.232 -53.937  1.00  0.00     0.050 A 
HETATM    7 CL   UNL     1     -42.397  60.584 -52.252  1.00  0.00    -0.083 Cl
HETATM    8  C   UNL     1     -43.210  61.150 -54.735  1.00  0.00     0.027 A 
HETATM    9  C   UNL     1     -43.349  60.932 -56.111  1.00  0.00     0.031 A 
HETATM   10  C   UNL     1     -42.802  59.802 -56.728  1.00  0.00     0.038 A 
HETATM   11  C   UNL     1     -42.100  58.899 -55.918  1.00  0.00     0.048 A 
BRANCH  10  12
HETATM   12  N   UNL     1     -42.960  59.554 -58.119  1.00  0.00    -0.318 N 
HETATM   13  C   UNL     1     -43.935  58.735 -58.711  1.00  0.00     0.224 C 
HETATM   14  O   UNL     1     -44.857  58.130 -58.188  1.00  0.00    -0.273 OA
HETATM   15  C   UNL     1     -43.611  58.623 -60.183  1.00  0.00     0.105 C 
HETATM   16  C   UNL     1     -42.700  59.809 -60.430  1.00  0.00     0.029 C 
HETATM   17  C   UNL     1     -41.994  59.990 -59.103  1.00  0.00     0.133 C 
ENDBRANCH  10  12
ENDBRANCH   2   5
BRANCH   1  18
HETATM   18  C   UNL     1     -41.462  55.553 -53.304  1.00  0.00     0.035 A 
HETATM   19  C   UNL     1     -41.235  55.294 -51.953  1.00  0.00     0.032 A 
HETATM   20  C   UNL     1     -40.732  54.059 -51.518  1.00  0.00     0.033 A 
HETATM   21  C   UNL     1     -40.456  53.091 -52.488  1.00  0.00     0.042 A 
HETATM   22  N   UNL     1     -39.949  51.818 -52.360  1.00  0.00    -0.359 N 
HETATM   23  C   UNL     1     -40.679  53.309 -53.845  1.00  0.00    -0.005 A 
HETATM   24  C   UNL     1     -39.826  51.224 -53.593  1.00  0.00     0.006 A 
HETATM   25  H   UNL     1     -39.692  51.394 -51.480  1.00  0.00     0.166 HD
HETATM   26  C   UNL     1     -39.279  49.856 -53.763  1.00  0.00     0.068 C 
HETATM   27  C   UNL     1     -40.286  52.127 -54.530  1.00  0.00     0.038 A 
HETATM   28  C   UNL     1     -41.198  54.553 -54.256  1.00  0.00     0.043 A 
ENDBRANCH   1  18
TORSDOF 3
ENDMDL
MODEL 8
REMARK VINA RESULT:      -7.6      2.679      7.995
REMARK  3 active torsions:
REMARK  status: ('A' for Active; 'I' for Inactive)
REMARK    1  A    between atoms: C_10  and  N_11 
REMARK       I    between atoms: N_11  and  C_12 
REMARK    2  A    between atoms: C_12  and  C_13 
REMARK    3  A    between atoms: C_18  and  N_19 
ROOT
HETATM    1  N   UNL     1     -42.799  56.243 -53.535  1.00  0.00    -0.323 N 
HETATM    2  C   UNL     1     -42.362  57.494 -53.917  1.00  0.00     0.258 C 
HETATM    3  O   UNL     1     -41.209  57.909 -53.921  1.00  0.00    -0.267 OA
HETATM    4  H   UNL     1     -43.795  56.068 -53.600  1.00  0.00     0.169 HD
ENDROOT
BRANCH   2   5
HETATM    5  C   UNL     1     -43.415  58.382 -54.479  1.00  0.00     0.056 A 
HETATM    6  C   UNL     1     -43.963  59.475 -53.807  1.00  0.00     0.050 A 
HETATM    7 CL   UNL     1     -43.421  60.005 -52.256  1.00  0.00    -0.083 Cl
HETATM    8  C   UNL     1     -44.993  60.197 -54.409  1.00  0.00     0.027 A 
HETATM    9  C   UNL     1     -45.478  59.828 -55.671  1.00  0.00     0.031 A 
HETATM   10  C   UNL     1     -44.940  58.740 -56.368  1.00  0.00     0.038 A 
HETATM   11  C   UNL     1     -43.889  58.038 -55.761  1.00  0.00     0.048 A 
BRANCH  10  12
HETATM   12  N   UNL     1     -45.441  58.338 -57.636  1.00  0.00    -0.318 N 
HETATM   13  C   UNL     1     -44.778  58.460 -58.868  1.00  0.00     0.224 C 
HETATM   14  O   UNL     1     -43.651  58.868 -59.101  1.00  0.00    -0.273 OA
HETATM   15  C   UNL     1     -45.753  58.076 -59.956  1.00  0.00     0.105 C 
HETATM   16  C   UNL     1     -46.808  57.283 -59.213  1.00  0.00     0.029 C 
HETATM   17  C   UNL     1     -46.806  57.904 -57.832  1.00  0.00     0.133 C 
ENDBRANCH  10  12
ENDBRANCH   2   5
BRANCH   1  18
HETATM   18  C   UNL     1     -42.023  55.149 -53.098  1.00  0.00     0.035 A 
HETATM   19  C   UNL     1     -41.405  55.080 -51.850  1.00  0.00     0.032 A 
HETATM   20  C   UNL     1     -40.613  53.982 -51.483  1.00  0.00     0.033 A 
HETATM   21  C   UNL     1     -40.454  52.955 -52.418  1.00  0.00     0.042 A 
HETATM   22  N   UNL     1     -39.732  51.785 -52.344  1.00  0.00    -0.359 N 
HETATM   23  C   UNL     1     -41.062  52.983 -53.669  1.00  0.00    -0.005 A 
HETATM   24  C   UNL     1     -39.848  51.075 -53.514  1.00  0.00     0.006 A 
HETATM   25  H   UNL     1     -39.185  51.505 -51.542  1.00  0.00     0.166 HD
HETATM   26  C   UNL     1     -39.154  49.782 -53.729  1.00  0.00     0.068 C 
HETATM   27  C   UNL     1     -40.681  51.794 -54.348  1.00  0.00     0.038 A 
HETATM   28  C   UNL     1     -41.864  54.091 -54.009  1.00  0.00     0.043 A 
ENDBRANCH   1  18
TORSDOF 3
ENDMDL
MODEL 9
REMARK VINA RESULT:      -7.5      3.282      7.877
REMARK  3 active torsions:
REMARK  status: ('A' for Active; 'I' for Inactive)
REMARK    1  A    between atoms: C_10  and  N_11 
REMARK       I    between atoms: N_11  and  C_12 
REMARK    2  A    between atoms: C_12  and  C_13 
REMARK    3  A    between atoms: C_18  and  N_19 
ROOT
HETATM    1  N   UNL     1     -42.039  56.657 -52.207  1.00  0.00    -0.323 N 
HETATM    2  C   UNL     1     -41.412  57.869 -52.411  1.00  0.00     0.258 C 
HETATM    3  O   UNL     1     -40.208  58.076 -52.510  1.00  0.00    -0.267 OA
HETATM    4  H   UNL     1     -43.050  56.670 -52.153  1.00  0.00     0.169 HD
ENDROOT
BRANCH   2   5
HETATM    5  C   UNL     1     -42.328  59.019 -52.634  1.00  0.00     0.056 A 
HETATM    6  C   UNL     1     -42.528  60.054 -51.719  1.00  0.00     0.050 A 
HETATM    7 CL   UNL     1     -41.661  60.189 -50.233  1.00  0.00    -0.083 Cl
HETATM    8  C   UNL     1     -43.463  61.047 -52.010  1.00  0.00     0.027 A 
HETATM    9  C   UNL     1     -44.199  61.005 -53.201  1.00  0.00     0.031 A 
HETATM   10  C   UNL     1     -44.012  59.982 -54.137  1.00  0.00     0.038 A 
HETATM   11  C   UNL     1     -43.052  59.004 -53.843  1.00  0.00     0.048 A 
BRANCH  10  12
HETATM   12  N   UNL     1     -44.771  59.912 -55.337  1.00  0.00    -0.318 N 
HETATM   13  C   UNL     1     -45.468  58.790 -55.815  1.00  0.00     0.224 C 
HETATM   14  O   UNL     1     -45.615  57.694 -55.297  1.00  0.00    -0.273 OA
HETATM   15  C   UNL     1     -45.972  59.116 -57.201  1.00  0.00     0.105 C 
HETATM   16  C   UNL     1     -45.925  60.631 -57.240  1.00  0.00     0.029 C 
HETATM   17  C   UNL     1     -44.769  60.969 -56.323  1.00  0.00     0.133 C 
ENDBRANCH  10  12
ENDBRANCH   2   5
BRANCH   1  18
HETATM   18  C   UNL     1     -41.446  55.381 -52.102  1.00  0.00     0.035 A 
HETATM   19  C   UNL     1     -40.870  54.882 -50.934  1.00  0.00     0.032 A 
HETATM   20  C   UNL     1     -40.261  53.619 -50.899  1.00  0.00     0.033 A 
HETATM   21  C   UNL     1     -40.241  52.874 -52.081  1.00  0.00     0.042 A 
HETATM   22  N   UNL     1     -39.707  51.633 -52.345  1.00  0.00    -0.359 N 
HETATM   23  C   UNL     1     -40.813  53.334 -53.263  1.00  0.00    -0.005 A 
HETATM   24  C   UNL     1     -39.906  51.294 -53.661  1.00  0.00     0.006 A 
HETATM   25  H   UNL     1     -39.225  51.065 -51.662  1.00  0.00     0.166 HD
HETATM   26  C   UNL     1     -39.412  50.020 -54.236  1.00  0.00     0.068 C 
HETATM   27  C   UNL     1     -40.604  52.331 -54.249  1.00  0.00     0.038 A 
HETATM   28  C   UNL     1     -41.432  54.600 -53.270  1.00  0.00     0.043 A 
ENDBRANCH   1  18
TORSDOF 3
ENDMDL
MODEL 10
REMARK VINA RESULT:      -7.4      3.676      5.153
REMARK  3 active torsions:
REMARK  status: ('A' for Active; 'I' for Inactive)
REMARK    1  A    between atoms: C_10  and  N_11 
REMARK       I    between atoms: N_11  and  C_12 
REMARK    2  A    between atoms: C_12  and  C_13 
REMARK    3  A    between atoms: C_18  and  N_19 
ROOT
HETATM    1  N   UNL     1     -43.699  57.299 -57.043  1.00  0.00    -0.323 N 
HETATM    2  C   UNL     1     -44.029  57.332 -55.703  1.00  0.00     0.258 C 
HETATM    3  O   UNL     1     -45.077  57.728 -55.206  1.00  0.00    -0.267 OA
HETATM    4  H   UNL     1     -42.784  56.934 -57.278  1.00  0.00     0.169 HD
ENDROOT
BRANCH   2   5
HETATM    5  C   UNL     1     -43.025  56.718 -54.795  1.00  0.00     0.056 A 
HETATM    6  C   UNL     1     -42.673  55.367 -54.810  1.00  0.00     0.050 A 
HETATM    7 CL   UNL     1     -43.293  54.238 -55.957  1.00  0.00    -0.083 Cl
HETATM    8  C   UNL     1     -41.765  54.891 -53.865  1.00  0.00     0.027 A 
HETATM    9  C   UNL     1     -41.215  55.754 -52.907  1.00  0.00     0.031 A 
HETATM   10  C   UNL     1     -41.546  57.113 -52.876  1.00  0.00     0.038 A 
HETATM   11  C   UNL     1     -42.443  57.583 -53.847  1.00  0.00     0.048 A 
BRANCH  10  12
HETATM   12  N   UNL     1     -41.018  57.994 -51.893  1.00  0.00    -0.318 N 
HETATM   13  C   UNL     1     -39.947  58.885 -52.067  1.00  0.00     0.224 C 
HETATM   14  O   UNL     1     -39.301  59.130 -53.074  1.00  0.00    -0.273 OA
HETATM   15  C   UNL     1     -39.617  59.478 -50.717  1.00  0.00     0.105 C 
HETATM   16  C   UNL     1     -40.874  59.225 -49.910  1.00  0.00     0.029 C 
HETATM   17  C   UNL     1     -41.422  57.945 -50.506  1.00  0.00     0.133 C 
ENDBRANCH  10  12
ENDBRANCH   2   5
BRANCH   1  18
HETATM   18  C   UNL     1     -44.498  57.677 -58.142  1.00  0.00     0.035 A 
HETATM   19  C   UNL     1     -44.551  58.971 -58.660  1.00  0.00     0.032 A 
HETATM   20  C   UNL     1     -45.393  59.297 -59.733  1.00  0.00     0.033 A 
HETATM   21  C   UNL     1     -46.190  58.280 -60.266  1.00  0.00     0.042 A 
HETATM   22  N   UNL     1     -47.109  58.311 -61.290  1.00  0.00    -0.359 N 
HETATM   23  C   UNL     1     -46.158  56.976 -59.783  1.00  0.00    -0.005 A 
HETATM   24  C   UNL     1     -47.675  57.071 -61.465  1.00  0.00     0.006 A 
HETATM   25  H   UNL     1     -47.339  59.138 -61.823  1.00  0.00     0.166 HD
HETATM   26  C   UNL     1     -48.721  56.813 -62.484  1.00  0.00     0.068 C 
HETATM   27  C   UNL     1     -47.090  56.222 -60.548  1.00  0.00     0.038 A 
HETATM   28  C   UNL     1     -45.293  56.669 -58.713  1.00  0.00     0.043 A 
ENDBRANCH   1  18
TORSDOF 3
ENDMDL
