MODEL 1
REMARK VINA RESULT:      -7.5      0.000      0.000
REMARK  8 active torsions:
REMARK  status: ('A' for Active; 'I' for Inactive)
REMARK    1  A    between atoms: C_2  and  C_3 
REMARK    2  A    between atoms: C_3  and  O_4 
REMARK    3  A    between atoms: O_4  and  C_5 
REMARK    4  A    between atoms: C_8  and  C_9 
REMARK    5  A    between atoms: C_13  and  C_14 
REMARK       I    between atoms: C_14  and  N_15 
REMARK    6  A    between atoms: N_15  and  N_16 
REMARK    7  A    between atoms: C_17  and  C_18 
REMARK    8  A    between atoms: C_20  and  O_21 
ROOT
HETATM    1  C   UNL     1     -42.810  56.741 -52.294  1.00  0.00     0.089 A 
HETATM    2  N   UNL     1     -42.694  57.891 -52.976  1.00  0.00    -0.174 NA
HETATM    3  N   UNL     1     -43.542  58.735 -52.365  1.00  0.00    -0.272 N 
HETATM    4  H   UNL     1     -43.614  59.692 -52.701  1.00  0.00     0.189 HD
HETATM    5  C   UNL     1     -44.239  58.178 -51.330  1.00  0.00     0.121 A 
HETATM    6  C   UNL     1     -43.780  56.878 -51.262  1.00  0.00     0.071 A 
ENDROOT
BRANCH   5   7
HETATM    7  C   UNL     1     -45.202  58.932 -50.563  1.00  0.00     0.289 C 
HETATM    8  N   UNL     1     -44.667  60.036 -49.915  1.00  0.00    -0.242 N 
HETATM    9  H   UNL     1     -43.677  60.227 -49.976  1.00  0.00     0.192 HD
HETATM   10  O   UNL     1     -46.381  58.597 -50.512  1.00  0.00    -0.264 OA
BRANCH   8  11
HETATM   11  N   UNL     1     -45.461  60.888 -49.205  1.00  0.00    -0.184 NA
HETATM   12  C   UNL     1     -44.988  61.245 -48.053  1.00  0.00     0.150 C 
BRANCH  12  13
HETATM   13  C   UNL     1     -45.702  62.185 -47.168  1.00  0.00    -0.014 A 
HETATM   14  C   UNL     1     -45.164  62.549 -45.928  1.00  0.00     0.049 A 
HETATM   15  C   UNL     1     -45.865  63.425 -45.100  1.00  0.00     0.069 A 
HETATM   16  C   UNL     1     -47.098  63.932 -45.525  1.00  0.00     0.037 A 
HETATM   17  C   UNL     1     -47.634  63.570 -46.763  1.00  0.00     0.004 A 
HETATM   18  C   UNL     1     -46.935  62.693 -47.590  1.00  0.00     0.013 A 
BRANCH  15  19
HETATM   19  O   UNL     1     -45.466  63.860 -43.866  1.00  0.00    -0.356 OA
HETATM   20  C   UNL     1     -44.163  63.474 -43.443  1.00  0.00     0.210 C 
ENDBRANCH  15  19
ENDBRANCH  12  13
ENDBRANCH   8  11
ENDBRANCH   5   7
BRANCH   1  21
HETATM   21  C   UNL     1     -42.028  55.548 -52.628  1.00  0.00    -0.005 A 
HETATM   22  C   UNL     1     -41.596  55.320 -53.942  1.00  0.00     0.016 A 
HETATM   23  C   UNL     1     -40.816  54.202 -54.261  1.00  0.00     0.037 A 
HETATM   24  C   UNL     1     -40.454  53.293 -53.268  1.00  0.00     0.068 A 
HETATM   25  C   UNL     1     -40.902  53.499 -51.962  1.00  0.00     0.037 A 
HETATM   26  C   UNL     1     -41.683  54.616 -51.642  1.00  0.00     0.016 A 
BRANCH  24  27
HETATM   27  O   UNL     1     -39.682  52.178 -53.449  1.00  0.00    -0.351 OA
BRANCH  27  28
HETATM   28  C   UNL     1     -39.727  51.193 -52.417  1.00  0.00     0.175 C 
BRANCH  28  29
HETATM   29  C   UNL     1     -39.680  49.815 -53.068  1.00  0.00     0.022 C 
HETATM   30  C   UNL     1     -39.853  49.900 -54.574  1.00  0.00     0.007 C 
ENDBRANCH  28  29
ENDBRANCH  27  28
ENDBRANCH  24  27
ENDBRANCH   1  21
TORSDOF 8
ENDMDL
MODEL 2
REMARK VINA RESULT:      -7.5      7.602     11.586
REMARK  8 active torsions:
REMARK  status: ('A' for Active; 'I' for Inactive)
REMARK    1  A    between atoms: C_2  and  C_3 
REMARK    2  A    between atoms: C_3  and  O_4 
REMARK    3  A    between atoms: O_4  and  C_5 
REMARK    4  A    between atoms: C_8  and  C_9 
REMARK    5  A    between atoms: C_13  and  C_14 
REMARK       I    between atoms: C_14  and  N_15 
REMARK    6  A    between atoms: N_15  and  N_16 
REMARK    7  A    between atoms: C_17  and  C_18 
REMARK    8  A    between atoms: C_20  and  O_21 
ROOT
HETATM    1  C   UNL     1     -42.210  58.359 -58.876  1.00  0.00     0.089 A 
HETATM    2  N   UNL     1     -42.365  57.201 -59.536  1.00  0.00    -0.174 NA
HETATM    3  N   UNL     1     -42.530  56.280 -58.572  1.00  0.00    -0.272 N 
HETATM    4  H   UNL     1     -42.687  55.311 -58.836  1.00  0.00     0.189 HD
HETATM    5  C   UNL     1     -42.454  56.778 -57.301  1.00  0.00     0.121 A 
HETATM    6  C   UNL     1     -42.246  58.132 -57.471  1.00  0.00     0.071 A 
ENDROOT
BRANCH   5   7
HETATM    7  C   UNL     1     -42.598  55.934 -56.140  1.00  0.00     0.289 C 
HETATM    8  N   UNL     1     -41.593  54.988 -56.002  1.00  0.00    -0.242 N 
HETATM    9  H   UNL     1     -40.868  54.914 -56.702  1.00  0.00     0.192 HD
HETATM   10  O   UNL     1     -43.540  56.069 -55.365  1.00  0.00    -0.264 OA
BRANCH   8  11
HETATM   11  N   UNL     1     -41.550  54.159 -54.919  1.00  0.00    -0.184 NA
HETATM   12  C   UNL     1     -40.423  53.547 -54.743  1.00  0.00     0.150 C 
BRANCH  12  13
HETATM   13  C   UNL     1     -40.194  52.636 -53.605  1.00  0.00    -0.014 A 
HETATM   14  C   UNL     1     -40.367  53.079 -52.289  1.00  0.00     0.049 A 
HETATM   15  C   UNL     1     -40.127  52.206 -51.228  1.00  0.00     0.069 A 
HETATM   16  C   UNL     1     -39.719  50.895 -51.497  1.00  0.00     0.037 A 
HETATM   17  C   UNL     1     -39.549  50.454 -52.810  1.00  0.00     0.004 A 
HETATM   18  C   UNL     1     -39.786  51.325 -53.871  1.00  0.00     0.013 A 
BRANCH  15  19
HETATM   19  O   UNL     1     -40.249  52.503 -49.898  1.00  0.00    -0.356 OA
HETATM   20  C   UNL     1     -40.347  53.881 -49.557  1.00  0.00     0.210 C 
ENDBRANCH  15  19
ENDBRANCH  12  13
ENDBRANCH   8  11
ENDBRANCH   5   7
BRANCH   1  21
HETATM   21  C   UNL     1     -42.020  59.637 -59.566  1.00  0.00    -0.005 A 
HETATM   22  C   UNL     1     -41.724  60.803 -58.845  1.00  0.00     0.016 A 
HETATM   23  C   UNL     1     -41.504  62.020 -59.500  1.00  0.00     0.037 A 
HETATM   24  C   UNL     1     -41.573  62.091 -60.890  1.00  0.00     0.068 A 
HETATM   25  C   UNL     1     -41.893  60.940 -61.614  1.00  0.00     0.037 A 
HETATM   26  C   UNL     1     -42.115  59.723 -60.960  1.00  0.00     0.016 A 
BRANCH  24  27
HETATM   27  O   UNL     1     -41.359  63.211 -61.645  1.00  0.00    -0.351 OA
BRANCH  27  28
HETATM   28  C   UNL     1     -40.211  63.994 -61.321  1.00  0.00     0.175 C 
BRANCH  28  29
HETATM   29  C   UNL     1     -38.989  63.332 -61.948  1.00  0.00     0.022 C 
HETATM   30  C   UNL     1     -39.105  63.257 -63.460  1.00  0.00     0.007 C 
ENDBRANCH  28  29
ENDBRANCH  27  28
ENDBRANCH  24  27
ENDBRANCH   1  21
TORSDOF 8
ENDMDL
MODEL 3
REMARK VINA RESULT:      -7.4      1.444     11.648
REMARK  8 active torsions:
REMARK  status: ('A' for Active; 'I' for Inactive)
REMARK    1  A    between atoms: C_2  and  C_3 
REMARK    2  A    between atoms: C_3  and  O_4 
REMARK    3  A    between atoms: O_4  and  C_5 
REMARK    4  A    between atoms: C_8  and  C_9 
REMARK    5  A    between atoms: C_13  and  C_14 
REMARK       I    between atoms: C_14  and  N_15 
REMARK    6  A    between atoms: N_15  and  N_16 
REMARK    7  A    between atoms: C_17  and  C_18 
REMARK    8  A    between atoms: C_20  and  O_21 
ROOT
HETATM    1  C   UNL     1     -44.883  61.024 -48.912  1.00  0.00     0.089 A 
HETATM    2  N   UNL     1     -45.848  60.131 -49.182  1.00  0.00    -0.174 NA
HETATM    3  N   UNL     1     -45.359  59.399 -50.196  1.00  0.00    -0.272 N 
HETATM    4  H   UNL     1     -45.917  58.633 -50.566  1.00  0.00     0.189 HD
HETATM    5  C   UNL     1     -44.125  59.796 -50.631  1.00  0.00     0.121 A 
HETATM    6  C   UNL     1     -43.792  60.853 -49.810  1.00  0.00     0.071 A 
ENDROOT
BRANCH   5   7
HETATM    7  C   UNL     1     -43.449  59.131 -51.720  1.00  0.00     0.289 C 
HETATM    8  N   UNL     1     -42.718  58.017 -51.334  1.00  0.00    -0.242 N 
HETATM    9  H   UNL     1     -42.666  57.759 -50.358  1.00  0.00     0.192 HD
HETATM   10  O   UNL     1     -43.535  59.545 -52.872  1.00  0.00    -0.264 OA
BRANCH   8  11
HETATM   11  N   UNL     1     -42.077  57.243 -52.256  1.00  0.00    -0.184 NA
HETATM   12  C   UNL     1     -42.022  55.981 -51.967  1.00  0.00     0.150 C 
BRANCH  12  13
HETATM   13  C   UNL     1     -41.392  54.997 -52.867  1.00  0.00    -0.014 A 
HETATM   14  C   UNL     1     -40.948  53.763 -52.378  1.00  0.00     0.049 A 
HETATM   15  C   UNL     1     -40.338  52.854 -53.243  1.00  0.00     0.069 A 
HETATM   16  C   UNL     1     -40.183  53.191 -54.592  1.00  0.00     0.037 A 
HETATM   17  C   UNL     1     -40.627  54.421 -55.080  1.00  0.00     0.004 A 
HETATM   18  C   UNL     1     -41.234  55.330 -54.216  1.00  0.00     0.013 A 
BRANCH  15  19
HETATM   19  O   UNL     1     -39.853  51.621 -52.904  1.00  0.00    -0.356 OA
HETATM   20  C   UNL     1     -39.803  50.647 -53.939  1.00  0.00     0.210 C 
ENDBRANCH  15  19
ENDBRANCH  12  13
ENDBRANCH   8  11
ENDBRANCH   5   7
BRANCH   1  21
HETATM   21  C   UNL     1     -45.006  62.015 -47.840  1.00  0.00    -0.005 A 
HETATM   22  C   UNL     1     -44.770  63.374 -48.092  1.00  0.00     0.016 A 
HETATM   23  C   UNL     1     -44.923  64.331 -47.082  1.00  0.00     0.037 A 
HETATM   24  C   UNL     1     -45.319  63.944 -45.803  1.00  0.00     0.068 A 
HETATM   25  C   UNL     1     -45.531  62.590 -45.537  1.00  0.00     0.037 A 
HETATM   26  C   UNL     1     -45.377  61.631 -46.546  1.00  0.00     0.016 A 
BRANCH  24  27
HETATM   27  O   UNL     1     -45.521  64.782 -44.741  1.00  0.00    -0.351 OA
BRANCH  27  28
HETATM   28  C   UNL     1     -45.050  64.334 -43.470  1.00  0.00     0.175 C 
BRANCH  28  29
HETATM   29  C   UNL     1     -43.549  64.596 -43.398  1.00  0.00     0.022 C 
HETATM   30  C   UNL     1     -42.882  63.747 -42.330  1.00  0.00     0.007 C 
ENDBRANCH  28  29
ENDBRANCH  27  28
ENDBRANCH  24  27
ENDBRANCH   1  21
TORSDOF 8
ENDMDL
MODEL 4
REMARK VINA RESULT:      -7.2     19.366     22.546
REMARK  8 active torsions:
REMARK  status: ('A' for Active; 'I' for Inactive)
REMARK    1  A    between atoms: C_2  and  C_3 
REMARK    2  A    between atoms: C_3  and  O_4 
REMARK    3  A    between atoms: O_4  and  C_5 
REMARK    4  A    between atoms: C_8  and  C_9 
REMARK    5  A    between atoms: C_13  and  C_14 
REMARK       I    between atoms: C_14  and  N_15 
REMARK    6  A    between atoms: N_15  and  N_16 
REMARK    7  A    between atoms: C_17  and  C_18 
REMARK    8  A    between atoms: C_20  and  O_21 
ROOT
HETATM    1  C   UNL     1     -35.000  41.180 -52.900  1.00  0.00     0.089 A 
HETATM    2  N   UNL     1     -35.766  42.263 -52.690  1.00  0.00    -0.174 NA
HETATM    3  N   UNL     1     -36.575  42.320 -53.760  1.00  0.00    -0.272 N 
HETATM    4  H   UNL     1     -37.269  43.061 -53.816  1.00  0.00     0.189 HD
HETATM    5  C   UNL     1     -36.350  41.339 -54.686  1.00  0.00     0.121 A 
HETATM    6  C   UNL     1     -35.329  40.582 -54.149  1.00  0.00     0.071 A 
ENDROOT
BRANCH   5   7
HETATM    7  C   UNL     1     -37.118  41.249 -55.905  1.00  0.00     0.289 C 
HETATM    8  N   UNL     1     -37.225  39.961 -56.410  1.00  0.00    -0.242 N 
HETATM    9  H   UNL     1     -36.756  39.196 -55.947  1.00  0.00     0.192 HD
HETATM   10  O   UNL     1     -37.616  42.245 -56.421  1.00  0.00    -0.264 OA
BRANCH   8  11
HETATM   11  N   UNL     1     -37.974  39.701 -57.520  1.00  0.00    -0.184 NA
HETATM   12  C   UNL     1     -37.325  39.173 -58.507  1.00  0.00     0.150 C 
BRANCH  12  13
HETATM   13  C   UNL     1     -37.986  38.800 -59.772  1.00  0.00    -0.014 A 
HETATM   14  C   UNL     1     -37.329  38.960 -60.997  1.00  0.00     0.049 A 
HETATM   15  C   UNL     1     -37.980  38.617 -62.182  1.00  0.00     0.069 A 
HETATM   16  C   UNL     1     -39.284  38.113 -62.127  1.00  0.00     0.037 A 
HETATM   17  C   UNL     1     -39.938  37.952 -60.905  1.00  0.00     0.004 A 
HETATM   18  C   UNL     1     -39.290  38.296 -59.721  1.00  0.00     0.013 A 
BRANCH  15  19
HETATM   19  O   UNL     1     -37.464  38.727 -63.445  1.00  0.00    -0.356 OA
HETATM   20  C   UNL     1     -36.331  37.921 -63.745  1.00  0.00     0.210 C 
ENDBRANCH  15  19
ENDBRANCH  12  13
ENDBRANCH   8  11
ENDBRANCH   5   7
BRANCH   1  21
HETATM   21  C   UNL     1     -33.981  40.742 -51.943  1.00  0.00    -0.005 A 
HETATM   22  C   UNL     1     -32.637  40.641 -52.327  1.00  0.00     0.016 A 
HETATM   23  C   UNL     1     -31.651  40.258 -51.409  1.00  0.00     0.037 A 
HETATM   24  C   UNL     1     -31.996  39.974 -50.089  1.00  0.00     0.068 A 
HETATM   25  C   UNL     1     -33.336  40.047 -49.705  1.00  0.00     0.037 A 
HETATM   26  C   UNL     1     -34.322  40.428 -50.623  1.00  0.00     0.016 A 
BRANCH  24  27
HETATM   27  O   UNL     1     -31.126  39.611 -49.097  1.00  0.00    -0.351 OA
BRANCH  27  28
HETATM   28  C   UNL     1     -31.703  39.155 -47.873  1.00  0.00     0.175 C 
BRANCH  28  29
HETATM   29  C   UNL     1     -30.602  39.089 -46.821  1.00  0.00     0.022 C 
HETATM   30  C   UNL     1     -30.190  40.473 -46.353  1.00  0.00     0.007 C 
ENDBRANCH  28  29
ENDBRANCH  27  28
ENDBRANCH  24  27
ENDBRANCH   1  21
TORSDOF 8
ENDMDL
MODEL 5
REMARK VINA RESULT:      -7.1      7.404     10.468
REMARK  8 active torsions:
REMARK  status: ('A' for Active; 'I' for Inactive)
REMARK    1  A    between atoms: C_2  and  C_3 
REMARK    2  A    between atoms: C_3  and  O_4 
REMARK    3  A    between atoms: O_4  and  C_5 
REMARK    4  A    between atoms: C_8  and  C_9 
REMARK    5  A    between atoms: C_13  and  C_14 
REMARK       I    between atoms: C_14  and  N_15 
REMARK    6  A    between atoms: N_15  and  N_16 
REMARK    7  A    between atoms: C_17  and  C_18 
REMARK    8  A    between atoms: C_20  and  O_21 
ROOT
HETATM    1  C   UNL     1     -42.257  55.639 -54.991  1.00  0.00     0.089 A 
HETATM    2  N   UNL     1     -42.764  56.804 -54.560  1.00  0.00    -0.174 NA
HETATM    3  N   UNL     1     -43.303  57.366 -55.654  1.00  0.00    -0.272 N 
HETATM    4  H   UNL     1     -43.771  58.264 -55.569  1.00  0.00     0.189 HD
HETATM    5  C   UNL     1     -43.141  56.635 -56.798  1.00  0.00     0.121 A 
HETATM    6  C   UNL     1     -42.462  55.504 -56.393  1.00  0.00     0.071 A 
ENDROOT
BRANCH   5   7
HETATM    7  C   UNL     1     -43.646  57.087 -58.072  1.00  0.00     0.289 C 
HETATM    8  N   UNL     1     -44.687  56.318 -58.571  1.00  0.00    -0.242 N 
HETATM    9  H   UNL     1     -45.000  55.501 -58.066  1.00  0.00     0.192 HD
HETATM   10  O   UNL     1     -43.171  58.069 -58.635  1.00  0.00    -0.264 OA
BRANCH   8  11
HETATM   11  N   UNL     1     -45.316  56.655 -59.733  1.00  0.00    -0.184 NA
HETATM   12  C   UNL     1     -46.537  57.066 -59.595  1.00  0.00     0.150 C 
BRANCH  12  13
HETATM   13  C   UNL     1     -47.354  57.499 -60.744  1.00  0.00    -0.014 A 
HETATM   14  C   UNL     1     -47.643  58.854 -60.946  1.00  0.00     0.049 A 
HETATM   15  C   UNL     1     -48.433  59.240 -62.029  1.00  0.00     0.069 A 
HETATM   16  C   UNL     1     -48.923  58.263 -62.902  1.00  0.00     0.037 A 
HETATM   17  C   UNL     1     -48.634  56.911 -62.701  1.00  0.00     0.004 A 
HETATM   18  C   UNL     1     -47.847  56.525 -61.618  1.00  0.00     0.013 A 
BRANCH  15  19
HETATM   19  O   UNL     1     -48.798  60.520 -62.343  1.00  0.00    -0.356 OA
HETATM   20  C   UNL     1     -50.030  60.681 -63.037  1.00  0.00     0.210 C 
ENDBRANCH  15  19
ENDBRANCH  12  13
ENDBRANCH   8  11
ENDBRANCH   5   7
BRANCH   1  21
HETATM   21  C   UNL     1     -41.588  54.694 -54.094  1.00  0.00    -0.005 A 
HETATM   22  C   UNL     1     -41.014  53.517 -54.595  1.00  0.00     0.016 A 
HETATM   23  C   UNL     1     -40.340  52.627 -53.749  1.00  0.00     0.037 A 
HETATM   24  C   UNL     1     -40.226  52.903 -52.388  1.00  0.00     0.068 A 
HETATM   25  C   UNL     1     -40.818  54.059 -51.877  1.00  0.00     0.037 A 
HETATM   26  C   UNL     1     -41.493  54.949 -52.721  1.00  0.00     0.016 A 
BRANCH  24  27
HETATM   27  O   UNL     1     -39.578  52.126 -51.467  1.00  0.00    -0.351 OA
BRANCH  27  28
HETATM   28  C   UNL     1     -40.288  51.830 -50.264  1.00  0.00     0.175 C 
BRANCH  28  29
HETATM   29  C   UNL     1     -40.295  50.317 -50.073  1.00  0.00     0.022 C 
HETATM   30  C   UNL     1     -39.608  49.603 -51.224  1.00  0.00     0.007 C 
ENDBRANCH  28  29
ENDBRANCH  27  28
ENDBRANCH  24  27
ENDBRANCH   1  21
TORSDOF 8
ENDMDL
MODEL 6
REMARK VINA RESULT:      -7.1     20.387     21.695
REMARK  8 active torsions:
REMARK  status: ('A' for Active; 'I' for Inactive)
REMARK    1  A    between atoms: C_2  and  C_3 
REMARK    2  A    between atoms: C_3  and  O_4 
REMARK    3  A    between atoms: O_4  and  C_5 
REMARK    4  A    between atoms: C_8  and  C_9 
REMARK    5  A    between atoms: C_13  and  C_14 
REMARK       I    between atoms: C_14  and  N_15 
REMARK    6  A    between atoms: N_15  and  N_16 
REMARK    7  A    between atoms: C_17  and  C_18 
REMARK    8  A    between atoms: C_20  and  O_21 
ROOT
HETATM    1  C   UNL     1     -35.247  41.115 -56.620  1.00  0.00     0.089 A 
HETATM    2  N   UNL     1     -35.442  42.251 -55.933  1.00  0.00    -0.174 NA
HETATM    3  N   UNL     1     -34.619  42.155 -54.876  1.00  0.00    -0.272 N 
HETATM    4  H   UNL     1     -34.579  42.921 -54.210  1.00  0.00     0.189 HD
HETATM    5  C   UNL     1     -33.915  40.984 -54.818  1.00  0.00     0.121 A 
HETATM    6  C   UNL     1     -34.305  40.289 -55.944  1.00  0.00     0.071 A 
ENDROOT
BRANCH   5   7
HETATM    7  C   UNL     1     -32.990  40.701 -53.747  1.00  0.00     0.289 C 
HETATM    8  N   UNL     1     -33.548  40.791 -52.480  1.00  0.00    -0.242 N 
HETATM    9  H   UNL     1     -34.513  41.071 -52.372  1.00  0.00     0.192 HD
HETATM   10  O   UNL     1     -31.819  40.412 -53.974  1.00  0.00    -0.264 OA
BRANCH   8  11
HETATM   11  N   UNL     1     -32.821  40.487 -51.367  1.00  0.00    -0.184 NA
HETATM   12  C   UNL     1     -33.475  39.866 -50.438  1.00  0.00     0.150 C 
BRANCH  12  13
HETATM   13  C   UNL     1     -32.835  39.435 -49.181  1.00  0.00    -0.014 A 
HETATM   14  C   UNL     1     -31.623  39.999 -48.766  1.00  0.00     0.049 A 
HETATM   15  C   UNL     1     -31.027  39.564 -47.582  1.00  0.00     0.069 A 
HETATM   16  C   UNL     1     -31.654  38.570 -46.823  1.00  0.00     0.037 A 
HETATM   17  C   UNL     1     -32.864  38.010 -47.237  1.00  0.00     0.004 A 
HETATM   18  C   UNL     1     -33.459  38.442 -48.420  1.00  0.00     0.013 A 
BRANCH  15  19
HETATM   19  O   UNL     1     -29.846  40.018 -47.062  1.00  0.00    -0.356 OA
HETATM   20  C   UNL     1     -29.918  40.704 -45.817  1.00  0.00     0.210 C 
ENDBRANCH  15  19
ENDBRANCH  12  13
ENDBRANCH   8  11
ENDBRANCH   5   7
BRANCH   1  21
HETATM   21  C   UNL     1     -35.947  40.825 -57.873  1.00  0.00    -0.005 A 
HETATM   22  C   UNL     1     -36.696  41.817 -58.521  1.00  0.00     0.016 A 
HETATM   23  C   UNL     1     -37.337  41.558 -59.738  1.00  0.00     0.037 A 
HETATM   24  C   UNL     1     -37.235  40.301 -60.331  1.00  0.00     0.068 A 
HETATM   25  C   UNL     1     -36.512  39.299 -59.680  1.00  0.00     0.037 A 
HETATM   26  C   UNL     1     -35.872  39.557 -58.461  1.00  0.00     0.016 A 
BRANCH  24  27
HETATM   27  O   UNL     1     -37.796  39.931 -61.523  1.00  0.00    -0.351 OA
BRANCH  27  28
HETATM   28  C   UNL     1     -37.582  38.584 -61.942  1.00  0.00     0.175 C 
BRANCH  28  29
HETATM   29  C   UNL     1     -38.938  37.957 -62.248  1.00  0.00     0.022 C 
HETATM   30  C   UNL     1     -39.831  37.925 -61.020  1.00  0.00     0.007 C 
ENDBRANCH  28  29
ENDBRANCH  27  28
ENDBRANCH  24  27
ENDBRANCH   1  21
TORSDOF 8
ENDMDL
MODEL 7
REMARK VINA RESULT:      -7.1      7.794     12.062
REMARK  8 active torsions:
REMARK  status: ('A' for Active; 'I' for Inactive)
REMARK    1  A    between atoms: C_2  and  C_3 
REMARK    2  A    between atoms: C_3  and  O_4 
REMARK    3  A    between atoms: O_4  and  C_5 
REMARK    4  A    between atoms: C_8  and  C_9 
REMARK    5  A    between atoms: C_13  and  C_14 
REMARK       I    between atoms: C_14  and  N_15 
REMARK    6  A    between atoms: N_15  and  N_16 
REMARK    7  A    between atoms: C_17  and  C_18 
REMARK    8  A    between atoms: C_20  and  O_21 
ROOT
HETATM    1  C   UNL     1     -45.763  56.637 -59.907  1.00  0.00     0.089 A 
HETATM    2  N   UNL     1     -45.351  55.383 -60.154  1.00  0.00    -0.174 NA
HETATM    3  N   UNL     1     -44.398  55.152 -59.237  1.00  0.00    -0.272 N 
HETATM    4  H   UNL     1     -43.944  54.243 -59.215  1.00  0.00     0.189 HD
HETATM    5  C   UNL     1     -44.138  56.215 -58.417  1.00  0.00     0.121 A 
HETATM    6  C   UNL     1     -45.015  57.196 -58.833  1.00  0.00     0.071 A 
ENDROOT
BRANCH   5   7
HETATM    7  C   UNL     1     -43.138  56.152 -57.378  1.00  0.00     0.289 C 
HETATM    8  N   UNL     1     -43.215  55.015 -56.589  1.00  0.00    -0.242 N 
HETATM    9  H   UNL     1     -43.949  54.339 -56.746  1.00  0.00     0.192 HD
HETATM   10  O   UNL     1     -42.309  57.046 -57.236  1.00  0.00    -0.264 OA
BRANCH   8  11
HETATM   11  N   UNL     1     -42.298  54.776 -55.607  1.00  0.00    -0.184 NA
HETATM   12  C   UNL     1     -42.499  53.696 -54.922  1.00  0.00     0.150 C 
BRANCH  12  13
HETATM   13  C   UNL     1     -41.588  53.270 -53.842  1.00  0.00    -0.014 A 
HETATM   14  C   UNL     1     -41.759  53.741 -52.535  1.00  0.00     0.049 A 
HETATM   15  C   UNL     1     -40.875  53.339 -51.534  1.00  0.00     0.069 A 
HETATM   16  C   UNL     1     -39.830  52.466 -51.851  1.00  0.00     0.037 A 
HETATM   17  C   UNL     1     -39.661  51.995 -53.155  1.00  0.00     0.004 A 
HETATM   18  C   UNL     1     -40.542  52.398 -54.157  1.00  0.00     0.013 A 
BRANCH  15  19
HETATM   19  O   UNL     1     -40.918  53.723 -50.221  1.00  0.00    -0.356 OA
HETATM   20  C   UNL     1     -39.760  54.369 -49.706  1.00  0.00     0.210 C 
ENDBRANCH  15  19
ENDBRANCH  12  13
ENDBRANCH   8  11
ENDBRANCH   5   7
BRANCH   1  21
HETATM   21  C   UNL     1     -46.826  57.282 -60.682  1.00  0.00    -0.005 A 
HETATM   22  C   UNL     1     -47.009  58.671 -60.627  1.00  0.00     0.016 A 
HETATM   23  C   UNL     1     -47.998  59.298 -61.393  1.00  0.00     0.037 A 
HETATM   24  C   UNL     1     -48.819  58.546 -62.231  1.00  0.00     0.068 A 
HETATM   25  C   UNL     1     -48.660  57.159 -62.272  1.00  0.00     0.037 A 
HETATM   26  C   UNL     1     -47.672  56.530 -61.505  1.00  0.00     0.016 A 
BRANCH  24  27
HETATM   27  O   UNL     1     -49.804  59.042 -63.041  1.00  0.00    -0.351 OA
BRANCH  27  28
HETATM   28  C   UNL     1     -50.669  60.024 -62.472  1.00  0.00     0.175 C 
BRANCH  28  29
HETATM   29  C   UNL     1     -52.110  59.616 -62.757  1.00  0.00     0.022 C 
HETATM   30  C   UNL     1     -52.653  58.688 -61.686  1.00  0.00     0.007 C 
ENDBRANCH  28  29
ENDBRANCH  27  28
ENDBRANCH  24  27
ENDBRANCH   1  21
TORSDOF 8
ENDMDL
MODEL 8
REMARK VINA RESULT:      -7.0     19.062     21.587
REMARK  8 active torsions:
REMARK  status: ('A' for Active; 'I' for Inactive)
REMARK    1  A    between atoms: C_2  and  C_3 
REMARK    2  A    between atoms: C_3  and  O_4 
REMARK    3  A    between atoms: O_4  and  C_5 
REMARK    4  A    between atoms: C_8  and  C_9 
REMARK    5  A    between atoms: C_13  and  C_14 
REMARK       I    between atoms: C_14  and  N_15 
REMARK    6  A    between atoms: N_15  and  N_16 
REMARK    7  A    between atoms: C_17  and  C_18 
REMARK    8  A    between atoms: C_20  and  O_21 
ROOT
HETATM    1  C   UNL     1     -34.995  41.492 -53.299  1.00  0.00     0.089 A 
HETATM    2  N   UNL     1     -35.154  42.387 -52.311  1.00  0.00    -0.174 NA
HETATM    3  N   UNL     1     -34.546  41.833 -51.249  1.00  0.00    -0.272 N 
HETATM    4  H   UNL     1     -34.521  42.346 -50.372  1.00  0.00     0.189 HD
HETATM    5  C   UNL     1     -34.022  40.593 -51.486  1.00  0.00     0.121 A 
HETATM    6  C   UNL     1     -34.301  40.347 -52.815  1.00  0.00     0.071 A 
ENDROOT
BRANCH   5   7
HETATM    7  C   UNL     1     -33.341  39.842 -50.459  1.00  0.00     0.289 C 
HETATM    8  N   UNL     1     -32.029  40.241 -50.245  1.00  0.00    -0.242 N 
HETATM    9  H   UNL     1     -31.624  40.972 -50.812  1.00  0.00     0.192 HD
HETATM   10  O   UNL     1     -33.903  38.937 -49.851  1.00  0.00    -0.264 OA
BRANCH   8  11
HETATM   11  N   UNL     1     -31.273  39.674 -49.262  1.00  0.00    -0.184 NA
HETATM   12  C   UNL     1     -31.551  40.070 -48.061  1.00  0.00     0.150 C 
BRANCH  12  13
HETATM   13  C   UNL     1     -30.851  39.537 -46.876  1.00  0.00    -0.014 A 
HETATM   14  C   UNL     1     -30.023  40.361 -46.105  1.00  0.00     0.049 A 
HETATM   15  C   UNL     1     -29.356  39.832 -45.000  1.00  0.00     0.069 A 
HETATM   16  C   UNL     1     -29.530  38.482 -44.676  1.00  0.00     0.037 A 
HETATM   17  C   UNL     1     -30.358  37.661 -45.445  1.00  0.00     0.004 A 
HETATM   18  C   UNL     1     -31.022  38.188 -46.550  1.00  0.00     0.013 A 
BRANCH  15  19
HETATM   19  O   UNL     1     -28.515  40.514 -44.165  1.00  0.00    -0.356 OA
HETATM   20  C   UNL     1     -28.433  40.053 -42.822  1.00  0.00     0.210 C 
ENDBRANCH  15  19
ENDBRANCH  12  13
ENDBRANCH   8  11
ENDBRANCH   5   7
BRANCH   1  21
HETATM   21  C   UNL     1     -35.501  41.720 -54.654  1.00  0.00    -0.005 A 
HETATM   22  C   UNL     1     -34.630  41.719 -55.752  1.00  0.00     0.016 A 
HETATM   23  C   UNL     1     -35.111  41.898 -57.055  1.00  0.00     0.037 A 
HETATM   24  C   UNL     1     -36.474  42.078 -57.280  1.00  0.00     0.068 A 
HETATM   25  C   UNL     1     -37.345  42.107 -56.190  1.00  0.00     0.037 A 
HETATM   26  C   UNL     1     -36.865  41.929 -54.886  1.00  0.00     0.016 A 
BRANCH  24  27
HETATM   27  O   UNL     1     -37.067  42.243 -58.502  1.00  0.00    -0.351 OA
BRANCH  27  28
HETATM   28  C   UNL     1     -37.096  41.103 -59.360  1.00  0.00     0.175 C 
BRANCH  28  29
HETATM   29  C   UNL     1     -38.323  40.270 -59.007  1.00  0.00     0.022 C 
HETATM   30  C   UNL     1     -37.941  38.965 -58.331  1.00  0.00     0.007 C 
ENDBRANCH  28  29
ENDBRANCH  27  28
ENDBRANCH  24  27
ENDBRANCH   1  21
TORSDOF 8
ENDMDL
MODEL 9
REMARK VINA RESULT:      -6.9     19.811     22.553
REMARK  8 active torsions:
REMARK  status: ('A' for Active; 'I' for Inactive)
REMARK    1  A    between atoms: C_2  and  C_3 
REMARK    2  A    between atoms: C_3  and  O_4 
REMARK    3  A    between atoms: O_4  and  C_5 
REMARK    4  A    between atoms: C_8  and  C_9 
REMARK    5  A    between atoms: C_13  and  C_14 
REMARK       I    between atoms: C_14  and  N_15 
REMARK    6  A    between atoms: N_15  and  N_16 
REMARK    7  A    between atoms: C_17  and  C_18 
REMARK    8  A    between atoms: C_20  and  O_21 
ROOT
HETATM    1  C   UNL     1     -32.741  40.048 -50.303  1.00  0.00     0.089 A 
HETATM    2  N   UNL     1     -31.807  40.387 -51.206  1.00  0.00    -0.174 NA
HETATM    3  N   UNL     1     -32.503  40.843 -52.260  1.00  0.00    -0.272 N 
HETATM    4  H   UNL     1     -31.999  41.182 -53.075  1.00  0.00     0.189 HD
HETATM    5  C   UNL     1     -33.860  40.786 -52.104  1.00  0.00     0.121 A 
HETATM    6  C   UNL     1     -34.041  40.272 -50.836  1.00  0.00     0.071 A 
ENDROOT
BRANCH   5   7
HETATM    7  C   UNL     1     -34.767  41.225 -53.137  1.00  0.00     0.289 C 
HETATM    8  N   UNL     1     -34.213  41.232 -54.408  1.00  0.00    -0.242 N 
HETATM    9  H   UNL     1     -33.244  40.980 -54.539  1.00  0.00     0.192 HD
HETATM   10  O   UNL     1     -35.920  41.556 -52.876  1.00  0.00    -0.264 OA
BRANCH   8  11
HETATM   11  N   UNL     1     -34.963  41.558 -55.500  1.00  0.00    -0.184 NA
HETATM   12  C   UNL     1     -35.140  40.596 -56.349  1.00  0.00     0.150 C 
BRANCH  12  13
HETATM   13  C   UNL     1     -35.949  40.765 -57.571  1.00  0.00    -0.014 A 
HETATM   14  C   UNL     1     -36.311  39.659 -58.348  1.00  0.00     0.049 A 
HETATM   15  C   UNL     1     -37.061  39.844 -59.509  1.00  0.00     0.069 A 
HETATM   16  C   UNL     1     -37.446  41.138 -59.878  1.00  0.00     0.037 A 
HETATM   17  C   UNL     1     -37.086  42.241 -59.101  1.00  0.00     0.004 A 
HETATM   18  C   UNL     1     -36.335  42.057 -57.942  1.00  0.00     0.013 A 
BRANCH  15  19
HETATM   19  O   UNL     1     -37.477  38.861 -60.364  1.00  0.00    -0.356 OA
HETATM   20  C   UNL     1     -37.081  38.986 -61.725  1.00  0.00     0.210 C 
ENDBRANCH  15  19
ENDBRANCH  12  13
ENDBRANCH   8  11
ENDBRANCH   5   7
BRANCH   1  21
HETATM   21  C   UNL     1     -32.399  39.517 -48.982  1.00  0.00    -0.005 A 
HETATM   22  C   UNL     1     -33.173  38.505 -48.396  1.00  0.00     0.016 A 
HETATM   23  C   UNL     1     -32.831  37.965 -47.150  1.00  0.00     0.037 A 
HETATM   24  C   UNL     1     -31.706  38.429 -46.470  1.00  0.00     0.068 A 
HETATM   25  C   UNL     1     -30.946  39.455 -47.034  1.00  0.00     0.037 A 
HETATM   26  C   UNL     1     -31.287  39.996 -48.280  1.00  0.00     0.016 A 
BRANCH  24  27
HETATM   27  O   UNL     1     -31.258  37.971 -45.261  1.00  0.00    -0.351 OA
BRANCH  27  28
HETATM   28  C   UNL     1     -31.417  38.846 -44.145  1.00  0.00     0.175 C 
BRANCH  28  29
HETATM   29  C   UNL     1     -30.107  38.869 -43.365  1.00  0.00     0.022 C 
HETATM   30  C   UNL     1     -29.209  40.010 -43.809  1.00  0.00     0.007 C 
ENDBRANCH  28  29
ENDBRANCH  27  28
ENDBRANCH  24  27
ENDBRANCH   1  21
TORSDOF 8
ENDMDL
MODEL 10
REMARK VINA RESULT:      -6.7     19.524     21.411
REMARK  8 active torsions:
REMARK  status: ('A' for Active; 'I' for Inactive)
REMARK    1  A    between atoms: C_2  and  C_3 
REMARK    2  A    between atoms: C_3  and  O_4 
REMARK    3  A    between atoms: O_4  and  C_5 
REMARK    4  A    between atoms: C_8  and  C_9 
REMARK    5  A    between atoms: C_13  and  C_14 
REMARK       I    between atoms: C_14  and  N_15 
REMARK    6  A    between atoms: N_15  and  N_16 
REMARK    7  A    between atoms: C_17  and  C_18 
REMARK    8  A    between atoms: C_20  and  O_21 
ROOT
HETATM    1  C   UNL     1     -35.776  41.484 -56.175  1.00  0.00     0.089 A 
HETATM    2  N   UNL     1     -35.220  42.672 -55.891  1.00  0.00    -0.174 NA
HETATM    3  N   UNL     1     -34.942  42.612 -54.579  1.00  0.00    -0.272 N 
HETATM    4  H   UNL     1     -34.490  43.406 -54.133  1.00  0.00     0.189 HD
HETATM    5  C   UNL     1     -35.325  41.446 -53.977  1.00  0.00     0.121 A 
HETATM    6  C   UNL     1     -35.871  40.693 -54.996  1.00  0.00     0.071 A 
ENDROOT
BRANCH   5   7
HETATM    7  C   UNL     1     -35.115  41.209 -52.569  1.00  0.00     0.289 C 
HETATM    8  N   UNL     1     -33.784  41.036 -52.218  1.00  0.00    -0.242 N 
HETATM    9  H   UNL     1     -33.068  41.047 -52.930  1.00  0.00     0.192 HD
HETATM   10  O   UNL     1     -36.056  41.168 -51.781  1.00  0.00    -0.264 OA
BRANCH   8  11
HETATM   11  N   UNL     1     -33.416  40.869 -50.915  1.00  0.00    -0.184 NA
HETATM   12  C   UNL     1     -33.162  39.647 -50.570  1.00  0.00     0.150 C 
BRANCH  12  13
HETATM   13  C   UNL     1     -32.722  39.291 -49.208  1.00  0.00    -0.014 A 
HETATM   14  C   UNL     1     -33.486  38.430 -48.411  1.00  0.00     0.049 A 
HETATM   15  C   UNL     1     -33.060  38.122 -47.120  1.00  0.00     0.069 A 
HETATM   16  C   UNL     1     -31.868  38.675 -46.640  1.00  0.00     0.037 A 
HETATM   17  C   UNL     1     -31.105  39.532 -47.436  1.00  0.00     0.004 A 
HETATM   18  C   UNL     1     -31.531  39.843 -48.726  1.00  0.00     0.013 A 
BRANCH  15  19
HETATM   19  O   UNL     1     -33.706  37.306 -46.233  1.00  0.00    -0.356 OA
HETATM   20  C   UNL     1     -33.367  37.458 -44.859  1.00  0.00     0.210 C 
ENDBRANCH  15  19
ENDBRANCH  12  13
ENDBRANCH   8  11
ENDBRANCH   5   7
BRANCH   1  21
HETATM   21  C   UNL     1     -36.213  41.124 -57.526  1.00  0.00    -0.005 A 
HETATM   22  C   UNL     1     -35.973  39.841 -58.037  1.00  0.00     0.016 A 
HETATM   23  C   UNL     1     -36.421  39.477 -59.313  1.00  0.00     0.037 A 
HETATM   24  C   UNL     1     -37.121  40.392 -60.098  1.00  0.00     0.068 A 
HETATM   25  C   UNL     1     -37.341  41.680 -59.606  1.00  0.00     0.037 A 
HETATM   26  C   UNL     1     -36.893  42.045 -58.331  1.00  0.00     0.016 A 
BRANCH  24  27
HETATM   27  O   UNL     1     -37.626  40.152 -61.347  1.00  0.00    -0.351 OA
BRANCH  27  28
HETATM   28  C   UNL     1     -37.691  38.788 -61.761  1.00  0.00     0.175 C 
BRANCH  28  29
HETATM   29  C   UNL     1     -39.118  38.293 -61.552  1.00  0.00     0.022 C 
HETATM   30  C   UNL     1     -39.393  37.024 -62.339  1.00  0.00     0.007 C 
ENDBRANCH  28  29
ENDBRANCH  27  28
ENDBRANCH  24  27
ENDBRANCH   1  21
TORSDOF 8
ENDMDL
