MODEL 1
REMARK VINA RESULT:      -8.8      0.000      0.000
REMARK  7 active torsions:
REMARK  status: ('A' for Active; 'I' for Inactive)
REMARK    1  A    between atoms: C_5  and  C_6 
REMARK    2  A    between atoms: C_10  and  C_11 
REMARK       I    between atoms: C_11  and  N_12 
REMARK    3  A    between atoms: N_12  and  N_13 
REMARK       I    between atoms: N_13  and  C_14 
REMARK       I    between atoms: C_14  and  N_15 
REMARK    4  A    between atoms: N_15  and  C_16 
REMARK    5  A    between atoms: C_16  and  C_17 
REMARK    6  A    between atoms: C_17  and  C_18 
REMARK    7  A    between atoms: C_21  and  O_22 
ROOT
HETATM    1  C   UNL     1     -44.324  57.588 -50.938  1.00  0.00     0.288 C 
HETATM    2  N   UNL     1     -43.931  58.876 -50.649  1.00  0.00    -0.261 N 
HETATM    3  O   UNL     1     -45.506  57.251 -50.956  1.00  0.00    -0.264 OA
HETATM    4  H   UNL     1     -42.961  59.145 -50.494  1.00  0.00     0.190 HD
ENDROOT
BRANCH   2   5
HETATM    5  N   UNL     1     -44.898  59.807 -50.246  1.00  0.00    -0.249 N 
HETATM    6  C   UNL     1     -44.453  61.010 -49.748  1.00  0.00     0.335 C 
HETATM    7  N   UNL     1     -45.488  61.878 -49.502  1.00  0.00    -0.337 N 
HETATM    8  O   UNL     1     -43.269  61.246 -49.534  1.00  0.00    -0.246 OA
HETATM    9  H   UNL     1     -46.366  61.412 -49.311  1.00  0.00     0.164 HD
HETATM   10  H   UNL     1     -45.797  59.743 -50.714  1.00  0.00     0.192 HD
BRANCH   7  11
HETATM   11  C   UNL     1     -45.261  63.136 -48.788  1.00  0.00     0.086 C 
HETATM   12  C   UNL     1     -45.653  64.336 -49.656  1.00  0.00     0.032 C 
BRANCH  11  13
HETATM   13  C   UNL     1     -46.057  63.183 -47.462  1.00  0.00     0.063 C 
BRANCH  13  14
HETATM   14  C   UNL     1     -45.980  61.936 -46.604  1.00  0.00    -0.056 A 
HETATM   15  C   UNL     1     -44.846  61.628 -45.838  1.00  0.00     0.010 A 
HETATM   16  C   UNL     1     -44.798  60.459 -45.072  1.00  0.00     0.037 A 
HETATM   17  C   UNL     1     -45.896  59.607 -45.053  1.00  0.00     0.065 A 
HETATM   18  C   UNL     1     -47.040  59.907 -45.780  1.00  0.00     0.037 A 
HETATM   19  C   UNL     1     -47.084  61.070 -46.550  1.00  0.00     0.010 A 
BRANCH  17  20
HETATM   20  O   UNL     1     -45.890  58.455 -44.325  1.00  0.00    -0.361 OA
HETATM   21  H   UNL     1     -46.068  58.673 -43.396  1.00  0.00     0.217 HD
ENDBRANCH  17  20
ENDBRANCH  13  14
ENDBRANCH  11  13
ENDBRANCH   7  11
ENDBRANCH   2   5
BRANCH   1  22
HETATM   22  C   UNL     1     -43.258  56.667 -51.221  1.00  0.00     0.121 A 
HETATM   23  N   UNL     1     -42.018  56.811 -50.666  1.00  0.00    -0.272 N 
HETATM   24  N   UNL     1     -41.142  55.863 -51.024  1.00  0.00    -0.174 NA
HETATM   25  H   UNL     1     -41.716  57.544 -50.032  1.00  0.00     0.189 HD
HETATM   26  C   UNL     1     -41.836  55.038 -51.825  1.00  0.00     0.089 A 
HETATM   27  C   UNL     1     -43.166  55.524 -51.991  1.00  0.00     0.071 A 
BRANCH  26  28
HETATM   28  C   UNL     1     -41.234  53.828 -52.393  1.00  0.00    -0.006 A 
HETATM   29  C   UNL     1     -40.394  53.006 -51.629  1.00  0.00     0.014 A 
HETATM   30  C   UNL     1     -39.806  51.865 -52.188  1.00  0.00     0.007 A 
HETATM   31  C   UNL     1     -40.042  51.526 -53.524  1.00  0.00    -0.062 A 
HETATM   32  C   UNL     1     -39.427  50.300 -54.130  1.00  0.00     0.048 C 
HETATM   33  C   UNL     1     -40.890  52.335 -54.287  1.00  0.00     0.007 A 
HETATM   34  C   UNL     1     -41.475  53.476 -53.729  1.00  0.00     0.014 A 
ENDBRANCH  26  28
ENDBRANCH   1  22
TORSDOF 7
ENDMDL
MODEL 2
REMARK VINA RESULT:      -8.5      2.562     10.842
REMARK  7 active torsions:
REMARK  status: ('A' for Active; 'I' for Inactive)
REMARK    1  A    between atoms: C_5  and  C_6 
REMARK    2  A    between atoms: C_10  and  C_11 
REMARK       I    between atoms: C_11  and  N_12 
REMARK    3  A    between atoms: N_12  and  N_13 
REMARK       I    between atoms: N_13  and  C_14 
REMARK       I    between atoms: C_14  and  N_15 
REMARK    4  A    between atoms: N_15  and  C_16 
REMARK    5  A    between atoms: C_16  and  C_17 
REMARK    6  A    between atoms: C_17  and  C_18 
REMARK    7  A    between atoms: C_21  and  O_22 
ROOT
HETATM    1  C   UNL     1     -43.940  59.342 -51.846  1.00  0.00     0.288 C 
HETATM    2  N   UNL     1     -42.888  58.533 -51.477  1.00  0.00    -0.261 N 
HETATM    3  O   UNL     1     -44.375  59.368 -52.996  1.00  0.00    -0.264 OA
HETATM    4  H   UNL     1     -42.425  58.594 -50.573  1.00  0.00     0.190 HD
ENDROOT
BRANCH   2   5
HETATM    5  N   UNL     1     -42.214  57.803 -52.465  1.00  0.00    -0.249 N 
HETATM    6  C   UNL     1     -42.542  56.473 -52.606  1.00  0.00     0.335 C 
HETATM    7  N   UNL     1     -41.907  55.899 -53.679  1.00  0.00    -0.337 N 
HETATM    8  O   UNL     1     -43.296  55.887 -51.837  1.00  0.00    -0.246 OA
HETATM    9  H   UNL     1     -41.035  56.354 -53.920  1.00  0.00     0.164 HD
HETATM   10  H   UNL     1     -41.876  58.337 -53.259  1.00  0.00     0.192 HD
BRANCH   7  11
HETATM   11  C   UNL     1     -41.956  54.452 -53.897  1.00  0.00     0.086 C 
HETATM   12  C   UNL     1     -42.953  54.098 -55.005  1.00  0.00     0.032 C 
BRANCH  11  13
HETATM   13  C   UNL     1     -40.562  53.889 -54.265  1.00  0.00     0.063 C 
BRANCH  13  14
HETATM   14  C   UNL     1     -40.234  52.523 -53.695  1.00  0.00    -0.056 A 
HETATM   15  C   UNL     1     -39.914  52.339 -52.342  1.00  0.00     0.010 A 
HETATM   16  C   UNL     1     -39.597  51.069 -51.851  1.00  0.00     0.037 A 
HETATM   17  C   UNL     1     -39.622  49.975 -52.709  1.00  0.00     0.065 A 
HETATM   18  C   UNL     1     -39.965  50.131 -54.045  1.00  0.00     0.037 A 
HETATM   19  C   UNL     1     -40.274  51.400 -54.537  1.00  0.00     0.010 A 
BRANCH  17  20
HETATM   20  O   UNL     1     -39.314  48.721 -52.274  1.00  0.00    -0.361 OA
HETATM   21  H   UNL     1     -38.699  48.794 -51.526  1.00  0.00     0.217 HD
ENDBRANCH  17  20
ENDBRANCH  13  14
ENDBRANCH  11  13
ENDBRANCH   7  11
ENDBRANCH   2   5
BRANCH   1  22
HETATM   22  C   UNL     1     -44.494  60.150 -50.796  1.00  0.00     0.121 A 
HETATM   23  N   UNL     1     -45.828  60.443 -50.743  1.00  0.00    -0.272 N 
HETATM   24  N   UNL     1     -46.184  61.198 -49.696  1.00  0.00    -0.174 NA
HETATM   25  H   UNL     1     -46.542  60.151 -51.403  1.00  0.00     0.189 HD
HETATM   26  C   UNL     1     -45.047  61.389 -49.007  1.00  0.00     0.089 A 
HETATM   27  C   UNL     1     -43.957  60.763 -49.681  1.00  0.00     0.071 A 
BRANCH  26  28
HETATM   28  C   UNL     1     -45.025  62.137 -47.746  1.00  0.00    -0.006 A 
HETATM   29  C   UNL     1     -45.044  61.478 -46.509  1.00  0.00     0.014 A 
HETATM   30  C   UNL     1     -45.045  62.203 -45.310  1.00  0.00     0.007 A 
HETATM   31  C   UNL     1     -45.034  63.601 -45.326  1.00  0.00    -0.062 A 
HETATM   32  C   UNL     1     -45.025  64.386 -44.049  1.00  0.00     0.048 C 
HETATM   33  C   UNL     1     -45.001  64.264 -46.557  1.00  0.00     0.007 A 
HETATM   34  C   UNL     1     -45.003  63.539 -47.753  1.00  0.00     0.014 A 
ENDBRANCH  26  28
ENDBRANCH   1  22
TORSDOF 7
ENDMDL
MODEL 3
REMARK VINA RESULT:      -8.4      1.700      2.081
REMARK  7 active torsions:
REMARK  status: ('A' for Active; 'I' for Inactive)
REMARK    1  A    between atoms: C_5  and  C_6 
REMARK    2  A    between atoms: C_10  and  C_11 
REMARK       I    between atoms: C_11  and  N_12 
REMARK    3  A    between atoms: N_12  and  N_13 
REMARK       I    between atoms: N_13  and  C_14 
REMARK       I    between atoms: C_14  and  N_15 
REMARK    4  A    between atoms: N_15  and  C_16 
REMARK    5  A    between atoms: C_16  and  C_17 
REMARK    6  A    between atoms: C_17  and  C_18 
REMARK    7  A    between atoms: C_21  and  O_22 
ROOT
HETATM    1  C   UNL     1     -42.273  58.574 -50.930  1.00  0.00     0.288 C 
HETATM    2  N   UNL     1     -43.503  59.069 -50.556  1.00  0.00    -0.261 N 
HETATM    3  O   UNL     1     -41.246  59.247 -50.856  1.00  0.00    -0.264 OA
HETATM    4  H   UNL     1     -44.380  58.584 -50.735  1.00  0.00     0.190 HD
ENDROOT
BRANCH   2   5
HETATM    5  N   UNL     1     -43.610  60.417 -50.190  1.00  0.00    -0.249 N 
HETATM    6  C   UNL     1     -44.764  60.812 -49.551  1.00  0.00     0.335 C 
HETATM    7  N   UNL     1     -44.700  62.119 -49.138  1.00  0.00    -0.337 N 
HETATM    8  O   UNL     1     -45.730  60.071 -49.402  1.00  0.00    -0.246 OA
HETATM    9  H   UNL     1     -44.072  62.685 -49.695  1.00  0.00     0.164 HD
HETATM   10  H   UNL     1     -42.735  60.901 -50.019  1.00  0.00     0.192 HD
BRANCH   7  11
HETATM   11  C   UNL     1     -45.884  62.802 -48.615  1.00  0.00     0.086 C 
HETATM   12  C   UNL     1     -46.967  62.922 -49.691  1.00  0.00     0.032 C 
BRANCH  11  13
HETATM   13  C   UNL     1     -46.466  62.062 -47.386  1.00  0.00     0.063 C 
BRANCH  13  14
HETATM   14  C   UNL     1     -45.617  62.105 -46.131  1.00  0.00    -0.056 A 
HETATM   15  C   UNL     1     -44.912  60.983 -45.671  1.00  0.00     0.010 A 
HETATM   16  C   UNL     1     -44.153  61.049 -44.498  1.00  0.00     0.037 A 
HETATM   17  C   UNL     1     -44.079  62.246 -43.795  1.00  0.00     0.065 A 
HETATM   18  C   UNL     1     -44.745  63.376 -44.249  1.00  0.00     0.037 A 
HETATM   19  C   UNL     1     -45.508  63.308 -45.415  1.00  0.00     0.010 A 
BRANCH  17  20
HETATM   20  O   UNL     1     -43.357  62.353 -42.645  1.00  0.00    -0.361 OA
HETATM   21  H   UNL     1     -42.413  62.274 -42.862  1.00  0.00     0.217 HD
ENDBRANCH  17  20
ENDBRANCH  13  14
ENDBRANCH  11  13
ENDBRANCH   7  11
ENDBRANCH   2   5
BRANCH   1  22
HETATM   22  C   UNL     1     -42.272  57.220 -51.409  1.00  0.00     0.121 A 
HETATM   23  N   UNL     1     -43.432  56.559 -51.695  1.00  0.00    -0.272 N 
HETATM   24  N   UNL     1     -43.257  55.307 -52.140  1.00  0.00    -0.174 NA
HETATM   25  H   UNL     1     -44.377  56.919 -51.603  1.00  0.00     0.189 HD
HETATM   26  C   UNL     1     -41.925  55.141 -52.181  1.00  0.00     0.089 A 
HETATM   27  C   UNL     1     -41.271  56.316 -51.706  1.00  0.00     0.071 A 
BRANCH  26  28
HETATM   28  C   UNL     1     -41.318  53.899 -52.670  1.00  0.00    -0.006 A 
HETATM   29  C   UNL     1     -40.434  53.159 -51.873  1.00  0.00     0.014 A 
HETATM   30  C   UNL     1     -39.842  51.986 -52.357  1.00  0.00     0.007 A 
HETATM   31  C   UNL     1     -40.118  51.533 -53.651  1.00  0.00    -0.062 A 
HETATM   32  C   UNL     1     -39.499  50.272 -54.176  1.00  0.00     0.048 C 
HETATM   33  C   UNL     1     -41.010  52.259 -54.446  1.00  0.00     0.007 A 
HETATM   34  C   UNL     1     -41.598  53.432 -53.962  1.00  0.00     0.014 A 
ENDBRANCH  26  28
ENDBRANCH   1  22
TORSDOF 7
ENDMDL
MODEL 4
REMARK VINA RESULT:      -8.3      1.635      2.285
REMARK  7 active torsions:
REMARK  status: ('A' for Active; 'I' for Inactive)
REMARK    1  A    between atoms: C_5  and  C_6 
REMARK    2  A    between atoms: C_10  and  C_11 
REMARK       I    between atoms: C_11  and  N_12 
REMARK    3  A    between atoms: N_12  and  N_13 
REMARK       I    between atoms: N_13  and  C_14 
REMARK       I    between atoms: C_14  and  N_15 
REMARK    4  A    between atoms: N_15  and  C_16 
REMARK    5  A    between atoms: C_16  and  C_17 
REMARK    6  A    between atoms: C_17  and  C_18 
REMARK    7  A    between atoms: C_21  and  O_22 
ROOT
HETATM    1  C   UNL     1     -43.912  57.306 -50.871  1.00  0.00     0.288 C 
HETATM    2  N   UNL     1     -43.461  58.606 -50.926  1.00  0.00    -0.261 N 
HETATM    3  O   UNL     1     -45.088  57.029 -50.642  1.00  0.00    -0.264 OA
HETATM    4  H   UNL     1     -42.475  58.856 -50.977  1.00  0.00     0.190 HD
ENDROOT
BRANCH   2   5
HETATM    5  N   UNL     1     -44.341  59.645 -50.594  1.00  0.00    -0.249 N 
HETATM    6  C   UNL     1     -43.851  60.930 -50.636  1.00  0.00     0.335 C 
HETATM    7  N   UNL     1     -44.834  61.862 -50.411  1.00  0.00    -0.337 N 
HETATM    8  O   UNL     1     -42.668  61.187 -50.830  1.00  0.00    -0.246 OA
HETATM    9  H   UNL     1     -45.603  61.507 -49.857  1.00  0.00     0.164 HD
HETATM   10  H   UNL     1     -45.325  59.463 -50.762  1.00  0.00     0.192 HD
BRANCH   7  11
HETATM   11  C   UNL     1     -44.501  63.274 -50.215  1.00  0.00     0.086 C 
HETATM   12  C   UNL     1     -45.674  64.174 -50.618  1.00  0.00     0.032 C 
BRANCH  11  13
HETATM   13  C   UNL     1     -44.116  63.565 -48.745  1.00  0.00     0.063 C 
BRANCH  13  14
HETATM   14  C   UNL     1     -45.260  63.549 -47.750  1.00  0.00    -0.056 A 
HETATM   15  C   UNL     1     -45.762  62.354 -47.213  1.00  0.00     0.010 A 
HETATM   16  C   UNL     1     -46.831  62.371 -46.312  1.00  0.00     0.037 A 
HETATM   17  C   UNL     1     -47.385  63.587 -45.928  1.00  0.00     0.065 A 
HETATM   18  C   UNL     1     -46.884  64.782 -46.424  1.00  0.00     0.037 A 
HETATM   19  C   UNL     1     -45.822  64.765 -47.329  1.00  0.00     0.010 A 
BRANCH  17  20
HETATM   20  O   UNL     1     -48.431  63.649 -45.057  1.00  0.00    -0.361 OA
HETATM   21  H   UNL     1     -48.479  62.811 -44.568  1.00  0.00     0.217 HD
ENDBRANCH  17  20
ENDBRANCH  13  14
ENDBRANCH  11  13
ENDBRANCH   7  11
ENDBRANCH   2   5
BRANCH   1  22
HETATM   22  C   UNL     1     -42.916  56.297 -51.104  1.00  0.00     0.121 A 
HETATM   23  N   UNL     1     -41.853  56.130 -50.262  1.00  0.00    -0.272 N 
HETATM   24  N   UNL     1     -41.022  55.140 -50.614  1.00  0.00    -0.174 NA
HETATM   25  H   UNL     1     -41.647  56.670 -49.427  1.00  0.00     0.189 HD
HETATM   26  C   UNL     1     -41.572  54.608 -51.718  1.00  0.00     0.089 A 
HETATM   27  C   UNL     1     -42.753  55.324 -52.070  1.00  0.00     0.071 A 
BRANCH  26  28
HETATM   28  C   UNL     1     -40.979  53.448 -52.392  1.00  0.00    -0.006 A 
HETATM   29  C   UNL     1     -41.299  53.137 -53.720  1.00  0.00     0.014 A 
HETATM   30  C   UNL     1     -40.744  52.015 -54.348  1.00  0.00     0.007 A 
HETATM   31  C   UNL     1     -39.863  51.178 -53.657  1.00  0.00    -0.062 A 
HETATM   32  C   UNL     1     -39.254  49.980 -54.322  1.00  0.00     0.048 C 
HETATM   33  C   UNL     1     -39.528  51.491 -52.336  1.00  0.00     0.007 A 
HETATM   34  C   UNL     1     -40.085  52.610 -51.709  1.00  0.00     0.014 A 
ENDBRANCH  26  28
ENDBRANCH   1  22
TORSDOF 7
ENDMDL
MODEL 5
REMARK VINA RESULT:      -8.3      7.941     11.854
REMARK  7 active torsions:
REMARK  status: ('A' for Active; 'I' for Inactive)
REMARK    1  A    between atoms: C_5  and  C_6 
REMARK    2  A    between atoms: C_10  and  C_11 
REMARK       I    between atoms: C_11  and  N_12 
REMARK    3  A    between atoms: N_12  and  N_13 
REMARK       I    between atoms: N_13  and  C_14 
REMARK       I    between atoms: C_14  and  N_15 
REMARK    4  A    between atoms: N_15  and  C_16 
REMARK    5  A    between atoms: C_16  and  C_17 
REMARK    6  A    between atoms: C_17  and  C_18 
REMARK    7  A    between atoms: C_21  and  O_22 
ROOT
HETATM    1  C   UNL     1     -43.622  56.013 -59.252  1.00  0.00     0.288 C 
HETATM    2  N   UNL     1     -43.525  55.883 -57.885  1.00  0.00    -0.261 N 
HETATM    3  O   UNL     1     -42.677  55.773 -60.003  1.00  0.00    -0.264 OA
HETATM    4  H   UNL     1     -44.243  56.204 -57.239  1.00  0.00     0.190 HD
ENDROOT
BRANCH   2   5
HETATM    5  N   UNL     1     -42.279  55.583 -57.318  1.00  0.00    -0.249 N 
HETATM    6  C   UNL     1     -42.205  55.518 -55.945  1.00  0.00     0.335 C 
HETATM    7  N   UNL     1     -40.970  55.100 -55.516  1.00  0.00    -0.337 N 
HETATM    8  O   UNL     1     -43.139  55.825 -55.212  1.00  0.00    -0.246 OA
HETATM    9  H   UNL     1     -40.226  55.310 -56.170  1.00  0.00     0.164 HD
HETATM   10  H   UNL     1     -41.650  55.033 -57.894  1.00  0.00     0.192 HD
BRANCH   7  11
HETATM   11  C   UNL     1     -40.609  55.148 -54.099  1.00  0.00     0.086 C 
HETATM   12  C   UNL     1     -40.869  56.540 -53.514  1.00  0.00     0.032 C 
BRANCH  11  13
HETATM   13  C   UNL     1     -41.394  54.096 -53.280  1.00  0.00     0.063 C 
BRANCH  13  14
HETATM   14  C   UNL     1     -40.783  52.709 -53.233  1.00  0.00    -0.056 A 
HETATM   15  C   UNL     1     -40.860  51.825 -54.319  1.00  0.00     0.010 A 
HETATM   16  C   UNL     1     -40.303  50.545 -54.237  1.00  0.00     0.037 A 
HETATM   17  C   UNL     1     -39.646  50.156 -53.075  1.00  0.00     0.065 A 
HETATM   18  C   UNL     1     -39.532  51.026 -52.000  1.00  0.00     0.037 A 
HETATM   19  C   UNL     1     -40.095  52.301 -52.079  1.00  0.00     0.010 A 
BRANCH  17  20
HETATM   20  O   UNL     1     -39.094  48.917 -52.951  1.00  0.00    -0.361 OA
HETATM   21  H   UNL     1     -38.241  49.000 -52.493  1.00  0.00     0.217 HD
ENDBRANCH  17  20
ENDBRANCH  13  14
ENDBRANCH  11  13
ENDBRANCH   7  11
ENDBRANCH   2   5
BRANCH   1  22
HETATM   22  C   UNL     1     -44.902  56.443 -59.742  1.00  0.00     0.121 A 
HETATM   23  N   UNL     1     -45.970  55.593 -59.804  1.00  0.00    -0.272 N 
HETATM   24  N   UNL     1     -47.092  56.153 -60.275  1.00  0.00    -0.174 NA
HETATM   25  H   UNL     1     -45.985  54.614 -59.537  1.00  0.00     0.189 HD
HETATM   26  C   UNL     1     -46.765  57.435 -60.505  1.00  0.00     0.089 A 
HETATM   27  C   UNL     1     -45.389  57.651 -60.203  1.00  0.00     0.071 A 
BRANCH  26  28
HETATM   28  C   UNL     1     -47.752  58.408 -60.987  1.00  0.00    -0.006 A 
HETATM   29  C   UNL     1     -47.910  59.652 -60.363  1.00  0.00     0.014 A 
HETATM   30  C   UNL     1     -48.870  60.565 -60.817  1.00  0.00     0.007 A 
HETATM   31  C   UNL     1     -49.694  60.248 -61.901  1.00  0.00    -0.062 A 
HETATM   32  C   UNL     1     -50.718  61.222 -62.403  1.00  0.00     0.048 C 
HETATM   33  C   UNL     1     -49.531  59.013 -62.537  1.00  0.00     0.007 A 
HETATM   34  C   UNL     1     -48.575  58.102 -62.080  1.00  0.00     0.014 A 
ENDBRANCH  26  28
ENDBRANCH   1  22
TORSDOF 7
ENDMDL
MODEL 6
REMARK VINA RESULT:      -8.2      7.200     10.393
REMARK  7 active torsions:
REMARK  status: ('A' for Active; 'I' for Inactive)
REMARK    1  A    between atoms: C_5  and  C_6 
REMARK    2  A    between atoms: C_10  and  C_11 
REMARK       I    between atoms: C_11  and  N_12 
REMARK    3  A    between atoms: N_12  and  N_13 
REMARK       I    between atoms: N_13  and  C_14 
REMARK       I    between atoms: C_14  and  N_15 
REMARK    4  A    between atoms: N_15  and  C_16 
REMARK    5  A    between atoms: C_16  and  C_17 
REMARK    6  A    between atoms: C_17  and  C_18 
REMARK    7  A    between atoms: C_21  and  O_22 
ROOT
HETATM    1  C   UNL     1     -43.277  56.824 -57.748  1.00  0.00     0.288 C 
HETATM    2  N   UNL     1     -43.209  55.579 -57.162  1.00  0.00    -0.261 N 
HETATM    3  O   UNL     1     -42.329  57.606 -57.738  1.00  0.00    -0.264 OA
HETATM    4  H   UNL     1     -44.017  54.973 -57.038  1.00  0.00     0.190 HD
ENDROOT
BRANCH   2   5
HETATM    5  N   UNL     1     -42.065  55.236 -56.429  1.00  0.00    -0.249 N 
HETATM    6  C   UNL     1     -42.192  54.247 -55.480  1.00  0.00     0.335 C 
HETATM    7  N   UNL     1     -40.985  53.918 -54.916  1.00  0.00    -0.337 N 
HETATM    8  O   UNL     1     -43.271  53.751 -55.175  1.00  0.00    -0.246 OA
HETATM    9  H   UNL     1     -40.312  54.674 -54.940  1.00  0.00     0.164 HD
HETATM   10  H   UNL     1     -41.176  55.394 -56.892  1.00  0.00     0.192 HD
BRANCH   7  11
HETATM   11  C   UNL     1     -40.914  53.035 -53.751  1.00  0.00     0.086 C 
HETATM   12  C   UNL     1     -39.855  51.946 -53.953  1.00  0.00     0.032 C 
BRANCH  11  13
HETATM   13  C   UNL     1     -40.593  53.826 -52.461  1.00  0.00     0.063 C 
BRANCH  13  14
HETATM   14  C   UNL     1     -41.732  54.651 -51.895  1.00  0.00    -0.056 A 
HETATM   15  C   UNL     1     -42.813  54.064 -51.221  1.00  0.00     0.010 A 
HETATM   16  C   UNL     1     -43.858  54.851 -50.727  1.00  0.00     0.037 A 
HETATM   17  C   UNL     1     -43.812  56.231 -50.888  1.00  0.00     0.065 A 
HETATM   18  C   UNL     1     -42.738  56.836 -51.527  1.00  0.00     0.037 A 
HETATM   19  C   UNL     1     -41.699  56.049 -52.025  1.00  0.00     0.010 A 
BRANCH  17  20
HETATM   20  O   UNL     1     -44.812  57.035 -50.429  1.00  0.00    -0.361 OA
HETATM   21  H   UNL     1     -44.911  56.893 -49.473  1.00  0.00     0.217 HD
ENDBRANCH  17  20
ENDBRANCH  13  14
ENDBRANCH  11  13
ENDBRANCH   7  11
ENDBRANCH   2   5
BRANCH   1  22
HETATM   22  C   UNL     1     -44.530  57.142 -58.375  1.00  0.00     0.121 A 
HETATM   23  N   UNL     1     -45.597  57.600 -57.655  1.00  0.00    -0.272 N 
HETATM   24  N   UNL     1     -46.687  57.859 -58.390  1.00  0.00    -0.174 NA
HETATM   25  H   UNL     1     -45.634  57.752 -56.651  1.00  0.00     0.189 HD
HETATM   26  C   UNL     1     -46.319  57.594 -59.654  1.00  0.00     0.089 A 
HETATM   27  C   UNL     1     -44.975  57.118 -59.682  1.00  0.00     0.071 A 
BRANCH  26  28
HETATM   28  C   UNL     1     -47.231  57.804 -60.783  1.00  0.00    -0.006 A 
HETATM   29  C   UNL     1     -47.606  59.093 -61.184  1.00  0.00     0.014 A 
HETATM   30  C   UNL     1     -48.496  59.281 -62.249  1.00  0.00     0.007 A 
HETATM   31  C   UNL     1     -49.032  58.184 -62.929  1.00  0.00    -0.062 A 
HETATM   32  C   UNL     1     -49.977  58.375 -64.078  1.00  0.00     0.048 C 
HETATM   33  C   UNL     1     -48.651  56.896 -62.542  1.00  0.00     0.007 A 
HETATM   34  C   UNL     1     -47.765  56.708 -61.477  1.00  0.00     0.014 A 
ENDBRANCH  26  28
ENDBRANCH   1  22
TORSDOF 7
ENDMDL
MODEL 7
REMARK VINA RESULT:      -8.1      7.215     10.775
REMARK  7 active torsions:
REMARK  status: ('A' for Active; 'I' for Inactive)
REMARK    1  A    between atoms: C_5  and  C_6 
REMARK    2  A    between atoms: C_10  and  C_11 
REMARK       I    between atoms: C_11  and  N_12 
REMARK    3  A    between atoms: N_12  and  N_13 
REMARK       I    between atoms: N_13  and  C_14 
REMARK       I    between atoms: C_14  and  N_15 
REMARK    4  A    between atoms: N_15  and  C_16 
REMARK    5  A    between atoms: C_16  and  C_17 
REMARK    6  A    between atoms: C_17  and  C_18 
REMARK    7  A    between atoms: C_21  and  O_22 
ROOT
HETATM    1  C   UNL     1     -43.217  56.564 -57.530  1.00  0.00     0.288 C 
HETATM    2  N   UNL     1     -43.798  56.874 -56.320  1.00  0.00    -0.261 N 
HETATM    3  O   UNL     1     -42.898  55.414 -57.829  1.00  0.00    -0.264 OA
HETATM    4  H   UNL     1     -43.944  57.828 -55.997  1.00  0.00     0.190 HD
ENDROOT
BRANCH   2   5
HETATM    5  N   UNL     1     -43.924  55.870 -55.350  1.00  0.00    -0.249 N 
HETATM    6  C   UNL     1     -43.167  55.994 -54.207  1.00  0.00     0.335 C 
HETATM    7  N   UNL     1     -43.466  55.020 -53.286  1.00  0.00    -0.337 N 
HETATM    8  O   UNL     1     -42.317  56.865 -54.062  1.00  0.00    -0.246 OA
HETATM    9  H   UNL     1     -43.830  54.173 -53.703  1.00  0.00     0.164 HD
HETATM   10  H   UNL     1     -44.813  55.382 -55.329  1.00  0.00     0.192 HD
BRANCH   7  11
HETATM   11  C   UNL     1     -42.647  54.844 -52.086  1.00  0.00     0.086 C 
HETATM   12  C   UNL     1     -43.107  53.622 -51.284  1.00  0.00     0.032 C 
BRANCH  11  13
HETATM   13  C   UNL     1     -41.150  54.688 -52.441  1.00  0.00     0.063 C 
BRANCH  13  14
HETATM   14  C   UNL     1     -40.702  53.285 -52.802  1.00  0.00    -0.056 A 
HETATM   15  C   UNL     1     -41.002  52.704 -54.043  1.00  0.00     0.010 A 
HETATM   16  C   UNL     1     -40.592  51.400 -54.337  1.00  0.00     0.037 A 
HETATM   17  C   UNL     1     -39.859  50.683 -53.398  1.00  0.00     0.065 A 
HETATM   18  C   UNL     1     -39.526  51.249 -52.176  1.00  0.00     0.037 A 
HETATM   19  C   UNL     1     -39.942  52.547 -51.879  1.00  0.00     0.010 A 
BRANCH  17  20
HETATM   20  O   UNL     1     -39.445  49.407 -53.642  1.00  0.00    -0.361 OA
HETATM   21  H   UNL     1     -38.634  49.441 -54.176  1.00  0.00     0.217 HD
ENDBRANCH  17  20
ENDBRANCH  13  14
ENDBRANCH  11  13
ENDBRANCH   7  11
ENDBRANCH   2   5
BRANCH   1  22
HETATM   22  C   UNL     1     -43.012  57.674 -58.418  1.00  0.00     0.121 A 
HETATM   23  N   UNL     1     -43.928  58.005 -59.377  1.00  0.00    -0.272 N 
HETATM   24  N   UNL     1     -43.592  59.071 -60.115  1.00  0.00    -0.174 NA
HETATM   25  H   UNL     1     -44.806  57.531 -59.570  1.00  0.00     0.189 HD
HETATM   26  C   UNL     1     -42.420  59.484 -59.606  1.00  0.00     0.089 A 
HETATM   27  C   UNL     1     -42.011  58.616 -58.551  1.00  0.00     0.071 A 
BRANCH  26  28
HETATM   28  C   UNL     1     -41.734  60.676 -60.117  1.00  0.00    -0.006 A 
HETATM   29  C   UNL     1     -41.038  61.538 -59.259  1.00  0.00     0.014 A 
HETATM   30  C   UNL     1     -40.406  62.685 -59.755  1.00  0.00     0.007 A 
HETATM   31  C   UNL     1     -40.463  62.995 -61.117  1.00  0.00    -0.062 A 
HETATM   32  C   UNL     1     -39.781  64.216 -61.660  1.00  0.00     0.048 C 
HETATM   33  C   UNL     1     -41.145  62.132 -61.979  1.00  0.00     0.007 A 
HETATM   34  C   UNL     1     -41.778  60.988 -61.483  1.00  0.00     0.014 A 
ENDBRANCH  26  28
ENDBRANCH   1  22
TORSDOF 7
ENDMDL
MODEL 8
REMARK VINA RESULT:      -8.1      6.209     10.241
REMARK  7 active torsions:
REMARK  status: ('A' for Active; 'I' for Inactive)
REMARK    1  A    between atoms: C_5  and  C_6 
REMARK    2  A    between atoms: C_10  and  C_11 
REMARK       I    between atoms: C_11  and  N_12 
REMARK    3  A    between atoms: N_12  and  N_13 
REMARK       I    between atoms: N_13  and  C_14 
REMARK       I    between atoms: C_14  and  N_15 
REMARK    4  A    between atoms: N_15  and  C_16 
REMARK    5  A    between atoms: C_16  and  C_17 
REMARK    6  A    between atoms: C_17  and  C_18 
REMARK    7  A    between atoms: C_21  and  O_22 
ROOT
HETATM    1  C   UNL     1     -43.052  55.510 -55.708  1.00  0.00     0.288 C 
HETATM    2  N   UNL     1     -43.139  56.118 -54.475  1.00  0.00    -0.261 N 
HETATM    3  O   UNL     1     -42.983  54.289 -55.834  1.00  0.00    -0.264 OA
HETATM    4  H   UNL     1     -43.060  57.123 -54.339  1.00  0.00     0.190 HD
ENDROOT
BRANCH   2   5
HETATM    5  N   UNL     1     -43.025  55.331 -53.321  1.00  0.00    -0.249 N 
HETATM    6  C   UNL     1     -41.845  55.404 -52.616  1.00  0.00     0.335 C 
HETATM    7  N   UNL     1     -41.900  54.685 -51.448  1.00  0.00    -0.337 N 
HETATM    8  O   UNL     1     -40.866  56.024 -53.017  1.00  0.00    -0.246 OA
HETATM    9  H   UNL     1     -42.559  53.918 -51.479  1.00  0.00     0.164 HD
HETATM   10  H   UNL     1     -43.895  55.109 -52.847  1.00  0.00     0.192 HD
BRANCH   7  11
HETATM   11  C   UNL     1     -40.697  54.463 -50.644  1.00  0.00     0.086 C 
HETATM   12  C   UNL     1     -40.673  55.391 -49.425  1.00  0.00     0.032 C 
BRANCH  11  13
HETATM   13  C   UNL     1     -40.598  52.994 -50.169  1.00  0.00     0.063 C 
BRANCH  13  14
HETATM   14  C   UNL     1     -40.234  51.981 -51.237  1.00  0.00    -0.056 A 
HETATM   15  C   UNL     1     -39.912  50.652 -50.923  1.00  0.00     0.010 A 
HETATM   16  C   UNL     1     -39.563  49.747 -51.930  1.00  0.00     0.037 A 
HETATM   17  C   UNL     1     -39.557  50.164 -53.256  1.00  0.00     0.065 A 
HETATM   18  C   UNL     1     -39.901  51.466 -53.592  1.00  0.00     0.037 A 
HETATM   19  C   UNL     1     -40.243  52.371 -52.586  1.00  0.00     0.010 A 
BRANCH  17  20
HETATM   20  O   UNL     1     -39.217  49.316 -54.267  1.00  0.00    -0.361 OA
HETATM   21  H   UNL     1     -39.400  48.405 -53.984  1.00  0.00     0.217 HD
ENDBRANCH  17  20
ENDBRANCH  13  14
ENDBRANCH  11  13
ENDBRANCH   7  11
ENDBRANCH   2   5
BRANCH   1  22
HETATM   22  C   UNL     1     -43.053  56.401 -56.835  1.00  0.00     0.121 A 
HETATM   23  N   UNL     1     -43.967  56.282 -57.844  1.00  0.00    -0.272 N 
HETATM   24  N   UNL     1     -43.837  57.195 -58.815  1.00  0.00    -0.174 NA
HETATM   25  H   UNL     1     -44.705  55.588 -57.918  1.00  0.00     0.189 HD
HETATM   26  C   UNL     1     -42.816  57.973 -58.420  1.00  0.00     0.089 A 
HETATM   27  C   UNL     1     -42.281  57.490 -57.189  1.00  0.00     0.071 A 
BRANCH  26  28
HETATM   28  C   UNL     1     -42.387  59.138 -59.201  1.00  0.00    -0.006 A 
HETATM   29  C   UNL     1     -42.514  59.164 -60.596  1.00  0.00     0.014 A 
HETATM   30  C   UNL     1     -42.081  60.273 -61.335  1.00  0.00     0.007 A 
HETATM   31  C   UNL     1     -41.506  61.373 -60.692  1.00  0.00    -0.062 A 
HETATM   32  C   UNL     1     -41.048  62.570 -61.472  1.00  0.00     0.048 C 
HETATM   33  C   UNL     1     -41.389  61.358 -59.299  1.00  0.00     0.007 A 
HETATM   34  C   UNL     1     -41.819  60.250 -58.563  1.00  0.00     0.014 A 
ENDBRANCH  26  28
ENDBRANCH   1  22
TORSDOF 7
ENDMDL
MODEL 9
REMARK VINA RESULT:      -7.8      3.177      4.514
REMARK  7 active torsions:
REMARK  status: ('A' for Active; 'I' for Inactive)
REMARK    1  A    between atoms: C_5  and  C_6 
REMARK    2  A    between atoms: C_10  and  C_11 
REMARK       I    between atoms: C_11  and  N_12 
REMARK    3  A    between atoms: N_12  and  N_13 
REMARK       I    between atoms: N_13  and  C_14 
REMARK       I    between atoms: C_14  and  N_15 
REMARK    4  A    between atoms: N_15  and  C_16 
REMARK    5  A    between atoms: C_16  and  C_17 
REMARK    6  A    between atoms: C_17  and  C_18 
REMARK    7  A    between atoms: C_21  and  O_22 
ROOT
HETATM    1  C   UNL     1     -42.385  58.699 -51.501  1.00  0.00     0.288 C 
HETATM    2  N   UNL     1     -43.325  59.109 -50.581  1.00  0.00    -0.261 N 
HETATM    3  O   UNL     1     -41.829  59.485 -52.266  1.00  0.00    -0.264 OA
HETATM    4  H   UNL     1     -43.894  58.465 -50.037  1.00  0.00     0.190 HD
ENDROOT
BRANCH   2   5
HETATM    5  N   UNL     1     -43.749  60.445 -50.594  1.00  0.00    -0.249 N 
HETATM    6  C   UNL     1     -45.052  60.700 -50.231  1.00  0.00     0.335 C 
HETATM    7  N   UNL     1     -45.311  62.047 -50.166  1.00  0.00    -0.337 N 
HETATM    8  O   UNL     1     -45.871  59.813 -50.020  1.00  0.00    -0.246 OA
HETATM    9  H   UNL     1     -44.712  62.600 -50.765  1.00  0.00     0.164 HD
HETATM   10  H   UNL     1     -43.026  61.141 -50.444  1.00  0.00     0.192 HD
BRANCH   7  11
HETATM   11  C   UNL     1     -46.678  62.542 -49.992  1.00  0.00     0.086 C 
HETATM   12  C   UNL     1     -46.802  63.369 -48.709  1.00  0.00     0.032 C 
BRANCH  11  13
HETATM   13  C   UNL     1     -47.124  63.403 -51.199  1.00  0.00     0.063 C 
BRANCH  13  14
HETATM   14  C   UNL     1     -48.488  63.074 -51.772  1.00  0.00    -0.056 A 
HETATM   15  C   UNL     1     -48.645  62.241 -52.889  1.00  0.00     0.010 A 
HETATM   16  C   UNL     1     -49.916  61.973 -53.406  1.00  0.00     0.037 A 
HETATM   17  C   UNL     1     -51.036  62.520 -52.790  1.00  0.00     0.065 A 
HETATM   18  C   UNL     1     -50.906  63.323 -51.666  1.00  0.00     0.037 A 
HETATM   19  C   UNL     1     -49.637  63.596 -51.154  1.00  0.00     0.010 A 
BRANCH  17  20
HETATM   20  O   UNL     1     -52.293  62.289 -53.264  1.00  0.00    -0.361 OA
HETATM   21  H   UNL     1     -52.369  62.685 -54.148  1.00  0.00     0.217 HD
ENDBRANCH  17  20
ENDBRANCH  13  14
ENDBRANCH  11  13
ENDBRANCH   7  11
ENDBRANCH   2   5
BRANCH   1  22
HETATM   22  C   UNL     1     -42.098  57.291 -51.504  1.00  0.00     0.121 A 
HETATM   23  N   UNL     1     -42.546  56.465 -50.512  1.00  0.00    -0.272 N 
HETATM   24  N   UNL     1     -42.200  55.180 -50.668  1.00  0.00    -0.174 NA
HETATM   25  H   UNL     1     -43.094  56.731 -49.699  1.00  0.00     0.189 HD
HETATM   26  C   UNL     1     -41.523  55.146 -51.827  1.00  0.00     0.089 A 
HETATM   27  C   UNL     1     -41.418  56.459 -52.371  1.00  0.00     0.071 A 
BRANCH  26  28
HETATM   28  C   UNL     1     -41.010  53.889 -52.383  1.00  0.00    -0.006 A 
HETATM   29  C   UNL     1     -40.162  53.058 -51.639  1.00  0.00     0.014 A 
HETATM   30  C   UNL     1     -39.659  51.871 -52.188  1.00  0.00     0.007 A 
HETATM   31  C   UNL     1     -39.992  51.496 -53.493  1.00  0.00    -0.062 A 
HETATM   32  C   UNL     1     -39.468  50.222 -54.086  1.00  0.00     0.048 C 
HETATM   33  C   UNL     1     -40.849  52.314 -54.235  1.00  0.00     0.007 A 
HETATM   34  C   UNL     1     -41.348  53.500 -53.687  1.00  0.00     0.014 A 
ENDBRANCH  26  28
ENDBRANCH   1  22
TORSDOF 7
ENDMDL
MODEL 10
REMARK VINA RESULT:      -7.8     19.255     20.994
REMARK  7 active torsions:
REMARK  status: ('A' for Active; 'I' for Inactive)
REMARK    1  A    between atoms: C_5  and  C_6 
REMARK    2  A    between atoms: C_10  and  C_11 
REMARK       I    between atoms: C_11  and  N_12 
REMARK    3  A    between atoms: N_12  and  N_13 
REMARK       I    between atoms: N_13  and  C_14 
REMARK       I    between atoms: C_14  and  N_15 
REMARK    4  A    between atoms: N_15  and  C_16 
REMARK    5  A    between atoms: C_16  and  C_17 
REMARK    6  A    between atoms: C_17  and  C_18 
REMARK    7  A    between atoms: C_21  and  O_22 
ROOT
HETATM    1  C   UNL     1     -35.420  41.764 -56.600  1.00  0.00     0.288 C 
HETATM    2  N   UNL     1     -34.247  41.077 -56.375  1.00  0.00    -0.261 N 
HETATM    3  O   UNL     1     -35.807  42.663 -55.855  1.00  0.00    -0.264 OA
HETATM    4  H   UNL     1     -33.977  40.245 -56.895  1.00  0.00     0.190 HD
ENDROOT
BRANCH   2   5
HETATM    5  N   UNL     1     -33.530  41.326 -55.197  1.00  0.00    -0.249 N 
HETATM    6  C   UNL     1     -33.711  40.454 -54.148  1.00  0.00     0.335 C 
HETATM    7  N   UNL     1     -32.869  40.731 -53.099  1.00  0.00    -0.337 N 
HETATM    8  O   UNL     1     -34.548  39.558 -54.162  1.00  0.00    -0.246 OA
HETATM    9  H   UNL     1     -32.584  41.701 -53.060  1.00  0.00     0.164 HD
HETATM   10  H   UNL     1     -32.653  41.823 -55.308  1.00  0.00     0.192 HD
BRANCH   7  11
HETATM   11  C   UNL     1     -33.026  40.057 -51.810  1.00  0.00     0.086 C 
HETATM   12  C   UNL     1     -31.684  39.956 -51.077  1.00  0.00     0.032 C 
BRANCH  11  13
HETATM   13  C   UNL     1     -34.045  40.792 -50.908  1.00  0.00     0.063 C 
BRANCH  13  14
HETATM   14  C   UNL     1     -35.477  40.301 -50.997  1.00  0.00    -0.056 A 
HETATM   15  C   UNL     1     -36.433  40.938 -51.803  1.00  0.00     0.010 A 
HETATM   16  C   UNL     1     -37.750  40.472 -51.849  1.00  0.00     0.037 A 
HETATM   17  C   UNL     1     -38.109  39.353 -51.106  1.00  0.00     0.065 A 
HETATM   18  C   UNL     1     -37.172  38.690 -50.325  1.00  0.00     0.037 A 
HETATM   19  C   UNL     1     -35.858  39.160 -50.273  1.00  0.00     0.010 A 
BRANCH  17  20
HETATM   20  O   UNL     1     -39.382  38.869 -51.117  1.00  0.00    -0.361 OA
HETATM   21  H   UNL     1     -39.346  37.899 -51.141  1.00  0.00     0.217 HD
ENDBRANCH  17  20
ENDBRANCH  13  14
ENDBRANCH  11  13
ENDBRANCH   7  11
ENDBRANCH   2   5
BRANCH   1  22
HETATM   22  C   UNL     1     -36.156  41.362 -57.766  1.00  0.00     0.121 A 
HETATM   23  N   UNL     1     -36.546  42.263 -58.716  1.00  0.00    -0.272 N 
HETATM   24  N   UNL     1     -37.215  41.725 -59.744  1.00  0.00    -0.174 NA
HETATM   25  H   UNL     1     -36.379  43.265 -58.709  1.00  0.00     0.189 HD
HETATM   26  C   UNL     1     -37.243  40.407 -59.482  1.00  0.00     0.089 A 
HETATM   27  C   UNL     1     -36.607  40.143 -58.234  1.00  0.00     0.071 A 
BRANCH  26  28
HETATM   28  C   UNL     1     -37.854  39.450 -60.411  1.00  0.00    -0.006 A 
HETATM   29  C   UNL     1     -37.357  39.280 -61.710  1.00  0.00     0.014 A 
HETATM   30  C   UNL     1     -37.962  38.379 -62.596  1.00  0.00     0.007 A 
HETATM   31  C   UNL     1     -39.078  37.636 -62.201  1.00  0.00    -0.062 A 
HETATM   32  C   UNL     1     -39.726  36.661 -63.138  1.00  0.00     0.048 C 
HETATM   33  C   UNL     1     -39.570  37.791 -60.902  1.00  0.00     0.007 A 
HETATM   34  C   UNL     1     -38.967  38.693 -60.019  1.00  0.00     0.014 A 
ENDBRANCH  26  28
ENDBRANCH   1  22
TORSDOF 7
ENDMDL
