MODEL 1
REMARK VINA RESULT:      -8.8      0.000      0.000
REMARK  6 active torsions:
REMARK  status: ('A' for Active; 'I' for Inactive)
REMARK    1  A    between atoms: N_9  and  C_10 
REMARK    2  A    between atoms: C_10  and  C_11 
REMARK       I    between atoms: C_11  and  N_12 
REMARK    3  A    between atoms: N_12  and  C_13 
REMARK    4  A    between atoms: C_16  and  C_17 
REMARK       I    between atoms: C_17  and  N_18 
REMARK    5  A    between atoms: N_18  and  C_19 
REMARK    6  A    between atoms: C_20  and  O_21 
ROOT
HETATM    1  C   UNL     1     -35.181  40.967 -53.879  1.00  0.00     0.240 C 
HETATM    2  N   UNL     1     -34.443  41.568 -52.870  1.00  0.00    -0.326 N 
HETATM    3  O   UNL     1     -35.479  39.775 -53.927  1.00  0.00    -0.271 OA
HETATM    4  H   UNL     1     -34.482  42.583 -52.820  1.00  0.00     0.169 HD
ENDROOT
BRANCH   2   5
HETATM    5  C   UNL     1     -33.705  40.927 -51.855  1.00  0.00     0.034 A 
HETATM    6  C   UNL     1     -32.335  40.665 -51.934  1.00  0.00     0.030 A 
HETATM    7  C   UNL     1     -31.658  40.063 -50.866  1.00  0.00     0.019 A 
HETATM    8  C   UNL     1     -32.349  39.717 -49.701  1.00  0.00     0.032 A 
HETATM    9  C   UNL     1     -33.719  39.983 -49.612  1.00  0.00     0.019 A 
HETATM   10  C   UNL     1     -34.392  40.578 -50.686  1.00  0.00     0.030 A 
BRANCH   8  11
HETATM   11  C   UNL     1     -31.646  39.129 -48.524  1.00  0.00     0.256 C 
HETATM   12  N   UNL     1     -31.112  40.057 -47.645  1.00  0.00    -0.321 N 
HETATM   13  H   UNL     1     -30.876  40.959 -48.036  1.00  0.00     0.169 HD
HETATM   14  O   UNL     1     -31.513  37.911 -48.467  1.00  0.00    -0.267 OA
BRANCH  12  15
HETATM   15  C   UNL     1     -30.582  39.760 -46.368  1.00  0.00     0.068 A 
HETATM   16  C   UNL     1     -29.298  40.143 -45.942  1.00  0.00     0.095 A 
HETATM   17  C   UNL     1     -28.862  39.805 -44.652  1.00  0.00     0.039 A 
HETATM   18  C   UNL     1     -29.694  39.086 -43.792  1.00  0.00     0.003 A 
HETATM   19  C   UNL     1     -30.949  38.672 -44.225  1.00  0.00     0.002 A 
HETATM   20  C   UNL     1     -31.386  38.994 -45.512  1.00  0.00     0.032 A 
BRANCH  16  21
HETATM   21  O   UNL     1     -28.428  40.675 -46.861  1.00  0.00    -0.354 OA
HETATM   22  C   UNL     1     -27.382  39.793 -47.255  1.00  0.00     0.210 C 
ENDBRANCH  16  21
ENDBRANCH  12  15
ENDBRANCH   8  11
ENDBRANCH   2   5
BRANCH   1  23
HETATM   23  C   UNL     1     -35.784  41.946 -54.888  1.00  0.00     0.240 C 
BRANCH  23  24
HETATM   24  N   UNL     1     -36.648  41.309 -55.862  1.00  0.00    -0.259 N 
HETATM   25  C   UNL     1     -37.946  40.987 -55.650  1.00  0.00     0.326 A 
HETATM   26  N   UNL     1     -38.422  40.313 -56.743  1.00  0.00    -0.324 N 
HETATM   27  O   UNL     1     -38.617  41.307 -54.682  1.00  0.00    -0.247 OA
HETATM   28  C   UNL     1     -37.471  40.287 -57.841  1.00  0.00     0.116 A 
HETATM   29  H   UNL     1     -39.398  40.048 -56.807  1.00  0.00     0.165 HD
HETATM   30  C   UNL     1     -37.996  41.142 -58.999  1.00  0.00     0.041 C 
HETATM   31  C   UNL     1     -36.275  40.966 -57.132  1.00  0.00     0.256 A 
HETATM   32  C   UNL     1     -37.138  38.847 -58.237  1.00  0.00     0.041 C 
HETATM   33  C   UNL     1     -37.164  41.008 -60.275  1.00  0.00     0.007 C 
HETATM   34  C   UNL     1     -36.915  39.552 -60.687  1.00  0.00    -0.019 C 
HETATM   35  C   UNL     1     -38.181  38.888 -61.232  1.00  0.00     0.010 C 
HETATM   36  C   UNL     1     -36.313  38.756 -59.523  1.00  0.00     0.007 C 
HETATM   37  O   UNL     1     -35.178  41.173 -57.629  1.00  0.00    -0.270 OA
ENDBRANCH  23  24
ENDBRANCH   1  23
TORSDOF 6
ENDMDL
MODEL 2
REMARK VINA RESULT:      -8.7     19.767     22.672
REMARK  6 active torsions:
REMARK  status: ('A' for Active; 'I' for Inactive)
REMARK    1  A    between atoms: N_9  and  C_10 
REMARK    2  A    between atoms: C_10  and  C_11 
REMARK       I    between atoms: C_11  and  N_12 
REMARK    3  A    between atoms: N_12  and  C_13 
REMARK    4  A    between atoms: C_16  and  C_17 
REMARK       I    between atoms: C_17  and  N_18 
REMARK    5  A    between atoms: N_18  and  C_19 
REMARK    6  A    between atoms: C_20  and  O_21 
ROOT
HETATM    1  C   UNL     1     -45.069  60.927 -52.282  1.00  0.00     0.240 C 
HETATM    2  N   UNL     1     -44.119  60.252 -51.532  1.00  0.00    -0.326 N 
HETATM    3  O   UNL     1     -45.928  60.396 -52.983  1.00  0.00    -0.271 OA
HETATM    4  H   UNL     1     -43.640  60.789 -50.812  1.00  0.00     0.169 HD
ENDROOT
BRANCH   2   5
HETATM    5  C   UNL     1     -43.793  58.882 -51.599  1.00  0.00     0.034 A 
HETATM    6  C   UNL     1     -44.535  57.873 -50.980  1.00  0.00     0.030 A 
HETATM    7  C   UNL     1     -44.176  56.527 -51.127  1.00  0.00     0.019 A 
HETATM    8  C   UNL     1     -43.065  56.176 -51.901  1.00  0.00     0.032 A 
HETATM    9  C   UNL     1     -42.322  57.181 -52.529  1.00  0.00     0.019 A 
HETATM   10  C   UNL     1     -42.681  58.525 -52.373  1.00  0.00     0.030 A 
BRANCH   8  11
HETATM   11  C   UNL     1     -42.692  54.749 -52.125  1.00  0.00     0.256 C 
HETATM   12  N   UNL     1     -41.465  54.560 -52.739  1.00  0.00    -0.321 N 
HETATM   13  H   UNL     1     -41.138  55.316 -53.326  1.00  0.00     0.169 HD
HETATM   14  O   UNL     1     -43.508  53.878 -51.844  1.00  0.00    -0.267 OA
BRANCH  12  15
HETATM   15  C   UNL     1     -40.804  53.318 -52.876  1.00  0.00     0.068 A 
HETATM   16  C   UNL     1     -39.993  52.746 -51.880  1.00  0.00     0.095 A 
HETATM   17  C   UNL     1     -39.382  51.505 -52.108  1.00  0.00     0.039 A 
HETATM   18  C   UNL     1     -39.568  50.838 -53.319  1.00  0.00     0.003 A 
HETATM   19  C   UNL     1     -40.337  51.420 -54.322  1.00  0.00     0.002 A 
HETATM   20  C   UNL     1     -40.940  52.662 -54.108  1.00  0.00     0.032 A 
BRANCH  16  21
HETATM   21  O   UNL     1     -39.667  53.500 -50.780  1.00  0.00    -0.354 OA
HETATM   22  C   UNL     1     -40.382  53.152 -49.599  1.00  0.00     0.210 C 
ENDBRANCH  16  21
ENDBRANCH  12  15
ENDBRANCH   8  11
ENDBRANCH   2   5
BRANCH   1  23
HETATM   23  C   UNL     1     -45.108  62.437 -52.039  1.00  0.00     0.240 C 
BRANCH  23  24
HETATM   24  N   UNL     1     -45.783  62.806 -50.810  1.00  0.00    -0.259 N 
HETATM   25  C   UNL     1     -47.103  63.087 -50.708  1.00  0.00     0.326 A 
HETATM   26  N   UNL     1     -47.374  63.490 -49.428  1.00  0.00    -0.324 N 
HETATM   27  O   UNL     1     -47.940  62.937 -51.584  1.00  0.00    -0.247 OA
HETATM   28  C   UNL     1     -46.232  63.344 -48.542  1.00  0.00     0.116 A 
HETATM   29  H   UNL     1     -48.325  63.678 -49.132  1.00  0.00     0.165 HD
HETATM   30  C   UNL     1     -46.510  62.237 -47.519  1.00  0.00     0.041 C 
HETATM   31  C   UNL     1     -45.181  62.898 -49.587  1.00  0.00     0.256 A 
HETATM   32  C   UNL     1     -45.856  64.687 -47.912  1.00  0.00     0.041 C 
HETATM   33  C   UNL     1     -45.453  62.152 -46.419  1.00  0.00     0.007 C 
HETATM   34  C   UNL     1     -45.157  63.502 -45.755  1.00  0.00    -0.019 C 
HETATM   35  C   UNL     1     -46.308  63.963 -44.858  1.00  0.00     0.010 C 
HETATM   36  C   UNL     1     -44.803  64.557 -46.810  1.00  0.00     0.007 C 
HETATM   37  O   UNL     1     -44.005  62.657 -49.354  1.00  0.00    -0.270 OA
ENDBRANCH  23  24
ENDBRANCH   1  23
TORSDOF 6
ENDMDL
MODEL 3
REMARK VINA RESULT:      -8.5      1.091      1.699
REMARK  6 active torsions:
REMARK  status: ('A' for Active; 'I' for Inactive)
REMARK    1  A    between atoms: N_9  and  C_10 
REMARK    2  A    between atoms: C_10  and  C_11 
REMARK       I    between atoms: C_11  and  N_12 
REMARK    3  A    between atoms: N_12  and  C_13 
REMARK    4  A    between atoms: C_16  and  C_17 
REMARK       I    between atoms: C_17  and  N_18 
REMARK    5  A    between atoms: N_18  and  C_19 
REMARK    6  A    between atoms: C_20  and  O_21 
ROOT
HETATM    1  C   UNL     1     -36.152  40.770 -53.417  1.00  0.00     0.240 C 
HETATM    2  N   UNL     1     -35.195  41.395 -52.631  1.00  0.00    -0.326 N 
HETATM    3  O   UNL     1     -36.521  39.604 -53.294  1.00  0.00    -0.271 OA
HETATM    4  H   UNL     1     -35.166  42.411 -52.669  1.00  0.00     0.169 HD
ENDROOT
BRANCH   2   5
HETATM    5  C   UNL     1     -34.308  40.786 -51.721  1.00  0.00     0.034 A 
HETATM    6  C   UNL     1     -32.920  40.769 -51.879  1.00  0.00     0.030 A 
HETATM    7  C   UNL     1     -32.096  40.182 -50.911  1.00  0.00     0.019 A 
HETATM    8  C   UNL     1     -32.655  39.604 -49.767  1.00  0.00     0.032 A 
HETATM    9  C   UNL     1     -34.043  39.623 -49.599  1.00  0.00     0.019 A 
HETATM   10  C   UNL     1     -34.864  40.205 -50.574  1.00  0.00     0.030 A 
BRANCH   8  11
HETATM   11  C   UNL     1     -31.802  39.024 -48.690  1.00  0.00     0.256 C 
HETATM   12  N   UNL     1     -31.101  39.955 -47.941  1.00  0.00    -0.321 N 
HETATM   13  H   UNL     1     -30.892  40.832 -48.400  1.00  0.00     0.169 HD
HETATM   14  O   UNL     1     -31.712  37.804 -48.605  1.00  0.00    -0.267 OA
BRANCH  12  15
HETATM   15  C   UNL     1     -30.391  39.677 -46.751  1.00  0.00     0.068 A 
HETATM   16  C   UNL     1     -28.988  39.651 -46.660  1.00  0.00     0.095 A 
HETATM   17  C   UNL     1     -28.375  39.369 -45.431  1.00  0.00     0.039 A 
HETATM   18  C   UNL     1     -29.149  39.108 -44.299  1.00  0.00     0.003 A 
HETATM   19  C   UNL     1     -30.537  39.093 -44.394  1.00  0.00     0.002 A 
HETATM   20  C   UNL     1     -31.155  39.361 -45.618  1.00  0.00     0.032 A 
BRANCH  16  21
HETATM   21  O   UNL     1     -28.251  39.718 -47.816  1.00  0.00    -0.354 OA
HETATM   22  C   UNL     1     -26.876  40.029 -47.614  1.00  0.00     0.210 C 
ENDBRANCH  16  21
ENDBRANCH  12  15
ENDBRANCH   8  11
ENDBRANCH   2   5
BRANCH   1  23
HETATM   23  C   UNL     1     -36.887  41.706 -54.378  1.00  0.00     0.240 C 
BRANCH  23  24
HETATM   24  N   UNL     1     -36.521  41.509 -55.767  1.00  0.00    -0.259 N 
HETATM   25  C   UNL     1     -35.538  42.182 -56.409  1.00  0.00     0.326 A 
HETATM   26  N   UNL     1     -35.535  41.815 -57.728  1.00  0.00    -0.324 N 
HETATM   27  O   UNL     1     -34.729  42.937 -55.894  1.00  0.00    -0.247 OA
HETATM   28  C   UNL     1     -36.453  40.723 -58.006  1.00  0.00     0.116 A 
HETATM   29  H   UNL     1     -34.823  42.157 -58.362  1.00  0.00     0.165 HD
HETATM   30  C   UNL     1     -35.661  39.462 -58.365  1.00  0.00     0.041 C 
HETATM   31  C   UNL     1     -37.106  40.604 -56.608  1.00  0.00     0.256 A 
HETATM   32  C   UNL     1     -37.478  41.132 -59.066  1.00  0.00     0.041 C 
HETATM   33  C   UNL     1     -36.541  38.320 -58.874  1.00  0.00     0.007 C 
HETATM   34  C   UNL     1     -37.503  38.746 -59.989  1.00  0.00    -0.019 C 
HETATM   35  C   UNL     1     -36.770  39.004 -61.308  1.00  0.00     0.010 C 
HETATM   36  C   UNL     1     -38.333  39.960 -59.554  1.00  0.00     0.007 C 
HETATM   37  O   UNL     1     -37.992  39.819 -56.301  1.00  0.00    -0.270 OA
ENDBRANCH  23  24
ENDBRANCH   1  23
TORSDOF 6
ENDMDL
MODEL 4
REMARK VINA RESULT:      -8.4     19.205     22.099
REMARK  6 active torsions:
REMARK  status: ('A' for Active; 'I' for Inactive)
REMARK    1  A    between atoms: N_9  and  C_10 
REMARK    2  A    between atoms: C_10  and  C_11 
REMARK       I    between atoms: C_11  and  N_12 
REMARK    3  A    between atoms: N_12  and  C_13 
REMARK    4  A    between atoms: C_16  and  C_17 
REMARK       I    between atoms: C_17  and  N_18 
REMARK    5  A    between atoms: N_18  and  C_19 
REMARK    6  A    between atoms: C_20  and  O_21 
ROOT
HETATM    1  C   UNL     1     -43.316  61.115 -53.495  1.00  0.00     0.240 C 
HETATM    2  N   UNL     1     -42.629  60.270 -52.636  1.00  0.00    -0.326 N 
HETATM    3  O   UNL     1     -44.073  60.751 -54.394  1.00  0.00    -0.271 OA
HETATM    4  H   UNL     1     -42.244  60.691 -51.794  1.00  0.00     0.169 HD
ENDROOT
BRANCH   2   5
HETATM    5  C   UNL     1     -42.469  58.875 -52.757  1.00  0.00     0.034 A 
HETATM    6  C   UNL     1     -41.434  58.268 -53.472  1.00  0.00     0.030 A 
HETATM    7  C   UNL     1     -41.313  56.874 -53.513  1.00  0.00     0.019 A 
HETATM    8  C   UNL     1     -42.231  56.068 -52.832  1.00  0.00     0.032 A 
HETATM    9  C   UNL     1     -43.265  56.669 -52.109  1.00  0.00     0.019 A 
HETATM   10  C   UNL     1     -43.387  58.063 -52.078  1.00  0.00     0.030 A 
BRANCH   8  11
HETATM   11  C   UNL     1     -42.094  54.582 -52.807  1.00  0.00     0.256 C 
HETATM   12  N   UNL     1     -40.889  54.102 -53.292  1.00  0.00    -0.321 N 
HETATM   13  H   UNL     1     -40.411  54.690 -53.962  1.00  0.00     0.169 HD
HETATM   14  O   UNL     1     -43.059  53.910 -52.458  1.00  0.00    -0.267 OA
BRANCH  12  15
HETATM   15  C   UNL     1     -40.442  52.765 -53.187  1.00  0.00     0.068 A 
HETATM   16  C   UNL     1     -39.860  52.220 -52.029  1.00  0.00     0.095 A 
HETATM   17  C   UNL     1     -39.451  50.879 -52.022  1.00  0.00     0.039 A 
HETATM   18  C   UNL     1     -39.613  50.084 -53.157  1.00  0.00     0.003 A 
HETATM   19  C   UNL     1     -40.152  50.631 -54.317  1.00  0.00     0.002 A 
HETATM   20  C   UNL     1     -40.551  51.970 -54.337  1.00  0.00     0.032 A 
BRANCH  16  21
HETATM   21  O   UNL     1     -39.532  53.062 -50.996  1.00  0.00    -0.354 OA
HETATM   22  C   UNL     1     -40.410  52.982 -49.877  1.00  0.00     0.210 C 
ENDBRANCH  16  21
ENDBRANCH  12  15
ENDBRANCH   8  11
ENDBRANCH   2   5
BRANCH   1  23
HETATM   23  C   UNL     1     -43.216  62.598 -53.136  1.00  0.00     0.240 C 
BRANCH  23  24
HETATM   24  N   UNL     1     -44.186  63.017 -52.143  1.00  0.00    -0.259 N 
HETATM   25  C   UNL     1     -45.414  63.512 -52.424  1.00  0.00     0.326 A 
HETATM   26  N   UNL     1     -46.018  63.893 -51.256  1.00  0.00    -0.324 N 
HETATM   27  O   UNL     1     -45.940  63.547 -53.524  1.00  0.00    -0.247 OA
HETATM   28  C   UNL     1     -45.252  63.514 -50.081  1.00  0.00     0.116 A 
HETATM   29  H   UNL     1     -46.975  64.225 -51.249  1.00  0.00     0.165 HD
HETATM   30  C   UNL     1     -45.999  62.423 -49.307  1.00  0.00     0.041 C 
HETATM   31  C   UNL     1     -43.999  62.948 -50.791  1.00  0.00     0.256 A 
HETATM   32  C   UNL     1     -44.906  64.743 -49.238  1.00  0.00     0.041 C 
HETATM   33  C   UNL     1     -45.372  62.108 -47.949  1.00  0.00     0.007 C 
HETATM   34  C   UNL     1     -45.110  63.356 -47.097  1.00  0.00    -0.019 C 
HETATM   35  C   UNL     1     -46.408  63.962 -46.557  1.00  0.00     0.010 C 
HETATM   36  C   UNL     1     -44.289  64.385 -47.884  1.00  0.00     0.007 C 
HETATM   37  O   UNL     1     -43.006  62.501 -50.233  1.00  0.00    -0.270 OA
ENDBRANCH  23  24
ENDBRANCH   1  23
TORSDOF 6
ENDMDL
MODEL 5
REMARK VINA RESULT:      -8.2     20.976     23.380
REMARK  6 active torsions:
REMARK  status: ('A' for Active; 'I' for Inactive)
REMARK    1  A    between atoms: N_9  and  C_10 
REMARK    2  A    between atoms: C_10  and  C_11 
REMARK       I    between atoms: C_11  and  N_12 
REMARK    3  A    between atoms: N_12  and  C_13 
REMARK    4  A    between atoms: C_16  and  C_17 
REMARK       I    between atoms: C_17  and  N_18 
REMARK    5  A    between atoms: N_18  and  C_19 
REMARK    6  A    between atoms: C_20  and  O_21 
ROOT
HETATM    1  C   UNL     1     -46.072  62.183 -51.431  1.00  0.00     0.240 C 
HETATM    2  N   UNL     1     -45.041  61.637 -52.181  1.00  0.00    -0.326 N 
HETATM    3  O   UNL     1     -46.361  61.860 -50.280  1.00  0.00    -0.271 OA
HETATM    4  H   UNL     1     -44.752  62.157 -53.006  1.00  0.00     0.169 HD
ENDROOT
BRANCH   2   5
HETATM    5  C   UNL     1     -44.293  60.479 -51.888  1.00  0.00     0.034 A 
HETATM    6  C   UNL     1     -44.756  59.178 -52.098  1.00  0.00     0.030 A 
HETATM    7  C   UNL     1     -43.939  58.074 -51.824  1.00  0.00     0.019 A 
HETATM    8  C   UNL     1     -42.642  58.262 -51.337  1.00  0.00     0.032 A 
HETATM    9  C   UNL     1     -42.169  59.562 -51.132  1.00  0.00     0.019 A 
HETATM   10  C   UNL     1     -42.993  60.663 -51.400  1.00  0.00     0.030 A 
BRANCH   8  11
HETATM   11  C   UNL     1     -41.726  57.110 -51.092  1.00  0.00     0.256 C 
HETATM   12  N   UNL     1     -42.260  55.870 -51.401  1.00  0.00    -0.321 N 
HETATM   13  H   UNL     1     -43.268  55.794 -51.359  1.00  0.00     0.169 HD
HETATM   14  O   UNL     1     -40.639  57.325 -50.567  1.00  0.00    -0.267 OA
BRANCH  12  15
HETATM   15  C   UNL     1     -41.534  54.658 -51.449  1.00  0.00     0.068 A 
HETATM   16  C   UNL     1     -41.310  53.832 -50.333  1.00  0.00     0.095 A 
HETATM   17  C   UNL     1     -40.579  52.644 -50.482  1.00  0.00     0.039 A 
HETATM   18  C   UNL     1     -40.069  52.281 -51.729  1.00  0.00     0.003 A 
HETATM   19  C   UNL     1     -40.254  53.115 -52.826  1.00  0.00     0.002 A 
HETATM   20  C   UNL     1     -40.971  54.306 -52.684  1.00  0.00     0.032 A 
BRANCH  16  21
HETATM   21  O   UNL     1     -41.650  54.298 -49.088  1.00  0.00    -0.354 OA
HETATM   22  C   UNL     1     -40.584  54.274 -48.144  1.00  0.00     0.210 C 
ENDBRANCH  16  21
ENDBRANCH  12  15
ENDBRANCH   8  11
ENDBRANCH   2   5
BRANCH   1  23
HETATM   23  C   UNL     1     -46.751  63.392 -52.077  1.00  0.00     0.240 C 
BRANCH  23  24
HETATM   24  N   UNL     1     -47.891  63.041 -52.900  1.00  0.00    -0.259 N 
HETATM   25  C   UNL     1     -47.820  62.356 -54.066  1.00  0.00     0.326 A 
HETATM   26  N   UNL     1     -49.071  62.290 -54.620  1.00  0.00    -0.324 N 
HETATM   27  O   UNL     1     -46.826  61.815 -54.523  1.00  0.00    -0.247 OA
HETATM   28  C   UNL     1     -50.100  62.815 -53.740  1.00  0.00     0.116 A 
HETATM   29  H   UNL     1     -49.238  61.755 -55.464  1.00  0.00     0.165 HD
HETATM   30  C   UNL     1     -51.002  61.673 -53.262  1.00  0.00     0.041 C 
HETATM   31  C   UNL     1     -49.191  63.334 -52.600  1.00  0.00     0.256 A 
HETATM   32  C   UNL     1     -50.858  63.961 -54.413  1.00  0.00     0.041 C 
HETATM   33  C   UNL     1     -52.236  62.156 -52.499  1.00  0.00     0.007 C 
HETATM   34  C   UNL     1     -53.017  63.249 -53.237  1.00  0.00    -0.019 C 
HETATM   35  C   UNL     1     -53.766  62.696 -54.452  1.00  0.00     0.010 C 
HETATM   36  C   UNL     1     -52.090  64.409 -53.622  1.00  0.00     0.007 C 
HETATM   37  O   UNL     1     -49.575  63.905 -51.588  1.00  0.00    -0.270 OA
ENDBRANCH  23  24
ENDBRANCH   1  23
TORSDOF 6
ENDMDL
MODEL 6
REMARK VINA RESULT:      -8.2     18.192     21.190
REMARK  6 active torsions:
REMARK  status: ('A' for Active; 'I' for Inactive)
REMARK    1  A    between atoms: N_9  and  C_10 
REMARK    2  A    between atoms: C_10  and  C_11 
REMARK       I    between atoms: C_11  and  N_12 
REMARK    3  A    between atoms: N_12  and  C_13 
REMARK    4  A    between atoms: C_16  and  C_17 
REMARK       I    between atoms: C_17  and  N_18 
REMARK    5  A    between atoms: N_18  and  C_19 
REMARK    6  A    between atoms: C_20  and  O_21 
ROOT
HETATM    1  C   UNL     1     -44.670  58.812 -59.987  1.00  0.00     0.240 C 
HETATM    2  N   UNL     1     -43.522  58.517 -59.270  1.00  0.00    -0.326 N 
HETATM    3  O   UNL     1     -45.793  58.376 -59.741  1.00  0.00    -0.271 OA
HETATM    4  H   UNL     1     -42.722  59.128 -59.418  1.00  0.00     0.169 HD
ENDROOT
BRANCH   2   5
HETATM    5  C   UNL     1     -43.357  57.510 -58.297  1.00  0.00     0.034 A 
HETATM    6  C   UNL     1     -43.165  56.159 -58.598  1.00  0.00     0.030 A 
HETATM    7  C   UNL     1     -42.965  55.220 -57.579  1.00  0.00     0.019 A 
HETATM    8  C   UNL     1     -42.953  55.625 -56.241  1.00  0.00     0.032 A 
HETATM    9  C   UNL     1     -43.137  56.977 -55.933  1.00  0.00     0.019 A 
HETATM   10  C   UNL     1     -43.345  57.911 -56.955  1.00  0.00     0.030 A 
BRANCH   8  11
HETATM   11  C   UNL     1     -42.683  54.659 -55.137  1.00  0.00     0.256 C 
HETATM   12  N   UNL     1     -41.378  54.197 -55.077  1.00  0.00    -0.321 N 
HETATM   13  H   UNL     1     -40.863  54.201 -55.946  1.00  0.00     0.169 HD
HETATM   14  O   UNL     1     -43.621  54.285 -54.442  1.00  0.00    -0.267 OA
BRANCH  12  15
HETATM   15  C   UNL     1     -40.829  53.442 -54.015  1.00  0.00     0.068 A 
HETATM   16  C   UNL     1     -40.718  53.910 -52.694  1.00  0.00     0.095 A 
HETATM   17  C   UNL     1     -40.161  53.083 -51.707  1.00  0.00     0.039 A 
HETATM   18  C   UNL     1     -39.711  51.802 -52.031  1.00  0.00     0.003 A 
HETATM   19  C   UNL     1     -39.783  51.351 -53.345  1.00  0.00     0.002 A 
HETATM   20  C   UNL     1     -40.326  52.173 -54.336  1.00  0.00     0.032 A 
BRANCH  16  21
HETATM   21  O   UNL     1     -40.983  55.232 -52.437  1.00  0.00    -0.354 OA
HETATM   22  C   UNL     1     -41.831  55.449 -51.313  1.00  0.00     0.210 C 
ENDBRANCH  16  21
ENDBRANCH  12  15
ENDBRANCH   8  11
ENDBRANCH   2   5
BRANCH   1  23
HETATM   23  C   UNL     1     -44.491  59.902 -61.046  1.00  0.00     0.240 C 
BRANCH  23  24
HETATM   24  N   UNL     1     -43.820  61.086 -60.546  1.00  0.00    -0.259 N 
HETATM   25  C   UNL     1     -44.442  62.141 -59.970  1.00  0.00     0.326 A 
HETATM   26  N   UNL     1     -43.516  63.116 -59.709  1.00  0.00    -0.324 N 
HETATM   27  O   UNL     1     -45.620  62.198 -59.657  1.00  0.00    -0.247 OA
HETATM   28  C   UNL     1     -42.156  62.678 -59.970  1.00  0.00     0.116 A 
HETATM   29  H   UNL     1     -43.775  63.960 -59.213  1.00  0.00     0.165 HD
HETATM   30  C   UNL     1     -41.389  62.561 -58.649  1.00  0.00     0.041 C 
HETATM   31  C   UNL     1     -42.468  61.285 -60.569  1.00  0.00     0.256 A 
HETATM   32  C   UNL     1     -41.479  63.587 -60.998  1.00  0.00     0.041 C 
HETATM   33  C   UNL     1     -39.894  62.306 -58.838  1.00  0.00     0.007 C 
HETATM   34  C   UNL     1     -39.230  63.284 -59.815  1.00  0.00    -0.019 C 
HETATM   35  C   UNL     1     -39.097  64.687 -59.217  1.00  0.00     0.010 C 
HETATM   36  C   UNL     1     -39.982  63.306 -61.151  1.00  0.00     0.007 C 
HETATM   37  O   UNL     1     -41.640  60.488 -60.986  1.00  0.00    -0.270 OA
ENDBRANCH  23  24
ENDBRANCH   1  23
TORSDOF 6
ENDMDL
MODEL 7
REMARK VINA RESULT:      -8.0     20.343     23.053
REMARK  6 active torsions:
REMARK  status: ('A' for Active; 'I' for Inactive)
REMARK    1  A    between atoms: N_9  and  C_10 
REMARK    2  A    between atoms: C_10  and  C_11 
REMARK       I    between atoms: C_11  and  N_12 
REMARK    3  A    between atoms: N_12  and  C_13 
REMARK    4  A    between atoms: C_16  and  C_17 
REMARK       I    between atoms: C_17  and  N_18 
REMARK    5  A    between atoms: N_18  and  C_19 
REMARK    6  A    between atoms: C_20  and  O_21 
ROOT
HETATM    1  C   UNL     1     -46.301  61.096 -52.792  1.00  0.00     0.240 C 
HETATM    2  N   UNL     1     -45.252  60.691 -53.603  1.00  0.00    -0.326 N 
HETATM    3  O   UNL     1     -46.729  60.473 -51.822  1.00  0.00    -0.271 OA
HETATM    4  H   UNL     1     -44.839  61.402 -54.203  1.00  0.00     0.169 HD
ENDROOT
BRANCH   2   5
HETATM    5  C   UNL     1     -44.638  59.423 -53.636  1.00  0.00     0.034 A 
HETATM    6  C   UNL     1     -43.616  59.029 -52.769  1.00  0.00     0.030 A 
HETATM    7  C   UNL     1     -43.082  57.736 -52.832  1.00  0.00     0.019 A 
HETATM    8  C   UNL     1     -43.570  56.818 -53.767  1.00  0.00     0.032 A 
HETATM    9  C   UNL     1     -44.597  57.204 -54.634  1.00  0.00     0.019 A 
HETATM   10  C   UNL     1     -45.122  58.501 -54.572  1.00  0.00     0.030 A 
BRANCH   8  11
HETATM   11  C   UNL     1     -43.064  55.416 -53.820  1.00  0.00     0.256 C 
HETATM   12  N   UNL     1     -41.714  55.276 -53.541  1.00  0.00    -0.321 N 
HETATM   13  H   UNL     1     -41.133  56.081 -53.731  1.00  0.00     0.169 HD
HETATM   14  O   UNL     1     -43.828  54.529 -54.184  1.00  0.00    -0.267 OA
BRANCH  12  15
HETATM   15  C   UNL     1     -41.048  54.047 -53.331  1.00  0.00     0.068 A 
HETATM   16  C   UNL     1     -40.585  53.609 -52.077  1.00  0.00     0.095 A 
HETATM   17  C   UNL     1     -39.938  52.369 -51.969  1.00  0.00     0.039 A 
HETATM   18  C   UNL     1     -39.746  51.571 -53.097  1.00  0.00     0.003 A 
HETATM   19  C   UNL     1     -40.168  52.019 -54.345  1.00  0.00     0.002 A 
HETATM   20  C   UNL     1     -40.802  53.258 -54.464  1.00  0.00     0.032 A 
BRANCH  16  21
HETATM   21  O   UNL     1     -40.608  54.486 -51.022  1.00  0.00    -0.354 OA
HETATM   22  C   UNL     1     -40.219  53.912 -49.777  1.00  0.00     0.210 C 
ENDBRANCH  16  21
ENDBRANCH  12  15
ENDBRANCH   8  11
ENDBRANCH   2   5
BRANCH   1  23
HETATM   23  C   UNL     1     -46.807  62.512 -53.073  1.00  0.00     0.240 C 
BRANCH  23  24
HETATM   24  N   UNL     1     -48.020  62.543 -53.865  1.00  0.00    -0.259 N 
HETATM   25  C   UNL     1     -48.071  62.371 -55.207  1.00  0.00     0.326 A 
HETATM   26  N   UNL     1     -49.358  62.562 -55.632  1.00  0.00    -0.324 N 
HETATM   27  O   UNL     1     -47.144  62.026 -55.923  1.00  0.00    -0.247 OA
HETATM   28  C   UNL     1     -50.292  62.726 -54.531  1.00  0.00     0.116 A 
HETATM   29  H   UNL     1     -49.615  62.407 -56.600  1.00  0.00     0.165 HD
HETATM   30  C   UNL     1     -51.224  61.512 -54.460  1.00  0.00     0.041 C 
HETATM   31  C   UNL     1     -49.277  62.730 -53.362  1.00  0.00     0.256 A 
HETATM   32  C   UNL     1     -51.026  64.064 -54.635  1.00  0.00     0.041 C 
HETATM   33  C   UNL     1     -52.371  61.689 -53.465  1.00  0.00     0.007 C 
HETATM   34  C   UNL     1     -53.136  63.005 -53.647  1.00  0.00    -0.019 C 
HETATM   35  C   UNL     1     -53.999  62.995 -54.911  1.00  0.00     0.010 C 
HETATM   36  C   UNL     1     -52.172  64.198 -53.629  1.00  0.00     0.007 C 
HETATM   37  O   UNL     1     -49.555  62.867 -52.179  1.00  0.00    -0.270 OA
ENDBRANCH  23  24
ENDBRANCH   1  23
TORSDOF 6
ENDMDL
MODEL 8
REMARK VINA RESULT:      -7.8     19.559     21.940
REMARK  6 active torsions:
REMARK  status: ('A' for Active; 'I' for Inactive)
REMARK    1  A    between atoms: N_9  and  C_10 
REMARK    2  A    between atoms: C_10  and  C_11 
REMARK       I    between atoms: C_11  and  N_12 
REMARK    3  A    between atoms: N_12  and  C_13 
REMARK    4  A    between atoms: C_16  and  C_17 
REMARK       I    between atoms: C_17  and  N_18 
REMARK    5  A    between atoms: N_18  and  C_19 
REMARK    6  A    between atoms: C_20  and  O_21 
ROOT
HETATM    1  C   UNL     1     -41.671  56.415 -53.437  1.00  0.00     0.240 C 
HETATM    2  N   UNL     1     -42.566  57.462 -53.593  1.00  0.00    -0.326 N 
HETATM    3  O   UNL     1     -41.377  55.886 -52.366  1.00  0.00    -0.271 OA
HETATM    4  H   UNL     1     -42.905  57.635 -54.537  1.00  0.00     0.169 HD
ENDROOT
BRANCH   2   5
HETATM    5  C   UNL     1     -43.122  58.269 -52.580  1.00  0.00     0.034 A 
HETATM    6  C   UNL     1     -42.462  59.353 -51.997  1.00  0.00     0.030 A 
HETATM    7  C   UNL     1     -43.095  60.138 -51.024  1.00  0.00     0.019 A 
HETATM    8  C   UNL     1     -44.403  59.845 -50.625  1.00  0.00     0.032 A 
HETATM    9  C   UNL     1     -45.071  58.765 -51.210  1.00  0.00     0.019 A 
HETATM   10  C   UNL     1     -44.432  57.979 -52.176  1.00  0.00     0.030 A 
BRANCH   8  11
HETATM   11  C   UNL     1     -45.125  60.697 -49.636  1.00  0.00     0.256 C 
HETATM   12  N   UNL     1     -44.372  61.070 -48.535  1.00  0.00    -0.321 N 
HETATM   13  H   UNL     1     -43.613  60.453 -48.282  1.00  0.00     0.169 HD
HETATM   14  O   UNL     1     -46.317  60.922 -49.814  1.00  0.00    -0.267 OA
BRANCH  12  15
HETATM   15  C   UNL     1     -44.759  62.029 -47.571  1.00  0.00     0.068 A 
HETATM   16  C   UNL     1     -45.162  61.709 -46.262  1.00  0.00     0.095 A 
HETATM   17  C   UNL     1     -45.523  62.733 -45.375  1.00  0.00     0.039 A 
HETATM   18  C   UNL     1     -45.490  64.067 -45.784  1.00  0.00     0.003 A 
HETATM   19  C   UNL     1     -45.130  64.384 -47.090  1.00  0.00     0.002 A 
HETATM   20  C   UNL     1     -44.781  63.369 -47.984  1.00  0.00     0.032 A 
BRANCH  16  21
HETATM   21  O   UNL     1     -45.373  60.392 -45.940  1.00  0.00    -0.354 OA
HETATM   22  C   UNL     1     -46.739  59.991 -45.984  1.00  0.00     0.210 C 
ENDBRANCH  16  21
ENDBRANCH  12  15
ENDBRANCH   8  11
ENDBRANCH   2   5
BRANCH   1  23
HETATM   23  C   UNL     1     -41.178  55.804 -54.750  1.00  0.00     0.240 C 
BRANCH  23  24
HETATM   24  N   UNL     1     -42.123  55.942 -55.840  1.00  0.00    -0.259 N 
HETATM   25  C   UNL     1     -42.989  54.981 -56.238  1.00  0.00     0.326 A 
HETATM   26  N   UNL     1     -43.657  55.416 -57.352  1.00  0.00    -0.324 N 
HETATM   27  O   UNL     1     -43.205  53.926 -55.664  1.00  0.00    -0.247 OA
HETATM   28  C   UNL     1     -43.366  56.804 -57.670  1.00  0.00     0.116 A 
HETATM   29  H   UNL     1     -44.402  54.865 -57.761  1.00  0.00     0.165 HD
HETATM   30  C   UNL     1     -44.614  57.660 -57.431  1.00  0.00     0.041 C 
HETATM   31  C   UNL     1     -42.282  57.069 -56.598  1.00  0.00     0.256 A 
HETATM   32  C   UNL     1     -42.793  56.928 -59.084  1.00  0.00     0.041 C 
HETATM   33  C   UNL     1     -44.467  59.096 -57.935  1.00  0.00     0.007 C 
HETATM   34  C   UNL     1     -43.965  59.184 -59.381  1.00  0.00    -0.019 C 
HETATM   35  C   UNL     1     -45.036  58.753 -60.385  1.00  0.00     0.010 C 
HETATM   36  C   UNL     1     -42.670  58.380 -59.553  1.00  0.00     0.007 C 
HETATM   37  O   UNL     1     -41.674  58.119 -56.446  1.00  0.00    -0.270 OA
ENDBRANCH  23  24
ENDBRANCH   1  23
TORSDOF 6
ENDMDL
MODEL 9
REMARK VINA RESULT:      -7.7     17.986     23.239
REMARK  6 active torsions:
REMARK  status: ('A' for Active; 'I' for Inactive)
REMARK    1  A    between atoms: N_9  and  C_10 
REMARK    2  A    between atoms: C_10  and  C_11 
REMARK       I    between atoms: C_11  and  N_12 
REMARK    3  A    between atoms: N_12  and  C_13 
REMARK    4  A    between atoms: C_16  and  C_17 
REMARK       I    between atoms: C_17  and  N_18 
REMARK    5  A    between atoms: N_18  and  C_19 
REMARK    6  A    between atoms: C_20  and  O_21 
ROOT
HETATM    1  C   UNL     1     -43.126  59.174 -53.211  1.00  0.00     0.240 C 
HETATM    2  N   UNL     1     -44.181  58.429 -53.716  1.00  0.00    -0.326 N 
HETATM    3  O   UNL     1     -42.521  60.053 -53.823  1.00  0.00    -0.271 OA
HETATM    4  H   UNL     1     -44.747  57.923 -53.038  1.00  0.00     0.169 HD
ENDROOT
BRANCH   2   5
HETATM    5  C   UNL     1     -44.609  58.353 -55.057  1.00  0.00     0.034 A 
HETATM    6  C   UNL     1     -45.555  59.211 -55.622  1.00  0.00     0.030 A 
HETATM    7  C   UNL     1     -45.900  59.104 -56.975  1.00  0.00     0.019 A 
HETATM    8  C   UNL     1     -45.296  58.134 -57.781  1.00  0.00     0.032 A 
HETATM    9  C   UNL     1     -44.343  57.277 -57.223  1.00  0.00     0.019 A 
HETATM   10  C   UNL     1     -44.007  57.383 -55.868  1.00  0.00     0.030 A 
BRANCH   8  11
HETATM   11  C   UNL     1     -45.598  58.034 -59.238  1.00  0.00     0.256 C 
HETATM   12  N   UNL     1     -46.938  57.859 -59.542  1.00  0.00    -0.321 N 
HETATM   13  H   UNL     1     -47.505  57.420 -58.829  1.00  0.00     0.169 HD
HETATM   14  O   UNL     1     -44.663  58.020 -60.032  1.00  0.00    -0.267 OA
BRANCH  12  15
HETATM   15  C   UNL     1     -47.498  57.938 -60.838  1.00  0.00     0.068 A 
HETATM   16  C   UNL     1     -47.784  59.147 -61.498  1.00  0.00     0.095 A 
HETATM   17  C   UNL     1     -48.336  59.123 -62.787  1.00  0.00     0.039 A 
HETATM   18  C   UNL     1     -48.607  57.907 -63.416  1.00  0.00     0.003 A 
HETATM   19  C   UNL     1     -48.362  56.710 -62.751  1.00  0.00     0.002 A 
HETATM   20  C   UNL     1     -47.824  56.725 -61.462  1.00  0.00     0.032 A 
BRANCH  16  21
HETATM   21  O   UNL     1     -47.693  60.321 -60.793  1.00  0.00    -0.354 OA
HETATM   22  C   UNL     1     -46.521  61.080 -61.071  1.00  0.00     0.210 C 
ENDBRANCH  16  21
ENDBRANCH  12  15
ENDBRANCH   8  11
ENDBRANCH   2   5
BRANCH   1  23
HETATM   23  C   UNL     1     -42.857  58.958 -51.721  1.00  0.00     0.240 C 
BRANCH  23  24
HETATM   24  N   UNL     1     -42.841  57.561 -51.335  1.00  0.00    -0.259 N 
HETATM   25  C   UNL     1     -43.929  56.853 -50.951  1.00  0.00     0.326 A 
HETATM   26  N   UNL     1     -43.532  55.601 -50.565  1.00  0.00    -0.324 N 
HETATM   27  O   UNL     1     -45.088  57.231 -51.007  1.00  0.00    -0.247 OA
HETATM   28  C   UNL     1     -42.125  55.355 -50.829  1.00  0.00     0.116 A 
HETATM   29  H   UNL     1     -44.212  54.895 -50.309  1.00  0.00     0.165 HD
HETATM   30  C   UNL     1     -41.983  54.308 -51.938  1.00  0.00     0.041 C 
HETATM   31  C   UNL     1     -41.729  56.766 -51.327  1.00  0.00     0.256 A 
HETATM   32  C   UNL     1     -41.385  54.992 -49.539  1.00  0.00     0.041 C 
HETATM   33  C   UNL     1     -40.544  53.832 -52.141  1.00  0.00     0.007 C 
HETATM   34  C   UNL     1     -39.858  53.403 -50.839  1.00  0.00    -0.019 C 
HETATM   35  C   UNL     1     -40.410  52.076 -50.312  1.00  0.00     0.010 C 
HETATM   36  C   UNL     1     -39.953  54.514 -49.785  1.00  0.00     0.007 C 
HETATM   37  O   UNL     1     -40.607  57.110 -51.669  1.00  0.00    -0.270 OA
ENDBRANCH  23  24
ENDBRANCH   1  23
TORSDOF 6
ENDMDL
MODEL 10
REMARK VINA RESULT:      -7.6     20.753     24.858
REMARK  6 active torsions:
REMARK  status: ('A' for Active; 'I' for Inactive)
REMARK    1  A    between atoms: N_9  and  C_10 
REMARK    2  A    between atoms: C_10  and  C_11 
REMARK       I    between atoms: C_11  and  N_12 
REMARK    3  A    between atoms: N_12  and  C_13 
REMARK    4  A    between atoms: C_16  and  C_17 
REMARK       I    between atoms: C_17  and  N_18 
REMARK    5  A    between atoms: N_18  and  C_19 
REMARK    6  A    between atoms: C_20  and  O_21 
ROOT
HETATM    1  C   UNL     1     -44.223  58.687 -57.093  1.00  0.00     0.240 C 
HETATM    2  N   UNL     1     -44.280  60.021 -56.717  1.00  0.00    -0.326 N 
HETATM    3  O   UNL     1     -45.193  57.988 -57.379  1.00  0.00    -0.271 OA
HETATM    4  H   UNL     1     -43.408  60.543 -56.753  1.00  0.00     0.169 HD
ENDROOT
BRANCH   2   5
HETATM    5  C   UNL     1     -45.427  60.760 -56.364  1.00  0.00     0.034 A 
HETATM    6  C   UNL     1     -46.463  61.063 -57.251  1.00  0.00     0.030 A 
HETATM    7  C   UNL     1     -47.594  61.766 -56.817  1.00  0.00     0.019 A 
HETATM    8  C   UNL     1     -47.702  62.172 -55.484  1.00  0.00     0.032 A 
HETATM    9  C   UNL     1     -46.672  61.866 -54.589  1.00  0.00     0.019 A 
HETATM   10  C   UNL     1     -45.540  61.170 -55.029  1.00  0.00     0.030 A 
BRANCH   8  11
HETATM   11  C   UNL     1     -48.920  62.870 -54.978  1.00  0.00     0.256 C 
HETATM   12  N   UNL     1     -49.888  62.034 -54.447  1.00  0.00    -0.321 N 
HETATM   13  H   UNL     1     -49.899  61.085 -54.797  1.00  0.00     0.169 HD
HETATM   14  O   UNL     1     -49.015  64.081 -55.146  1.00  0.00    -0.267 OA
BRANCH  12  15
HETATM   15  C   UNL     1     -51.029  62.459 -53.729  1.00  0.00     0.068 A 
HETATM   16  C   UNL     1     -52.279  62.717 -54.320  1.00  0.00     0.095 A 
HETATM   17  C   UNL     1     -53.354  63.133 -53.522  1.00  0.00     0.039 A 
HETATM   18  C   UNL     1     -53.190  63.296 -52.146  1.00  0.00     0.003 A 
HETATM   19  C   UNL     1     -51.945  63.080 -51.564  1.00  0.00     0.002 A 
HETATM   20  C   UNL     1     -50.865  62.678 -52.354  1.00  0.00     0.032 A 
BRANCH  16  21
HETATM   21  O   UNL     1     -52.369  62.739 -55.690  1.00  0.00    -0.354 OA
HETATM   22  C   UNL     1     -53.198  61.718 -56.237  1.00  0.00     0.210 C 
ENDBRANCH  16  21
ENDBRANCH  12  15
ENDBRANCH   8  11
ENDBRANCH   2   5
BRANCH   1  23
HETATM   23  C   UNL     1     -42.806  58.155 -57.315  1.00  0.00     0.240 C 
BRANCH  23  24
HETATM   24  N   UNL     1     -42.222  57.560 -56.130  1.00  0.00    -0.259 N 
HETATM   25  C   UNL     1     -41.654  58.255 -55.116  1.00  0.00     0.326 A 
HETATM   26  N   UNL     1     -41.121  57.373 -54.215  1.00  0.00    -0.324 N 
HETATM   27  O   UNL     1     -41.676  59.467 -54.976  1.00  0.00    -0.247 OA
HETATM   28  C   UNL     1     -41.455  55.992 -54.521  1.00  0.00     0.116 A 
HETATM   29  H   UNL     1     -40.712  57.698 -53.347  1.00  0.00     0.165 HD
HETATM   30  C   UNL     1     -42.406  55.443 -53.453  1.00  0.00     0.041 C 
HETATM   31  C   UNL     1     -42.184  56.219 -55.866  1.00  0.00     0.256 A 
HETATM   32  C   UNL     1     -40.187  55.155 -54.708  1.00  0.00     0.041 C 
HETATM   33  C   UNL     1     -42.648  53.938 -53.575  1.00  0.00     0.007 C 
HETATM   34  C   UNL     1     -41.355  53.122 -53.683  1.00  0.00    -0.019 C 
HETATM   35  C   UNL     1     -40.598  53.072 -52.353  1.00  0.00     0.010 C 
HETATM   36  C   UNL     1     -40.472  53.656 -54.818  1.00  0.00     0.007 C 
HETATM   37  O   UNL     1     -42.659  55.342 -56.575  1.00  0.00    -0.270 OA
ENDBRANCH  23  24
ENDBRANCH   1  23
TORSDOF 6
ENDMDL
