MODEL 1
REMARK VINA RESULT:      -7.0      0.000      0.000
REMARK  6 active torsions:
REMARK  status: ('A' for Active; 'I' for Inactive)
REMARK    1  A    between atoms: C_2  and  C_3 
REMARK    2  A    between atoms: C_3  and  N_4 
REMARK    3  A    between atoms: C_3  and  C_15 
REMARK       I    between atoms: N_4  and  C_5 
REMARK       I    between atoms: C_5  and  N_6 
REMARK    4  A    between atoms: N_6  and  C_7 
REMARK    5  A    between atoms: C_16  and  O_17 
REMARK    6  A    between atoms: O_17  and  C_18 
ROOT
HETATM    1  N   UNL     1     -41.926  54.513 -50.924  1.00  0.00    -0.334 N 
HETATM    2  C   UNL     1     -42.590  55.693 -51.080  1.00  0.00     0.321 C 
HETATM    3  N   UNL     1     -41.971  56.591 -51.905  1.00  0.00    -0.307 N 
HETATM    4  O   UNL     1     -43.675  55.841 -50.528  1.00  0.00    -0.247 OA
HETATM    5  H   UNL     1     -42.432  53.854 -50.349  1.00  0.00     0.165 HD
HETATM    6  H   UNL     1     -41.549  56.126 -52.701  1.00  0.00     0.170 HD
ENDROOT
BRANCH   1   7
HETATM    7  C   UNL     1     -40.495  54.266 -51.111  1.00  0.00     0.122 C 
BRANCH   7   8
HETATM    8  C   UNL     1     -39.785  54.253 -49.735  1.00  0.00     0.026 C 
HETATM    9  C   UNL     1     -40.664  53.859 -48.548  1.00  0.00     0.007 C 
ENDBRANCH   7   8
BRANCH   7  10
HETATM   10  C   UNL     1     -40.273  53.082 -52.047  1.00  0.00    -0.002 A 
HETATM   11  C   UNL     1     -40.586  53.210 -53.421  1.00  0.00     0.077 A 
HETATM   12  C   UNL     1     -40.349  52.152 -54.307  1.00  0.00     0.037 A 
HETATM   13  C   UNL     1     -39.818  50.950 -53.844  1.00  0.00     0.003 A 
HETATM   14  C   UNL     1     -39.503  50.808 -52.498  1.00  0.00     0.001 A 
HETATM   15  C   UNL     1     -39.722  51.864 -51.610  1.00  0.00     0.012 A 
BRANCH  11  16
HETATM   16  O   UNL     1     -41.058  54.432 -53.845  1.00  0.00    -0.351 OA
BRANCH  16  17
HETATM   17  C   UNL     1     -41.870  54.393 -55.023  1.00  0.00     0.171 C 
HETATM   18  C   UNL     1     -43.321  54.535 -54.602  1.00  0.00     0.034 C 
ENDBRANCH  16  17
ENDBRANCH  11  16
ENDBRANCH   7  10
ENDBRANCH   1   7
BRANCH   3  19
HETATM   19  C   UNL     1     -42.317  57.947 -52.094  1.00  0.00     0.059 A 
HETATM   20  C   UNL     1     -41.833  59.030 -51.345  1.00  0.00    -0.032 A 
HETATM   21  C   UNL     1     -40.828  58.917 -50.234  1.00  0.00     0.050 C 
HETATM   22  C   UNL     1     -42.298  60.318 -51.665  1.00  0.00     0.028 A 
HETATM   23  C   UNL     1     -43.162  60.490 -52.735  1.00  0.00     0.117 A 
HETATM   24  N   UNL     1     -43.597  59.480 -53.510  1.00  0.00    -0.271 NA
HETATM   25  C   UNL     1     -43.163  58.242 -53.169  1.00  0.00     0.146 A 
ENDBRANCH   3  19
TORSDOF 6
ENDMDL
MODEL 2
REMARK VINA RESULT:      -7.0      1.593      3.490
REMARK  6 active torsions:
REMARK  status: ('A' for Active; 'I' for Inactive)
REMARK    1  A    between atoms: C_2  and  C_3 
REMARK    2  A    between atoms: C_3  and  N_4 
REMARK    3  A    between atoms: C_3  and  C_15 
REMARK       I    between atoms: N_4  and  C_5 
REMARK       I    between atoms: C_5  and  N_6 
REMARK    4  A    between atoms: N_6  and  C_7 
REMARK    5  A    between atoms: C_16  and  O_17 
REMARK    6  A    between atoms: O_17  and  C_18 
ROOT
HETATM    1  N   UNL     1     -41.238  55.895 -54.084  1.00  0.00    -0.334 N 
HETATM    2  C   UNL     1     -41.311  57.152 -53.559  1.00  0.00     0.321 C 
HETATM    3  N   UNL     1     -41.804  57.208 -52.285  1.00  0.00    -0.307 N 
HETATM    4  O   UNL     1     -40.901  58.097 -54.223  1.00  0.00    -0.247 OA
HETATM    5  H   UNL     1     -40.825  55.882 -55.006  1.00  0.00     0.165 HD
HETATM    6  H   UNL     1     -41.467  56.433 -51.726  1.00  0.00     0.170 HD
ENDROOT
BRANCH   1   7
HETATM    7  C   UNL     1     -42.017  54.720 -53.691  1.00  0.00     0.122 C 
BRANCH   7   8
HETATM    8  C   UNL     1     -43.098  54.431 -54.761  1.00  0.00     0.026 C 
HETATM    9  C   UNL     1     -42.774  54.927 -56.170  1.00  0.00     0.007 C 
ENDBRANCH   7   8
BRANCH   7  10
HETATM   10  C   UNL     1     -41.094  53.580 -53.273  1.00  0.00    -0.002 A 
HETATM   11  C   UNL     1     -40.596  53.535 -51.949  1.00  0.00     0.077 A 
HETATM   12  C   UNL     1     -39.784  52.474 -51.530  1.00  0.00     0.037 A 
HETATM   13  C   UNL     1     -39.440  51.456 -52.417  1.00  0.00     0.003 A 
HETATM   14  C   UNL     1     -39.921  51.484 -53.720  1.00  0.00     0.001 A 
HETATM   15  C   UNL     1     -40.746  52.531 -54.142  1.00  0.00     0.012 A 
BRANCH  11  16
HETATM   16  O   UNL     1     -41.005  54.530 -51.091  1.00  0.00    -0.351 OA
BRANCH  16  17
HETATM   17  C   UNL     1     -40.140  54.763 -49.975  1.00  0.00     0.171 C 
HETATM   18  C   UNL     1     -40.985  54.767 -48.714  1.00  0.00     0.034 C 
ENDBRANCH  16  17
ENDBRANCH  11  16
ENDBRANCH   7  10
ENDBRANCH   1   7
BRANCH   3  19
HETATM   19  C   UNL     1     -42.175  58.369 -51.571  1.00  0.00     0.059 A 
HETATM   20  C   UNL     1     -41.301  59.221 -50.879  1.00  0.00    -0.032 A 
HETATM   21  C   UNL     1     -39.809  59.049 -50.819  1.00  0.00     0.050 C 
HETATM   22  C   UNL     1     -41.848  60.331 -50.210  1.00  0.00     0.028 A 
HETATM   23  C   UNL     1     -43.207  60.586 -50.301  1.00  0.00     0.117 A 
HETATM   24  N   UNL     1     -44.061  59.823 -51.006  1.00  0.00    -0.271 NA
HETATM   25  C   UNL     1     -43.523  58.741 -51.620  1.00  0.00     0.146 A 
ENDBRANCH   3  19
TORSDOF 6
ENDMDL
MODEL 3
REMARK VINA RESULT:      -6.9      0.802      1.605
REMARK  6 active torsions:
REMARK  status: ('A' for Active; 'I' for Inactive)
REMARK    1  A    between atoms: C_2  and  C_3 
REMARK    2  A    between atoms: C_3  and  N_4 
REMARK    3  A    between atoms: C_3  and  C_15 
REMARK       I    between atoms: N_4  and  C_5 
REMARK       I    between atoms: C_5  and  N_6 
REMARK    4  A    between atoms: N_6  and  C_7 
REMARK    5  A    between atoms: C_16  and  O_17 
REMARK    6  A    between atoms: O_17  and  C_18 
ROOT
HETATM    1  N   UNL     1     -42.065  54.399 -50.938  1.00  0.00    -0.334 N 
HETATM    2  C   UNL     1     -42.817  55.522 -51.116  1.00  0.00     0.321 C 
HETATM    3  N   UNL     1     -42.297  56.420 -52.007  1.00  0.00    -0.307 N 
HETATM    4  O   UNL     1     -43.887  55.621 -50.525  1.00  0.00    -0.247 OA
HETATM    5  H   UNL     1     -42.499  53.735 -50.313  1.00  0.00     0.165 HD
HETATM    6  H   UNL     1     -41.876  55.949 -52.799  1.00  0.00     0.170 HD
ENDROOT
BRANCH   1   7
HETATM    7  C   UNL     1     -40.629  54.243 -51.177  1.00  0.00     0.122 C 
BRANCH   7   8
HETATM    8  C   UNL     1     -39.865  54.345 -49.834  1.00  0.00     0.026 C 
HETATM    9  C   UNL     1     -40.660  53.938 -48.595  1.00  0.00     0.007 C 
ENDBRANCH   7   8
BRANCH   7  10
HETATM   10  C   UNL     1     -40.362  53.033 -52.067  1.00  0.00    -0.002 A 
HETATM   11  C   UNL     1     -40.711  53.084 -53.437  1.00  0.00     0.077 A 
HETATM   12  C   UNL     1     -40.434  52.003 -54.283  1.00  0.00     0.037 A 
HETATM   13  C   UNL     1     -39.827  50.853 -53.782  1.00  0.00     0.003 A 
HETATM   14  C   UNL     1     -39.477  50.787 -52.440  1.00  0.00     0.001 A 
HETATM   15  C   UNL     1     -39.735  51.868 -51.592  1.00  0.00     0.012 A 
BRANCH  11  16
HETATM   16  O   UNL     1     -41.258  54.258 -53.901  1.00  0.00    -0.351 OA
BRANCH  16  17
HETATM   17  C   UNL     1     -42.453  54.107 -54.674  1.00  0.00     0.171 C 
HETATM   18  C   UNL     1     -42.297  54.914 -55.950  1.00  0.00     0.034 C 
ENDBRANCH  16  17
ENDBRANCH  11  16
ENDBRANCH   7  10
ENDBRANCH   1   7
BRANCH   3  19
HETATM   19  C   UNL     1     -42.746  57.739 -52.240  1.00  0.00     0.059 A 
HETATM   20  C   UNL     1     -43.768  58.114 -53.125  1.00  0.00    -0.032 A 
HETATM   21  C   UNL     1     -44.581  57.154 -53.946  1.00  0.00     0.050 C 
HETATM   22  C   UNL     1     -44.077  59.481 -53.240  1.00  0.00     0.028 A 
HETATM   23  C   UNL     1     -43.416  60.404 -52.444  1.00  0.00     0.117 A 
HETATM   24  N   UNL     1     -42.474  60.070 -51.544  1.00  0.00    -0.271 NA
HETATM   25  C   UNL     1     -42.168  58.752 -51.467  1.00  0.00     0.146 A 
ENDBRANCH   3  19
TORSDOF 6
ENDMDL
MODEL 4
REMARK VINA RESULT:      -6.8      1.689      3.702
REMARK  6 active torsions:
REMARK  status: ('A' for Active; 'I' for Inactive)
REMARK    1  A    between atoms: C_2  and  C_3 
REMARK    2  A    between atoms: C_3  and  N_4 
REMARK    3  A    between atoms: C_3  and  C_15 
REMARK       I    between atoms: N_4  and  C_5 
REMARK       I    between atoms: C_5  and  N_6 
REMARK    4  A    between atoms: N_6  and  C_7 
REMARK    5  A    between atoms: C_16  and  O_17 
REMARK    6  A    between atoms: O_17  and  C_18 
ROOT
HETATM    1  N   UNL     1     -41.127  55.795 -53.934  1.00  0.00    -0.334 N 
HETATM    2  C   UNL     1     -41.257  57.059 -53.440  1.00  0.00     0.321 C 
HETATM    3  N   UNL     1     -41.879  57.134 -52.224  1.00  0.00    -0.307 N 
HETATM    4  O   UNL     1     -40.782  57.996 -54.073  1.00  0.00    -0.247 OA
HETATM    5  H   UNL     1     -40.621  55.769 -54.808  1.00  0.00     0.165 HD
HETATM    6  H   UNL     1     -41.600  56.370 -51.621  1.00  0.00     0.170 HD
ENDROOT
BRANCH   1   7
HETATM    7  C   UNL     1     -41.940  54.623 -53.604  1.00  0.00     0.122 C 
BRANCH   7   8
HETATM    8  C   UNL     1     -43.011  54.408 -54.702  1.00  0.00     0.026 C 
HETATM    9  C   UNL     1     -42.634  54.914 -56.093  1.00  0.00     0.007 C 
ENDBRANCH   7   8
BRANCH   7  10
HETATM   10  C   UNL     1     -41.051  53.443 -53.224  1.00  0.00    -0.002 A 
HETATM   11  C   UNL     1     -40.548  53.345 -51.906  1.00  0.00     0.077 A 
HETATM   12  C   UNL     1     -39.766  52.248 -51.521  1.00  0.00     0.037 A 
HETATM   13  C   UNL     1     -39.459  51.246 -52.439  1.00  0.00     0.003 A 
HETATM   14  C   UNL     1     -39.946  51.326 -53.737  1.00  0.00     0.001 A 
HETATM   15  C   UNL     1     -40.740  52.409 -54.124  1.00  0.00     0.012 A 
BRANCH  11  16
HETATM   16  O   UNL     1     -40.921  54.328 -51.017  1.00  0.00    -0.351 OA
BRANCH  16  17
HETATM   17  C   UNL     1     -39.995  54.566 -49.952  1.00  0.00     0.171 C 
HETATM   18  C   UNL     1     -40.749  54.465 -48.638  1.00  0.00     0.034 C 
ENDBRANCH  16  17
ENDBRANCH  11  16
ENDBRANCH   7  10
ENDBRANCH   1   7
BRANCH   3  19
HETATM   19  C   UNL     1     -42.324  58.305 -51.572  1.00  0.00     0.059 A 
HETATM   20  C   UNL     1     -43.642  58.786 -51.556  1.00  0.00    -0.032 A 
HETATM   21  C   UNL     1     -44.809  58.101 -52.208  1.00  0.00     0.050 C 
HETATM   22  C   UNL     1     -43.903  59.981 -50.862  1.00  0.00     0.028 A 
HETATM   23  C   UNL     1     -42.880  60.612 -50.171  1.00  0.00     0.117 A 
HETATM   24  N   UNL     1     -41.620  60.144 -50.117  1.00  0.00    -0.271 NA
HETATM   25  C   UNL     1     -41.379  59.008 -50.815  1.00  0.00     0.146 A 
ENDBRANCH   3  19
TORSDOF 6
ENDMDL
MODEL 5
REMARK VINA RESULT:      -6.6      2.036      4.353
REMARK  6 active torsions:
REMARK  status: ('A' for Active; 'I' for Inactive)
REMARK    1  A    between atoms: C_2  and  C_3 
REMARK    2  A    between atoms: C_3  and  N_4 
REMARK    3  A    between atoms: C_3  and  C_15 
REMARK       I    between atoms: N_4  and  C_5 
REMARK       I    between atoms: C_5  and  N_6 
REMARK    4  A    between atoms: N_6  and  C_7 
REMARK    5  A    between atoms: C_16  and  O_17 
REMARK    6  A    between atoms: O_17  and  C_18 
ROOT
HETATM    1  N   UNL     1     -42.821  56.730 -51.710  1.00  0.00    -0.334 N 
HETATM    2  C   UNL     1     -43.293  56.788 -52.988  1.00  0.00     0.321 C 
HETATM    3  N   UNL     1     -42.417  56.345 -53.939  1.00  0.00    -0.307 N 
HETATM    4  O   UNL     1     -44.442  57.174 -53.180  1.00  0.00    -0.247 OA
HETATM    5  H   UNL     1     -43.509  57.018 -51.027  1.00  0.00     0.165 HD
HETATM    6  H   UNL     1     -41.903  55.534 -53.614  1.00  0.00     0.170 HD
ENDROOT
BRANCH   1   7
HETATM    7  C   UNL     1     -41.423  56.721 -51.277  1.00  0.00     0.122 C 
BRANCH   7   8
HETATM    8  C   UNL     1     -41.092  58.051 -50.557  1.00  0.00     0.026 C 
HETATM    9  C   UNL     1     -40.160  58.993 -51.317  1.00  0.00     0.007 C 
ENDBRANCH   7   8
BRANCH   7  10
HETATM   10  C   UNL     1     -41.091  55.413 -50.565  1.00  0.00    -0.002 A 
HETATM   11  C   UNL     1     -40.733  54.275 -51.326  1.00  0.00     0.077 A 
HETATM   12  C   UNL     1     -40.381  53.077 -50.692  1.00  0.00     0.037 A 
HETATM   13  C   UNL     1     -40.395  52.985 -49.302  1.00  0.00     0.003 A 
HETATM   14  C   UNL     1     -40.742  54.093 -48.539  1.00  0.00     0.001 A 
HETATM   15  C   UNL     1     -41.079  55.297 -49.164  1.00  0.00     0.012 A 
BRANCH  11  16
HETATM   16  O   UNL     1     -40.679  54.427 -52.692  1.00  0.00    -0.351 OA
BRANCH  16  17
HETATM   17  C   UNL     1     -40.634  53.205 -53.437  1.00  0.00     0.171 C 
HETATM   18  C   UNL     1     -40.075  53.511 -54.815  1.00  0.00     0.034 C 
ENDBRANCH  16  17
ENDBRANCH  11  16
ENDBRANCH   7  10
ENDBRANCH   1   7
BRANCH   3  19
HETATM   19  C   UNL     1     -42.552  56.470 -55.339  1.00  0.00     0.059 A 
HETATM   20  C   UNL     1     -42.971  55.460 -56.218  1.00  0.00    -0.032 A 
HETATM   21  C   UNL     1     -43.382  54.078 -55.795  1.00  0.00     0.050 C 
HETATM   22  C   UNL     1     -43.036  55.759 -57.590  1.00  0.00     0.028 A 
HETATM   23  C   UNL     1     -42.749  57.043 -58.027  1.00  0.00     0.117 A 
HETATM   24  N   UNL     1     -42.403  58.049 -57.204  1.00  0.00    -0.271 NA
HETATM   25  C   UNL     1     -42.316  57.736 -55.889  1.00  0.00     0.146 A 
ENDBRANCH   3  19
TORSDOF 6
ENDMDL
MODEL 6
REMARK VINA RESULT:      -6.3     15.173     17.333
REMARK  6 active torsions:
REMARK  status: ('A' for Active; 'I' for Inactive)
REMARK    1  A    between atoms: C_2  and  C_3 
REMARK    2  A    between atoms: C_3  and  N_4 
REMARK    3  A    between atoms: C_3  and  C_15 
REMARK       I    between atoms: N_4  and  C_5 
REMARK       I    between atoms: C_5  and  N_6 
REMARK    4  A    between atoms: N_6  and  C_7 
REMARK    5  A    between atoms: C_16  and  O_17 
REMARK    6  A    between atoms: O_17  and  C_18 
ROOT
HETATM    1  N   UNL     1     -33.849  41.451 -54.812  1.00  0.00    -0.334 N 
HETATM    2  C   UNL     1     -34.787  41.574 -55.794  1.00  0.00     0.321 C 
HETATM    3  N   UNL     1     -35.488  40.430 -56.058  1.00  0.00    -0.307 N 
HETATM    4  O   UNL     1     -34.961  42.671 -56.315  1.00  0.00    -0.247 OA
HETATM    5  H   UNL     1     -33.383  42.324 -54.607  1.00  0.00     0.165 HD
HETATM    6  H   UNL     1     -35.695  39.922 -55.206  1.00  0.00     0.170 HD
ENDROOT
BRANCH   1   7
HETATM    7  C   UNL     1     -33.185  40.225 -54.365  1.00  0.00     0.122 C 
BRANCH   7   8
HETATM    8  C   UNL     1     -31.838  40.062 -55.110  1.00  0.00     0.026 C 
HETATM    9  C   UNL     1     -31.940  39.527 -56.537  1.00  0.00     0.007 C 
ENDBRANCH   7   8
BRANCH   7  10
HETATM   10  C   UNL     1     -33.181  40.143 -52.841  1.00  0.00    -0.002 A 
HETATM   11  C   UNL     1     -34.398  39.935 -52.150  1.00  0.00     0.077 A 
HETATM   12  C   UNL     1     -34.412  39.812 -50.755  1.00  0.00     0.037 A 
HETATM   13  C   UNL     1     -33.229  39.911 -50.027  1.00  0.00     0.003 A 
HETATM   14  C   UNL     1     -32.025  40.113 -50.689  1.00  0.00     0.001 A 
HETATM   15  C   UNL     1     -32.000  40.221 -52.083  1.00  0.00     0.012 A 
BRANCH  11  16
HETATM   16  O   UNL     1     -35.534  39.789 -52.912  1.00  0.00    -0.351 OA
BRANCH  16  17
HETATM   17  C   UNL     1     -36.725  40.335 -52.336  1.00  0.00     0.171 C 
HETATM   18  C   UNL     1     -36.840  41.785 -52.771  1.00  0.00     0.034 C 
ENDBRANCH  16  17
ENDBRANCH  11  16
ENDBRANCH   7  10
ENDBRANCH   1   7
BRANCH   3  19
HETATM   19  C   UNL     1     -36.369  40.208 -57.139  1.00  0.00     0.059 A 
HETATM   20  C   UNL     1     -37.742  40.498 -57.154  1.00  0.00    -0.032 A 
HETATM   21  C   UNL     1     -38.491  41.134 -56.018  1.00  0.00     0.050 C 
HETATM   22  C   UNL     1     -38.471  40.197 -58.318  1.00  0.00     0.028 A 
HETATM   23  C   UNL     1     -37.814  39.687 -59.427  1.00  0.00     0.117 A 
HETATM   24  N   UNL     1     -36.490  39.454 -59.465  1.00  0.00    -0.271 NA
HETATM   25  C   UNL     1     -35.807  39.721 -58.326  1.00  0.00     0.146 A 
ENDBRANCH   3  19
TORSDOF 6
ENDMDL
MODEL 7
REMARK VINA RESULT:      -6.0      1.988      3.249
REMARK  6 active torsions:
REMARK  status: ('A' for Active; 'I' for Inactive)
REMARK    1  A    between atoms: C_2  and  C_3 
REMARK    2  A    between atoms: C_3  and  N_4 
REMARK    3  A    between atoms: C_3  and  C_15 
REMARK       I    between atoms: N_4  and  C_5 
REMARK       I    between atoms: C_5  and  N_6 
REMARK    4  A    between atoms: N_6  and  C_7 
REMARK    5  A    between atoms: C_16  and  O_17 
REMARK    6  A    between atoms: O_17  and  C_18 
ROOT
HETATM    1  N   UNL     1     -42.307  55.243 -54.075  1.00  0.00    -0.334 N 
HETATM    2  C   UNL     1     -42.874  56.472 -54.241  1.00  0.00     0.321 C 
HETATM    3  N   UNL     1     -42.819  57.278 -53.137  1.00  0.00    -0.307 N 
HETATM    4  O   UNL     1     -43.332  56.772 -55.338  1.00  0.00    -0.247 OA
HETATM    5  H   UNL     1     -42.320  54.691 -54.921  1.00  0.00     0.165 HD
HETATM    6  H   UNL     1     -41.934  57.178 -52.654  1.00  0.00     0.170 HD
ENDROOT
BRANCH   1   7
HETATM    7  C   UNL     1     -42.094  54.524 -52.818  1.00  0.00     0.122 C 
BRANCH   7   8
HETATM    8  C   UNL     1     -43.459  54.243 -52.142  1.00  0.00     0.026 C 
HETATM    9  C   UNL     1     -43.578  54.703 -50.690  1.00  0.00     0.007 C 
ENDBRANCH   7   8
BRANCH   7  10
HETATM   10  C   UNL     1     -41.138  53.353 -53.025  1.00  0.00    -0.002 A 
HETATM   11  C   UNL     1     -40.186  53.044 -52.025  1.00  0.00     0.077 A 
HETATM   12  C   UNL     1     -39.328  51.947 -52.174  1.00  0.00     0.037 A 
HETATM   13  C   UNL     1     -39.389  51.155 -53.318  1.00  0.00     0.003 A 
HETATM   14  C   UNL     1     -40.318  51.443 -54.309  1.00  0.00     0.001 A 
HETATM   15  C   UNL     1     -41.189  52.527 -54.161  1.00  0.00     0.012 A 
BRANCH  11  16
HETATM   16  O   UNL     1     -40.198  53.819 -50.888  1.00  0.00    -0.351 OA
BRANCH  16  17
HETATM   17  C   UNL     1     -40.470  53.112 -49.674  1.00  0.00     0.171 C 
HETATM   18  C   UNL     1     -40.540  54.121 -48.543  1.00  0.00     0.034 C 
ENDBRANCH  16  17
ENDBRANCH  11  16
ENDBRANCH   7  10
ENDBRANCH   1   7
BRANCH   3  19
HETATM   19  C   UNL     1     -43.488  58.508 -52.953  1.00  0.00     0.059 A 
HETATM   20  C   UNL     1     -43.082  59.749 -53.467  1.00  0.00    -0.032 A 
HETATM   21  C   UNL     1     -41.875  59.959 -54.337  1.00  0.00     0.050 C 
HETATM   22  C   UNL     1     -43.867  60.878 -53.172  1.00  0.00     0.028 A 
HETATM   23  C   UNL     1     -45.037  60.729 -52.444  1.00  0.00     0.117 A 
HETATM   24  N   UNL     1     -45.485  59.545 -51.989  1.00  0.00    -0.271 NA
HETATM   25  C   UNL     1     -44.702  58.472 -52.256  1.00  0.00     0.146 A 
ENDBRANCH   3  19
TORSDOF 6
ENDMDL
MODEL 8
REMARK VINA RESULT:      -6.0      3.632      5.274
REMARK  6 active torsions:
REMARK  status: ('A' for Active; 'I' for Inactive)
REMARK    1  A    between atoms: C_2  and  C_3 
REMARK    2  A    between atoms: C_3  and  N_4 
REMARK    3  A    between atoms: C_3  and  C_15 
REMARK       I    between atoms: N_4  and  C_5 
REMARK       I    between atoms: C_5  and  N_6 
REMARK    4  A    between atoms: N_6  and  C_7 
REMARK    5  A    between atoms: C_16  and  O_17 
REMARK    6  A    between atoms: O_17  and  C_18 
ROOT
HETATM    1  N   UNL     1     -42.819  56.633 -54.166  1.00  0.00    -0.334 N 
HETATM    2  C   UNL     1     -43.430  56.904 -55.354  1.00  0.00     0.321 C 
HETATM    3  N   UNL     1     -42.685  56.598 -56.460  1.00  0.00    -0.307 N 
HETATM    4  O   UNL     1     -44.576  57.340 -55.347  1.00  0.00    -0.247 OA
HETATM    5  H   UNL     1     -43.412  56.824 -53.370  1.00  0.00     0.165 HD
HETATM    6  H   UNL     1     -42.171  55.735 -56.328  1.00  0.00     0.170 HD
ENDROOT
BRANCH   1   7
HETATM    7  C   UNL     1     -41.382  56.524 -53.908  1.00  0.00     0.122 C 
BRANCH   7   8
HETATM    8  C   UNL     1     -40.976  57.522 -52.796  1.00  0.00     0.026 C 
HETATM    9  C   UNL     1     -40.584  58.917 -53.279  1.00  0.00     0.007 C 
ENDBRANCH   7   8
BRANCH   7  10
HETATM   10  C   UNL     1     -40.975  55.062 -53.749  1.00  0.00    -0.002 A 
HETATM   11  C   UNL     1     -41.339  54.360 -52.576  1.00  0.00     0.077 A 
HETATM   12  C   UNL     1     -41.015  53.006 -52.428  1.00  0.00     0.037 A 
HETATM   13  C   UNL     1     -40.313  52.336 -53.427  1.00  0.00     0.003 A 
HETATM   14  C   UNL     1     -39.949  53.009 -54.586  1.00  0.00     0.001 A 
HETATM   15  C   UNL     1     -40.283  54.357 -54.749  1.00  0.00     0.012 A 
BRANCH  11  16
HETATM   16  O   UNL     1     -42.079  55.046 -51.639  1.00  0.00    -0.351 OA
BRANCH  16  17
HETATM   17  C   UNL     1     -42.090  54.464 -50.332  1.00  0.00     0.171 C 
HETATM   18  C   UNL     1     -41.208  55.309 -49.430  1.00  0.00     0.034 C 
ENDBRANCH  16  17
ENDBRANCH  11  16
ENDBRANCH   7  10
ENDBRANCH   1   7
BRANCH   3  19
HETATM   19  C   UNL     1     -42.973  56.947 -57.797  1.00  0.00     0.059 A 
HETATM   20  C   UNL     1     -42.705  58.187 -58.398  1.00  0.00    -0.032 A 
HETATM   21  C   UNL     1     -42.026  59.338 -57.713  1.00  0.00     0.050 C 
HETATM   22  C   UNL     1     -43.072  58.364 -59.744  1.00  0.00     0.028 A 
HETATM   23  C   UNL     1     -43.625  57.307 -60.450  1.00  0.00     0.117 A 
HETATM   24  N   UNL     1     -43.839  56.090 -59.920  1.00  0.00    -0.271 NA
HETATM   25  C   UNL     1     -43.508  55.944 -58.615  1.00  0.00     0.146 A 
ENDBRANCH   3  19
TORSDOF 6
ENDMDL
MODEL 9
REMARK VINA RESULT:      -5.9     15.243     17.461
REMARK  6 active torsions:
REMARK  status: ('A' for Active; 'I' for Inactive)
REMARK    1  A    between atoms: C_2  and  C_3 
REMARK    2  A    between atoms: C_3  and  N_4 
REMARK    3  A    between atoms: C_3  and  C_15 
REMARK       I    between atoms: N_4  and  C_5 
REMARK       I    between atoms: C_5  and  N_6 
REMARK    4  A    between atoms: N_6  and  C_7 
REMARK    5  A    between atoms: C_16  and  O_17 
REMARK    6  A    between atoms: O_17  and  C_18 
ROOT
HETATM    1  N   UNL     1     -35.862  38.533 -56.209  1.00  0.00    -0.334 N 
HETATM    2  C   UNL     1     -35.743  38.821 -54.882  1.00  0.00     0.321 C 
HETATM    3  N   UNL     1     -35.108  40.001 -54.610  1.00  0.00    -0.307 N 
HETATM    4  O   UNL     1     -36.237  38.056 -54.061  1.00  0.00    -0.247 OA
HETATM    5  H   UNL     1     -36.378  37.681 -56.378  1.00  0.00     0.165 HD
HETATM    6  H   UNL     1     -35.371  40.720 -55.274  1.00  0.00     0.170 HD
ENDROOT
BRANCH   1   7
HETATM    7  C   UNL     1     -35.031  39.031 -57.306  1.00  0.00     0.122 C 
BRANCH   7   8
HETATM    8  C   UNL     1     -33.976  37.963 -57.685  1.00  0.00     0.026 C 
HETATM    9  C   UNL     1     -32.525  38.341 -57.392  1.00  0.00     0.007 C 
ENDBRANCH   7   8
BRANCH   7  10
HETATM   10  C   UNL     1     -35.900  39.612 -58.417  1.00  0.00    -0.002 A 
HETATM   11  C   UNL     1     -36.508  40.877 -58.237  1.00  0.00     0.077 A 
HETATM   12  C   UNL     1     -37.274  41.450 -59.261  1.00  0.00     0.037 A 
HETATM   13  C   UNL     1     -37.460  40.774 -60.464  1.00  0.00     0.003 A 
HETATM   14  C   UNL     1     -36.869  39.533 -60.658  1.00  0.00     0.001 A 
HETATM   15  C   UNL     1     -36.091  38.960 -59.648  1.00  0.00     0.012 A 
BRANCH  11  16
HETATM   16  O   UNL     1     -36.253  41.533 -57.055  1.00  0.00    -0.351 OA
BRANCH  16  17
HETATM   17  C   UNL     1     -37.379  42.200 -56.475  1.00  0.00     0.171 C 
HETATM   18  C   UNL     1     -38.361  41.145 -56.000  1.00  0.00     0.034 C 
ENDBRANCH  16  17
ENDBRANCH  11  16
ENDBRANCH   7  10
ENDBRANCH   1   7
BRANCH   3  19
HETATM   19  C   UNL     1     -34.671  40.457 -53.347  1.00  0.00     0.059 A 
HETATM   20  C   UNL     1     -35.397  41.283 -52.476  1.00  0.00    -0.032 A 
HETATM   21  C   UNL     1     -36.787  41.789 -52.739  1.00  0.00     0.050 C 
HETATM   22  C   UNL     1     -34.799  41.650 -51.257  1.00  0.00     0.028 A 
HETATM   23  C   UNL     1     -33.552  41.143 -50.925  1.00  0.00     0.117 A 
HETATM   24  N   UNL     1     -32.858  40.302 -51.710  1.00  0.00    -0.271 NA
HETATM   25  C   UNL     1     -33.435  39.982 -52.894  1.00  0.00     0.146 A 
ENDBRANCH   3  19
TORSDOF 6
ENDMDL
MODEL 10
REMARK VINA RESULT:      -5.9      2.812      4.673
REMARK  6 active torsions:
REMARK  status: ('A' for Active; 'I' for Inactive)
REMARK    1  A    between atoms: C_2  and  C_3 
REMARK    2  A    between atoms: C_3  and  N_4 
REMARK    3  A    between atoms: C_3  and  C_15 
REMARK       I    between atoms: N_4  and  C_5 
REMARK       I    between atoms: C_5  and  N_6 
REMARK    4  A    between atoms: N_6  and  C_7 
REMARK    5  A    between atoms: C_16  and  O_17 
REMARK    6  A    between atoms: O_17  and  C_18 
ROOT
HETATM    1  N   UNL     1     -43.455  56.780 -52.815  1.00  0.00    -0.334 N 
HETATM    2  C   UNL     1     -43.765  56.793 -54.142  1.00  0.00     0.321 C 
HETATM    3  N   UNL     1     -42.686  56.725 -54.980  1.00  0.00    -0.307 N 
HETATM    4  O   UNL     1     -44.945  56.814 -54.476  1.00  0.00    -0.247 OA
HETATM    5  H   UNL     1     -44.274  56.782 -52.223  1.00  0.00     0.165 HD
HETATM    6  H   UNL     1     -41.981  56.093 -54.619  1.00  0.00     0.170 HD
ENDROOT
BRANCH   1   7
HETATM    7  C   UNL     1     -42.189  57.174 -52.193  1.00  0.00     0.122 C 
BRANCH   7   8
HETATM    8  C   UNL     1     -42.363  58.536 -51.477  1.00  0.00     0.026 C 
HETATM    9  C   UNL     1     -41.136  59.446 -51.495  1.00  0.00     0.007 C 
ENDBRANCH   7   8
BRANCH   7  10
HETATM   10  C   UNL     1     -41.598  56.013 -51.400  1.00  0.00    -0.002 A 
HETATM   11  C   UNL     1     -40.896  54.989 -52.079  1.00  0.00     0.077 A 
HETATM   12  C   UNL     1     -40.306  53.937 -51.367  1.00  0.00     0.037 A 
HETATM   13  C   UNL     1     -40.418  53.875 -49.980  1.00  0.00     0.003 A 
HETATM   14  C   UNL     1     -41.101  54.872 -49.297  1.00  0.00     0.001 A 
HETATM   15  C   UNL     1     -41.679  55.934 -49.998  1.00  0.00     0.012 A 
BRANCH  11  16
HETATM   16  O   UNL     1     -40.764  55.118 -53.443  1.00  0.00    -0.351 OA
BRANCH  16  17
HETATM   17  C   UNL     1     -40.515  53.898 -54.147  1.00  0.00     0.171 C 
HETATM   18  C   UNL     1     -41.843  53.193 -54.358  1.00  0.00     0.034 C 
ENDBRANCH  16  17
ENDBRANCH  11  16
ENDBRANCH   7  10
ENDBRANCH   1   7
BRANCH   3  19
HETATM   19  C   UNL     1     -42.687  56.917 -56.379  1.00  0.00     0.059 A 
HETATM   20  C   UNL     1     -42.491  58.138 -57.041  1.00  0.00    -0.032 A 
HETATM   21  C   UNL     1     -42.208  59.445 -56.355  1.00  0.00     0.050 C 
HETATM   22  C   UNL     1     -42.537  58.146 -58.446  1.00  0.00     0.028 A 
HETATM   23  C   UNL     1     -42.711  56.955 -59.134  1.00  0.00     0.117 A 
HETATM   24  N   UNL     1     -42.841  55.760 -58.531  1.00  0.00    -0.271 NA
HETATM   25  C   UNL     1     -42.825  55.774 -57.176  1.00  0.00     0.146 A 
ENDBRANCH   3  19
TORSDOF 6
ENDMDL
