MODEL 1
REMARK VINA RESULT:      -8.8      0.000      0.000
REMARK  6 active torsions:
REMARK  status: ('A' for Active; 'I' for Inactive)
REMARK    1  A    between atoms: C_2  and  C_3 
REMARK    2  A    between atoms: C_3  and  C_4 
REMARK    3  A    between atoms: C_7  and  C_8 
REMARK    4  A    between atoms: C_14  and  C_15 
REMARK    5  A    between atoms: C_18  and  N_19 
REMARK       I    between atoms: N_19  and  C_20 
REMARK    6  A    between atoms: C_28  and  N_29 
ROOT
HETATM    1  C   UNL     1     -41.291  57.657 -51.469  1.00  0.00     0.099 A 
HETATM    2  N   UNL     1     -40.121  58.117 -50.989  1.00  0.00    -0.172 NA
HETATM    3  N   UNL     1     -40.421  59.317 -50.455  1.00  0.00    -0.256 N 
HETATM    4  H   UNL     1     -39.683  59.857 -50.017  1.00  0.00     0.191 HD
HETATM    5  C   UNL     1     -41.725  59.652 -50.613  1.00  0.00     0.175 A 
HETATM    6  C   UNL     1     -42.330  58.606 -51.256  1.00  0.00     0.040 A 
HETATM    7  C   UNL     1     -43.782  58.681 -51.595  1.00  0.00     0.106 A 
HETATM    8  C   UNL     1     -44.372  60.014 -51.135  1.00  0.00     0.081 A 
HETATM    9  C   UNL     1     -45.768  60.204 -51.351  1.00  0.00     0.100 C 
HETATM   10  N   UNL     1     -46.903  60.369 -51.525  1.00  0.00    -0.191 NA
HETATM   11  C   UNL     1     -43.639  60.966 -50.492  1.00  0.00     0.140 A 
HETATM   12  O   UNL     1     -42.269  60.798 -50.222  1.00  0.00    -0.279 OA
ENDROOT
BRANCH   7  13
HETATM   13  C   UNL     1     -43.881  58.442 -53.096  1.00  0.00    -0.044 A 
HETATM   14  C   UNL     1     -44.642  57.360 -53.568  1.00  0.00     0.010 A 
HETATM   15  C   UNL     1     -44.656  57.022 -54.925  1.00  0.00     0.030 A 
HETATM   16  C   UNL     1     -43.927  57.770 -55.847  1.00  0.00     0.034 A 
HETATM   17  C   UNL     1     -43.227  58.896 -55.396  1.00  0.00     0.030 A 
HETATM   18  C   UNL     1     -43.205  59.232 -54.037  1.00  0.00     0.010 A 
BRANCH  16  19
HETATM   19  N   UNL     1     -43.824  57.448 -57.215  1.00  0.00    -0.328 N 
HETATM   20  C   UNL     1     -43.222  56.334 -57.773  1.00  0.00     0.218 C 
HETATM   21  C   UNL     1     -43.242  56.377 -59.281  1.00  0.00     0.117 C 
HETATM   22  O   UNL     1     -42.723  55.383 -57.181  1.00  0.00    -0.274 OA
HETATM   23  H   UNL     1     -44.184  58.141 -57.860  1.00  0.00     0.169 HD
ENDBRANCH  16  19
ENDBRANCH   7  13
BRANCH  11  24
HETATM   24  N   UNL     1     -44.124  62.169 -50.031  1.00  0.00    -0.282 NA
HETATM   25  H   UNL     1     -43.432  62.808 -49.646  1.00  0.00     0.126 HD
HETATM   26  H   UNL     1     -44.941  62.054 -49.436  1.00  0.00     0.126 HD
ENDBRANCH  11  24
BRANCH   1  27
HETATM   27  C   UNL     1     -41.379  56.386 -52.178  1.00  0.00    -0.005 A 
HETATM   28  C   UNL     1     -40.905  56.262 -53.488  1.00  0.00     0.014 A 
HETATM   29  C   UNL     1     -40.838  55.007 -54.102  1.00  0.00     0.008 A 
HETATM   30  C   UNL     1     -41.250  53.853 -53.424  1.00  0.00    -0.058 A 
HETATM   31  C   UNL     1     -41.793  54.000 -52.136  1.00  0.00     0.008 A 
HETATM   32  C   UNL     1     -41.855  55.252 -51.517  1.00  0.00     0.014 A 
BRANCH  30  33
HETATM   33  C   UNL     1     -41.147  52.452 -53.993  1.00  0.00     0.042 C 
BRANCH  33  34
HETATM   34  C   UNL     1     -39.805  51.703 -53.834  1.00  0.00    -0.019 C 
HETATM   35  C   UNL     1     -39.883  50.280 -54.395  1.00  0.00     0.010 C 
HETATM   36  C   UNL     1     -39.412  51.633 -52.353  1.00  0.00     0.010 C 
ENDBRANCH  33  34
ENDBRANCH  30  33
ENDBRANCH   1  27
TORSDOF 6
ENDMDL
MODEL 2
REMARK VINA RESULT:      -8.5      2.329      6.248
REMARK  6 active torsions:
REMARK  status: ('A' for Active; 'I' for Inactive)
REMARK    1  A    between atoms: C_2  and  C_3 
REMARK    2  A    between atoms: C_3  and  C_4 
REMARK    3  A    between atoms: C_7  and  C_8 
REMARK    4  A    between atoms: C_14  and  C_15 
REMARK    5  A    between atoms: C_18  and  N_19 
REMARK       I    between atoms: N_19  and  C_20 
REMARK    6  A    between atoms: C_28  and  N_29 
ROOT
HETATM    1  C   UNL     1     -42.947  55.115 -56.630  1.00  0.00     0.099 A 
HETATM    2  N   UNL     1     -43.677  54.294 -57.409  1.00  0.00    -0.172 NA
HETATM    3  N   UNL     1     -43.954  55.026 -58.506  1.00  0.00    -0.256 N 
HETATM    4  H   UNL     1     -44.496  54.604 -59.252  1.00  0.00     0.191 HD
HETATM    5  C   UNL     1     -43.463  56.288 -58.436  1.00  0.00     0.175 A 
HETATM    6  C   UNL     1     -42.797  56.390 -57.244  1.00  0.00     0.040 A 
HETATM    7  C   UNL     1     -42.153  57.681 -56.860  1.00  0.00     0.106 A 
HETATM    8  C   UNL     1     -42.377  58.735 -57.945  1.00  0.00     0.081 A 
HETATM    9  C   UNL     1     -41.772  60.008 -57.734  1.00  0.00     0.100 C 
HETATM   10  N   UNL     1     -41.288  61.049 -57.569  1.00  0.00    -0.191 NA
HETATM   11  C   UNL     1     -43.061  58.480 -59.096  1.00  0.00     0.140 A 
HETATM   12  O   UNL     1     -43.636  57.224 -59.361  1.00  0.00    -0.279 OA
ENDROOT
BRANCH   7  13
HETATM   13  C   UNL     1     -42.728  58.056 -55.501  1.00  0.00    -0.044 A 
HETATM   14  C   UNL     1     -44.108  58.287 -55.382  1.00  0.00     0.010 A 
HETATM   15  C   UNL     1     -44.663  58.760 -54.188  1.00  0.00     0.030 A 
HETATM   16  C   UNL     1     -43.855  58.993 -53.078  1.00  0.00     0.034 A 
HETATM   17  C   UNL     1     -42.491  58.693 -53.164  1.00  0.00     0.030 A 
HETATM   18  C   UNL     1     -41.931  58.227 -54.360  1.00  0.00     0.010 A 
BRANCH  16  19
HETATM   19  N   UNL     1     -44.322  59.544 -51.868  1.00  0.00    -0.328 N 
HETATM   20  C   UNL     1     -45.117  58.930 -50.916  1.00  0.00     0.218 C 
HETATM   21  C   UNL     1     -45.477  59.867 -49.790  1.00  0.00     0.117 C 
HETATM   22  O   UNL     1     -45.512  57.769 -50.913  1.00  0.00    -0.274 OA
HETATM   23  H   UNL     1     -44.092  60.517 -51.708  1.00  0.00     0.169 HD
ENDBRANCH  16  19
ENDBRANCH   7  13
BRANCH  11  24
HETATM   24  N   UNL     1     -43.268  59.381 -60.116  1.00  0.00    -0.282 NA
HETATM   25  H   UNL     1     -43.757  59.021 -60.932  1.00  0.00     0.126 HD
HETATM   26  H   UNL     1     -42.426  59.902 -60.349  1.00  0.00     0.126 HD
ENDBRANCH  11  24
BRANCH   1  27
HETATM   27  C   UNL     1     -42.487  54.704 -55.309  1.00  0.00    -0.005 A 
HETATM   28  C   UNL     1     -41.137  54.425 -55.075  1.00  0.00     0.014 A 
HETATM   29  C   UNL     1     -40.676  54.195 -53.774  1.00  0.00     0.008 A 
HETATM   30  C   UNL     1     -41.554  54.232 -52.684  1.00  0.00    -0.058 A 
HETATM   31  C   UNL     1     -42.920  54.441 -52.941  1.00  0.00     0.008 A 
HETATM   32  C   UNL     1     -43.383  54.677 -54.238  1.00  0.00     0.014 A 
BRANCH  30  33
HETATM   33  C   UNL     1     -41.123  54.061 -51.240  1.00  0.00     0.042 C 
BRANCH  33  34
HETATM   34  C   UNL     1     -41.582  55.124 -50.217  1.00  0.00    -0.019 C 
HETATM   35  C   UNL     1     -41.059  56.518 -50.579  1.00  0.00     0.010 C 
HETATM   36  C   UNL     1     -41.086  54.754 -48.814  1.00  0.00     0.010 C 
ENDBRANCH  33  34
ENDBRANCH  30  33
ENDBRANCH   1  27
TORSDOF 6
ENDMDL
MODEL 3
REMARK VINA RESULT:      -8.1      2.181      5.678
REMARK  6 active torsions:
REMARK  status: ('A' for Active; 'I' for Inactive)
REMARK    1  A    between atoms: C_2  and  C_3 
REMARK    2  A    between atoms: C_3  and  C_4 
REMARK    3  A    between atoms: C_7  and  C_8 
REMARK    4  A    between atoms: C_14  and  C_15 
REMARK    5  A    between atoms: C_18  and  N_19 
REMARK       I    between atoms: N_19  and  C_20 
REMARK    6  A    between atoms: C_28  and  N_29 
ROOT
HETATM    1  C   UNL     1     -43.907  58.357 -54.550  1.00  0.00     0.099 A 
HETATM    2  N   UNL     1     -45.187  58.701 -54.317  1.00  0.00    -0.172 NA
HETATM    3  N   UNL     1     -45.171  59.259 -53.090  1.00  0.00    -0.256 N 
HETATM    4  H   UNL     1     -46.039  59.610 -52.700  1.00  0.00     0.191 HD
HETATM    5  C   UNL     1     -43.940  59.245 -52.521  1.00  0.00     0.175 A 
HETATM    6  C   UNL     1     -43.088  58.678 -53.431  1.00  0.00     0.040 A 
HETATM    7  C   UNL     1     -41.645  58.502 -53.089  1.00  0.00     0.106 A 
HETATM    8  C   UNL     1     -41.363  59.018 -51.678  1.00  0.00     0.081 A 
HETATM    9  C   UNL     1     -40.009  58.957 -51.235  1.00  0.00     0.100 C 
HETATM   10  N   UNL     1     -38.911  58.909 -50.863  1.00  0.00    -0.191 NA
HETATM   11  C   UNL     1     -42.323  59.570 -50.884  1.00  0.00     0.140 A 
HETATM   12  O   UNL     1     -43.661  59.687 -51.302  1.00  0.00    -0.279 OA
ENDROOT
BRANCH   7  13
HETATM   13  C   UNL     1     -41.340  57.023 -53.283  1.00  0.00    -0.044 A 
HETATM   14  C   UNL     1     -40.454  56.635 -54.301  1.00  0.00     0.010 A 
HETATM   15  C   UNL     1     -40.245  55.285 -54.604  1.00  0.00     0.030 A 
HETATM   16  C   UNL     1     -40.899  54.290 -53.881  1.00  0.00     0.034 A 
HETATM   17  C   UNL     1     -41.725  54.665 -52.815  1.00  0.00     0.030 A 
HETATM   18  C   UNL     1     -41.942  56.015 -52.515  1.00  0.00     0.010 A 
BRANCH  16  19
HETATM   19  N   UNL     1     -40.804  52.915 -54.175  1.00  0.00    -0.328 N 
HETATM   20  C   UNL     1     -40.077  51.957 -53.491  1.00  0.00     0.218 C 
HETATM   21  C   UNL     1     -40.160  50.604 -54.153  1.00  0.00     0.117 C 
HETATM   22  O   UNL     1     -39.428  52.111 -52.462  1.00  0.00    -0.274 OA
HETATM   23  H   UNL     1     -41.281  52.609 -55.014  1.00  0.00     0.169 HD
ENDBRANCH  16  19
ENDBRANCH   7  13
BRANCH  11  24
HETATM   24  N   UNL     1     -42.119  60.076 -49.620  1.00  0.00    -0.282 NA
HETATM   25  H   UNL     1     -42.604  59.595 -48.867  1.00  0.00     0.126 HD
HETATM   26  H   UNL     1     -42.225  61.087 -49.586  1.00  0.00     0.126 HD
ENDBRANCH  11  24
BRANCH   1  27
HETATM   27  C   UNL     1     -43.512  57.668 -55.772  1.00  0.00    -0.005 A 
HETATM   28  C   UNL     1     -43.601  56.276 -55.872  1.00  0.00     0.014 A 
HETATM   29  C   UNL     1     -43.381  55.637 -57.097  1.00  0.00     0.008 A 
HETATM   30  C   UNL     1     -43.061  56.375 -58.244  1.00  0.00    -0.058 A 
HETATM   31  C   UNL     1     -42.902  57.765 -58.114  1.00  0.00     0.008 A 
HETATM   32  C   UNL     1     -43.128  58.407 -56.894  1.00  0.00     0.014 A 
BRANCH  30  33
HETATM   33  C   UNL     1     -42.874  55.766 -59.620  1.00  0.00     0.042 C 
BRANCH  33  34
HETATM   34  C   UNL     1     -44.137  55.326 -60.394  1.00  0.00    -0.019 C 
HETATM   35  C   UNL     1     -45.211  56.419 -60.387  1.00  0.00     0.010 C 
HETATM   36  C   UNL     1     -44.721  54.052 -59.771  1.00  0.00     0.010 C 
ENDBRANCH  33  34
ENDBRANCH  30  33
ENDBRANCH   1  27
TORSDOF 6
ENDMDL
MODEL 4
REMARK VINA RESULT:      -8.0      3.253      6.985
REMARK  6 active torsions:
REMARK  status: ('A' for Active; 'I' for Inactive)
REMARK    1  A    between atoms: C_2  and  C_3 
REMARK    2  A    between atoms: C_3  and  C_4 
REMARK    3  A    between atoms: C_7  and  C_8 
REMARK    4  A    between atoms: C_14  and  C_15 
REMARK    5  A    between atoms: C_18  and  N_19 
REMARK       I    between atoms: N_19  and  C_20 
REMARK    6  A    between atoms: C_28  and  N_29 
ROOT
HETATM    1  C   UNL     1     -40.944  55.303 -49.725  1.00  0.00     0.099 A 
HETATM    2  N   UNL     1     -41.235  55.075 -48.431  1.00  0.00    -0.172 NA
HETATM    3  N   UNL     1     -41.003  53.759 -48.258  1.00  0.00    -0.256 N 
HETATM    4  H   UNL     1     -41.147  53.353 -47.340  1.00  0.00     0.191 HD
HETATM    5  C   UNL     1     -40.613  53.138 -49.399  1.00  0.00     0.175 A 
HETATM    6  C   UNL     1     -40.553  54.098 -50.373  1.00  0.00     0.040 A 
HETATM    7  C   UNL     1     -40.168  53.721 -51.766  1.00  0.00     0.106 A 
HETATM    8  C   UNL     1     -39.899  52.219 -51.859  1.00  0.00     0.081 A 
HETATM    9  C   UNL     1     -39.471  51.723 -53.125  1.00  0.00     0.100 C 
HETATM   10  N   UNL     1     -39.127  51.310 -54.153  1.00  0.00    -0.191 NA
HETATM   11  C   UNL     1     -39.992  51.381 -50.788  1.00  0.00     0.140 A 
HETATM   12  O   UNL     1     -40.368  51.839 -49.512  1.00  0.00    -0.279 OA
ENDROOT
BRANCH   7  13
HETATM   13  C   UNL     1     -41.297  54.207 -52.665  1.00  0.00    -0.044 A 
HETATM   14  C   UNL     1     -40.990  55.009 -53.776  1.00  0.00     0.010 A 
HETATM   15  C   UNL     1     -41.999  55.587 -54.553  1.00  0.00     0.030 A 
HETATM   16  C   UNL     1     -43.339  55.359 -54.253  1.00  0.00     0.034 A 
HETATM   17  C   UNL     1     -43.655  54.499 -53.194  1.00  0.00     0.030 A 
HETATM   18  C   UNL     1     -42.647  53.925 -52.409  1.00  0.00     0.010 A 
BRANCH  16  19
HETATM   19  N   UNL     1     -44.413  55.967 -54.935  1.00  0.00    -0.328 N 
HETATM   20  C   UNL     1     -44.686  57.320 -55.035  1.00  0.00     0.218 C 
HETATM   21  C   UNL     1     -45.970  57.583 -55.782  1.00  0.00     0.117 C 
HETATM   22  O   UNL     1     -44.012  58.249 -54.604  1.00  0.00    -0.274 OA
HETATM   23  H   UNL     1     -45.086  55.336 -55.351  1.00  0.00     0.169 HD
ENDBRANCH  16  19
ENDBRANCH   7  13
BRANCH  11  24
HETATM   24  N   UNL     1     -39.733  50.029 -50.808  1.00  0.00    -0.282 NA
HETATM   25  H   UNL     1     -39.269  49.654 -49.984  1.00  0.00     0.126 HD
HETATM   26  H   UNL     1     -39.306  49.730 -51.682  1.00  0.00     0.126 HD
ENDBRANCH  11  24
BRANCH   1  27
HETATM   27  C   UNL     1     -41.118  56.620 -50.326  1.00  0.00    -0.005 A 
HETATM   28  C   UNL     1     -40.018  57.448 -50.570  1.00  0.00     0.014 A 
HETATM   29  C   UNL     1     -40.169  58.634 -51.295  1.00  0.00     0.008 A 
HETATM   30  C   UNL     1     -41.423  59.021 -51.786  1.00  0.00    -0.058 A 
HETATM   31  C   UNL     1     -42.533  58.217 -51.471  1.00  0.00     0.008 A 
HETATM   32  C   UNL     1     -42.383  57.029 -50.752  1.00  0.00     0.014 A 
BRANCH  30  33
HETATM   33  C   UNL     1     -41.659  60.254 -52.636  1.00  0.00     0.042 C 
BRANCH  33  34
HETATM   34  C   UNL     1     -42.987  61.020 -52.444  1.00  0.00    -0.019 C 
HETATM   35  C   UNL     1     -43.206  62.055 -53.553  1.00  0.00     0.010 C 
HETATM   36  C   UNL     1     -42.993  61.736 -51.088  1.00  0.00     0.010 C 
ENDBRANCH  33  34
ENDBRANCH  30  33
ENDBRANCH   1  27
TORSDOF 6
ENDMDL
MODEL 5
REMARK VINA RESULT:      -7.6      2.091      6.126
REMARK  6 active torsions:
REMARK  status: ('A' for Active; 'I' for Inactive)
REMARK    1  A    between atoms: C_2  and  C_3 
REMARK    2  A    between atoms: C_3  and  C_4 
REMARK    3  A    between atoms: C_7  and  C_8 
REMARK    4  A    between atoms: C_14  and  C_15 
REMARK    5  A    between atoms: C_18  and  N_19 
REMARK       I    between atoms: N_19  and  C_20 
REMARK    6  A    between atoms: C_28  and  N_29 
ROOT
HETATM    1  C   UNL     1     -42.880  55.387 -56.881  1.00  0.00     0.099 A 
HETATM    2  N   UNL     1     -43.725  54.620 -57.596  1.00  0.00    -0.172 NA
HETATM    3  N   UNL     1     -44.149  55.420 -58.594  1.00  0.00    -0.256 N 
HETATM    4  H   UNL     1     -44.797  55.049 -59.278  1.00  0.00     0.191 HD
HETATM    5  C   UNL     1     -43.637  56.674 -58.516  1.00  0.00     0.175 A 
HETATM    6  C   UNL     1     -42.805  56.698 -57.429  1.00  0.00     0.040 A 
HETATM    7  C   UNL     1     -42.097  57.960 -57.062  1.00  0.00     0.106 A 
HETATM    8  C   UNL     1     -42.463  59.082 -58.035  1.00  0.00     0.081 A 
HETATM    9  C   UNL     1     -41.818  60.337 -57.833  1.00  0.00     0.100 C 
HETATM   10  N   UNL     1     -41.303  61.364 -57.676  1.00  0.00    -0.191 NA
HETATM   11  C   UNL     1     -43.309  58.903 -59.088  1.00  0.00     0.140 A 
HETATM   12  O   UNL     1     -43.931  57.668 -59.345  1.00  0.00    -0.279 OA
ENDROOT
BRANCH   7  13
HETATM   13  C   UNL     1     -42.465  58.249 -55.613  1.00  0.00    -0.044 A 
HETATM   14  C   UNL     1     -43.797  58.561 -55.295  1.00  0.00     0.010 A 
HETATM   15  C   UNL     1     -44.158  58.961 -54.004  1.00  0.00     0.030 A 
HETATM   16  C   UNL     1     -43.201  59.037 -52.995  1.00  0.00     0.034 A 
HETATM   17  C   UNL     1     -41.886  58.655 -53.284  1.00  0.00     0.030 A 
HETATM   18  C   UNL     1     -41.520  58.262 -54.577  1.00  0.00     0.010 A 
BRANCH  16  19
HETATM   19  N   UNL     1     -43.467  59.508 -51.693  1.00  0.00    -0.328 N 
HETATM   20  C   UNL     1     -43.497  60.823 -51.264  1.00  0.00     0.218 C 
HETATM   21  C   UNL     1     -43.739  60.928 -49.779  1.00  0.00     0.117 C 
HETATM   22  O   UNL     1     -43.361  61.832 -51.948  1.00  0.00    -0.274 OA
HETATM   23  H   UNL     1     -43.597  58.796 -50.985  1.00  0.00     0.169 HD
ENDBRANCH  16  19
ENDBRANCH   7  13
BRANCH  11  24
HETATM   24  N   UNL     1     -43.650  59.868 -60.009  1.00  0.00    -0.282 NA
HETATM   25  H   UNL     1     -42.874  60.358 -60.446  1.00  0.00     0.126 HD
HETATM   26  H   UNL     1     -44.377  60.490 -59.665  1.00  0.00     0.126 HD
ENDBRANCH  11  24
BRANCH   1  27
HETATM   27  C   UNL     1     -42.239  54.891 -55.669  1.00  0.00    -0.005 A 
HETATM   28  C   UNL     1     -43.000  54.521 -54.556  1.00  0.00     0.014 A 
HETATM   29  C   UNL     1     -42.396  53.892 -53.462  1.00  0.00     0.008 A 
HETATM   30  C   UNL     1     -41.021  53.627 -53.455  1.00  0.00    -0.058 A 
HETATM   31  C   UNL     1     -40.256  54.069 -54.548  1.00  0.00     0.008 A 
HETATM   32  C   UNL     1     -40.857  54.692 -55.645  1.00  0.00     0.014 A 
BRANCH  30  33
HETATM   33  C   UNL     1     -40.304  52.890 -52.340  1.00  0.00     0.042 C 
BRANCH  33  34
HETATM   34  C   UNL     1     -40.229  51.349 -52.423  1.00  0.00    -0.019 C 
HETATM   35  C   UNL     1     -39.531  50.752 -51.196  1.00  0.00     0.010 C 
HETATM   36  C   UNL     1     -39.468  50.925 -53.685  1.00  0.00     0.010 C 
ENDBRANCH  33  34
ENDBRANCH  30  33
ENDBRANCH   1  27
TORSDOF 6
ENDMDL
MODEL 6
REMARK VINA RESULT:      -7.5      3.016      7.448
REMARK  6 active torsions:
REMARK  status: ('A' for Active; 'I' for Inactive)
REMARK    1  A    between atoms: C_2  and  C_3 
REMARK    2  A    between atoms: C_3  and  C_4 
REMARK    3  A    between atoms: C_7  and  C_8 
REMARK    4  A    between atoms: C_14  and  C_15 
REMARK    5  A    between atoms: C_18  and  N_19 
REMARK       I    between atoms: N_19  and  C_20 
REMARK    6  A    between atoms: C_28  and  N_29 
ROOT
HETATM    1  C   UNL     1     -42.741  59.331 -55.779  1.00  0.00     0.099 A 
HETATM    2  N   UNL     1     -41.946  60.369 -56.100  1.00  0.00    -0.172 NA
HETATM    3  N   UNL     1     -41.548  60.115 -57.362  1.00  0.00    -0.256 N 
HETATM    4  H   UNL     1     -40.939  60.778 -57.827  1.00  0.00     0.191 HD
HETATM    5  C   UNL     1     -42.029  58.939 -57.839  1.00  0.00     0.175 A 
HETATM    6  C   UNL     1     -42.812  58.400 -56.853  1.00  0.00     0.040 A 
HETATM    7  C   UNL     1     -43.475  57.080 -57.070  1.00  0.00     0.106 A 
HETATM    8  C   UNL     1     -43.128  56.526 -58.451  1.00  0.00     0.081 A 
HETATM    9  C   UNL     1     -43.735  55.288 -58.814  1.00  0.00     0.100 C 
HETATM   10  N   UNL     1     -44.221  54.279 -59.117  1.00  0.00    -0.191 NA
HETATM   11  C   UNL     1     -42.333  57.188 -59.337  1.00  0.00     0.140 A 
HETATM   12  O   UNL     1     -41.750  58.432 -59.033  1.00  0.00    -0.279 OA
ENDROOT
BRANCH   7  13
HETATM   13  C   UNL     1     -43.037  56.190 -55.914  1.00  0.00    -0.044 A 
HETATM   14  C   UNL     1     -43.979  55.817 -54.942  1.00  0.00     0.010 A 
HETATM   15  C   UNL     1     -43.597  55.113 -53.796  1.00  0.00     0.030 A 
HETATM   16  C   UNL     1     -42.268  54.745 -53.604  1.00  0.00     0.034 A 
HETATM   17  C   UNL     1     -41.335  55.045 -54.603  1.00  0.00     0.030 A 
HETATM   18  C   UNL     1     -41.713  55.758 -55.748  1.00  0.00     0.010 A 
BRANCH  16  19
HETATM   19  N   UNL     1     -41.789  54.106 -52.442  1.00  0.00    -0.328 N 
HETATM   20  C   UNL     1     -41.253  54.704 -51.314  1.00  0.00     0.218 C 
HETATM   21  C   UNL     1     -40.776  53.687 -50.308  1.00  0.00     0.117 C 
HETATM   22  O   UNL     1     -41.153  55.905 -51.086  1.00  0.00    -0.274 OA
HETATM   23  H   UNL     1     -41.788  53.094 -52.462  1.00  0.00     0.169 HD
ENDBRANCH  16  19
ENDBRANCH   7  13
BRANCH  11  24
HETATM   24  N   UNL     1     -42.011  56.751 -60.602  1.00  0.00    -0.282 NA
HETATM   25  H   UNL     1     -41.209  56.129 -60.666  1.00  0.00     0.126 HD
HETATM   26  H   UNL     1     -41.988  57.509 -61.280  1.00  0.00     0.126 HD
ENDBRANCH  11  24
BRANCH   1  27
HETATM   27  C   UNL     1     -43.339  59.208 -54.455  1.00  0.00    -0.005 A 
HETATM   28  C   UNL     1     -42.571  58.812 -53.356  1.00  0.00     0.014 A 
HETATM   29  C   UNL     1     -43.106  58.857 -52.064  1.00  0.00     0.008 A 
HETATM   30  C   UNL     1     -44.420  59.291 -51.846  1.00  0.00    -0.058 A 
HETATM   31  C   UNL     1     -45.205  59.616 -52.966  1.00  0.00     0.008 A 
HETATM   32  C   UNL     1     -44.671  59.578 -54.256  1.00  0.00     0.014 A 
BRANCH  30  33
HETATM   33  C   UNL     1     -45.050  59.433 -50.474  1.00  0.00     0.042 C 
BRANCH  33  34
HETATM   34  C   UNL     1     -45.188  60.854 -49.885  1.00  0.00    -0.019 C 
HETATM   35  C   UNL     1     -43.900  61.665 -50.062  1.00  0.00     0.010 C 
HETATM   36  C   UNL     1     -45.525  60.776 -48.390  1.00  0.00     0.010 C 
ENDBRANCH  33  34
ENDBRANCH  30  33
ENDBRANCH   1  27
TORSDOF 6
ENDMDL
MODEL 7
REMARK VINA RESULT:      -7.2      3.016      6.698
REMARK  6 active torsions:
REMARK  status: ('A' for Active; 'I' for Inactive)
REMARK    1  A    between atoms: C_2  and  C_3 
REMARK    2  A    between atoms: C_3  and  C_4 
REMARK    3  A    between atoms: C_7  and  C_8 
REMARK    4  A    between atoms: C_14  and  C_15 
REMARK    5  A    between atoms: C_18  and  N_19 
REMARK       I    between atoms: N_19  and  C_20 
REMARK    6  A    between atoms: C_28  and  N_29 
ROOT
HETATM    1  C   UNL     1     -41.671  55.847 -51.202  1.00  0.00     0.099 A 
HETATM    2  N   UNL     1     -42.303  55.868 -50.014  1.00  0.00    -0.172 NA
HETATM    3  N   UNL     1     -42.084  54.645 -49.492  1.00  0.00    -0.256 N 
HETATM    4  H   UNL     1     -42.465  54.428 -48.578  1.00  0.00     0.191 HD
HETATM    5  C   UNL     1     -41.373  53.839 -50.318  1.00  0.00     0.175 A 
HETATM    6  C   UNL     1     -41.076  54.576 -51.434  1.00  0.00     0.040 A 
HETATM    7  C   UNL     1     -40.306  53.954 -52.552  1.00  0.00     0.106 A 
HETATM    8  C   UNL     1     -39.972  52.498 -52.228  1.00  0.00     0.081 A 
HETATM    9  C   UNL     1     -39.193  51.791 -53.190  1.00  0.00     0.100 C 
HETATM   10  N   UNL     1     -38.563  51.207 -53.969  1.00  0.00    -0.191 NA
HETATM   11  C   UNL     1     -40.331  51.897 -51.058  1.00  0.00     0.140 A 
HETATM   12  O   UNL     1     -41.063  52.574 -50.065  1.00  0.00    -0.279 OA
ENDROOT
BRANCH   7  13
HETATM   13  C   UNL     1     -41.156  54.133 -53.803  1.00  0.00    -0.044 A 
HETATM   14  C   UNL     1     -40.575  54.700 -54.949  1.00  0.00     0.010 A 
HETATM   15  C   UNL     1     -41.346  55.006 -56.076  1.00  0.00     0.030 A 
HETATM   16  C   UNL     1     -42.711  54.731 -56.093  1.00  0.00     0.034 A 
HETATM   17  C   UNL     1     -43.283  54.096 -54.985  1.00  0.00     0.030 A 
HETATM   18  C   UNL     1     -42.516  53.796 -53.852  1.00  0.00     0.010 A 
BRANCH  16  19
HETATM   19  N   UNL     1     -43.570  55.081 -57.154  1.00  0.00    -0.328 N 
HETATM   20  C   UNL     1     -43.477  56.186 -57.982  1.00  0.00     0.218 C 
HETATM   21  C   UNL     1     -44.628  56.263 -58.954  1.00  0.00     0.117 C 
HETATM   22  O   UNL     1     -42.593  57.036 -57.991  1.00  0.00    -0.274 OA
HETATM   23  H   UNL     1     -44.375  54.482 -57.286  1.00  0.00     0.169 HD
ENDBRANCH  16  19
ENDBRANCH   7  13
BRANCH  11  24
HETATM   24  N   UNL     1     -40.032  50.602 -50.703  1.00  0.00    -0.282 NA
HETATM   25  H   UNL     1     -40.808  50.050 -50.346  1.00  0.00     0.126 HD
HETATM   26  H   UNL     1     -39.197  50.542 -50.125  1.00  0.00     0.126 HD
ENDBRANCH  11  24
BRANCH   1  27
HETATM   27  C   UNL     1     -41.714  56.987 -52.110  1.00  0.00    -0.005 A 
HETATM   28  C   UNL     1     -40.580  57.777 -52.324  1.00  0.00     0.014 A 
HETATM   29  C   UNL     1     -40.580  58.763 -53.316  1.00  0.00     0.008 A 
HETATM   30  C   UNL     1     -41.713  58.984 -54.110  1.00  0.00    -0.058 A 
HETATM   31  C   UNL     1     -42.869  58.234 -53.835  1.00  0.00     0.008 A 
HETATM   32  C   UNL     1     -42.871  57.244 -52.849  1.00  0.00     0.014 A 
BRANCH  30  33
HETATM   33  C   UNL     1     -41.770  59.984 -55.248  1.00  0.00     0.042 C 
BRANCH  33  34
HETATM   34  C   UNL     1     -43.006  60.907 -55.338  1.00  0.00    -0.019 C 
HETATM   35  C   UNL     1     -42.997  61.737 -56.626  1.00  0.00     0.010 C 
HETATM   36  C   UNL     1     -43.044  61.856 -54.134  1.00  0.00     0.010 C 
ENDBRANCH  33  34
ENDBRANCH  30  33
ENDBRANCH   1  27
TORSDOF 6
ENDMDL
MODEL 8
REMARK VINA RESULT:      -7.1      3.291      7.260
REMARK  6 active torsions:
REMARK  status: ('A' for Active; 'I' for Inactive)
REMARK    1  A    between atoms: C_2  and  C_3 
REMARK    2  A    between atoms: C_3  and  C_4 
REMARK    3  A    between atoms: C_7  and  C_8 
REMARK    4  A    between atoms: C_14  and  C_15 
REMARK    5  A    between atoms: C_18  and  N_19 
REMARK       I    between atoms: N_19  and  C_20 
REMARK    6  A    between atoms: C_28  and  N_29 
ROOT
HETATM    1  C   UNL     1     -42.781  56.349 -54.818  1.00  0.00     0.099 A 
HETATM    2  N   UNL     1     -43.142  55.057 -54.702  1.00  0.00    -0.172 NA
HETATM    3  N   UNL     1     -43.250  54.619 -55.971  1.00  0.00    -0.256 N 
HETATM    4  H   UNL     1     -43.507  53.652 -56.136  1.00  0.00     0.191 HD
HETATM    5  C   UNL     1     -43.009  55.591 -56.886  1.00  0.00     0.175 A 
HETATM    6  C   UNL     1     -42.694  56.725 -56.187  1.00  0.00     0.040 A 
HETATM    7  C   UNL     1     -42.392  57.990 -56.921  1.00  0.00     0.106 A 
HETATM    8  C   UNL     1     -42.505  57.775 -58.430  1.00  0.00     0.081 A 
HETATM    9  C   UNL     1     -42.194  58.891 -59.260  1.00  0.00     0.100 C 
HETATM   10  N   UNL     1     -41.947  59.795 -59.944  1.00  0.00    -0.191 NA
HETATM   11  C   UNL     1     -42.823  56.572 -58.985  1.00  0.00     0.140 A 
HETATM   12  O   UNL     1     -43.095  55.436 -58.201  1.00  0.00    -0.279 OA
ENDROOT
BRANCH   7  13
HETATM   13  C   UNL     1     -43.347  59.040 -56.369  1.00  0.00    -0.044 A 
HETATM   14  C   UNL     1     -42.830  60.116 -55.630  1.00  0.00     0.010 A 
HETATM   15  C   UNL     1     -43.675  61.030 -54.993  1.00  0.00     0.030 A 
HETATM   16  C   UNL     1     -45.058  60.905 -55.097  1.00  0.00     0.034 A 
HETATM   17  C   UNL     1     -45.582  59.880 -55.894  1.00  0.00     0.030 A 
HETATM   18  C   UNL     1     -44.739  58.958 -56.526  1.00  0.00     0.010 A 
BRANCH  16  19
HETATM   19  N   UNL     1     -45.976  61.734 -54.422  1.00  0.00    -0.328 N 
HETATM   20  C   UNL     1     -46.586  61.494 -53.203  1.00  0.00     0.218 C 
HETATM   21  C   UNL     1     -47.570  62.578 -52.841  1.00  0.00     0.117 C 
HETATM   22  O   UNL     1     -46.395  60.546 -52.449  1.00  0.00    -0.274 OA
HETATM   23  H   UNL     1     -46.258  62.572 -54.914  1.00  0.00     0.169 HD
ENDBRANCH  16  19
ENDBRANCH   7  13
BRANCH  11  24
HETATM   24  N   UNL     1     -42.911  56.314 -60.335  1.00  0.00    -0.282 NA
HETATM   25  H   UNL     1     -42.038  56.071 -60.797  1.00  0.00     0.126 HD
HETATM   26  H   UNL     1     -43.445  57.025 -60.830  1.00  0.00     0.126 HD
ENDBRANCH  11  24
BRANCH   1  27
HETATM   27  C   UNL     1     -42.609  57.201 -53.648  1.00  0.00    -0.005 A 
HETATM   28  C   UNL     1     -41.343  57.666 -53.279  1.00  0.00     0.014 A 
HETATM   29  C   UNL     1     -41.205  58.615 -52.260  1.00  0.00     0.008 A 
HETATM   30  C   UNL     1     -42.327  59.112 -51.585  1.00  0.00    -0.058 A 
HETATM   31  C   UNL     1     -43.587  58.583 -51.915  1.00  0.00     0.008 A 
HETATM   32  C   UNL     1     -43.728  57.640 -52.937  1.00  0.00     0.014 A 
BRANCH  30  33
HETATM   33  C   UNL     1     -42.268  60.188 -50.519  1.00  0.00     0.042 C 
BRANCH  33  34
HETATM   34  C   UNL     1     -43.355  61.286 -50.539  1.00  0.00    -0.019 C 
HETATM   35  C   UNL     1     -42.739  62.689 -50.529  1.00  0.00     0.010 C 
HETATM   36  C   UNL     1     -44.276  61.140 -49.321  1.00  0.00     0.010 C 
ENDBRANCH  33  34
ENDBRANCH  30  33
ENDBRANCH   1  27
TORSDOF 6
ENDMDL
MODEL 9
REMARK VINA RESULT:      -7.1      3.009      5.785
REMARK  6 active torsions:
REMARK  status: ('A' for Active; 'I' for Inactive)
REMARK    1  A    between atoms: C_2  and  C_3 
REMARK    2  A    between atoms: C_3  and  C_4 
REMARK    3  A    between atoms: C_7  and  C_8 
REMARK    4  A    between atoms: C_14  and  C_15 
REMARK    5  A    between atoms: C_18  and  N_19 
REMARK       I    between atoms: N_19  and  C_20 
REMARK    6  A    between atoms: C_28  and  N_29 
ROOT
HETATM    1  C   UNL     1     -41.797  55.393 -55.366  1.00  0.00     0.099 A 
HETATM    2  N   UNL     1     -40.640  54.708 -55.300  1.00  0.00    -0.172 NA
HETATM    3  N   UNL     1     -40.401  54.571 -53.981  1.00  0.00    -0.256 N 
HETATM    4  H   UNL     1     -39.572  54.070 -53.683  1.00  0.00     0.191 HD
HETATM    5  C   UNL     1     -41.339  55.176 -53.210  1.00  0.00     0.175 A 
HETATM    6  C   UNL     1     -42.266  55.714 -54.061  1.00  0.00     0.040 A 
HETATM    7  C   UNL     1     -43.429  56.472 -53.510  1.00  0.00     0.106 A 
HETATM    8  C   UNL     1     -43.363  56.519 -51.984  1.00  0.00     0.081 A 
HETATM    9  C   UNL     1     -44.442  57.171 -51.317  1.00  0.00     0.100 C 
HETATM   10  N   UNL     1     -45.312  57.703 -50.766  1.00  0.00    -0.191 NA
HETATM   11  C   UNL     1     -42.371  55.921 -51.266  1.00  0.00     0.140 A 
HETATM   12  O   UNL     1     -41.313  55.231 -51.885  1.00  0.00    -0.279 OA
ENDROOT
BRANCH   7  13
HETATM   13  C   UNL     1     -43.398  57.841 -54.176  1.00  0.00    -0.044 A 
HETATM   14  C   UNL     1     -44.477  58.233 -54.986  1.00  0.00     0.010 A 
HETATM   15  C   UNL     1     -44.435  59.421 -55.722  1.00  0.00     0.030 A 
HETATM   16  C   UNL     1     -43.324  60.258 -55.650  1.00  0.00     0.034 A 
HETATM   17  C   UNL     1     -42.277  59.914 -54.787  1.00  0.00     0.030 A 
HETATM   18  C   UNL     1     -42.313  58.721 -54.055  1.00  0.00     0.010 A 
BRANCH  16  19
HETATM   19  N   UNL     1     -43.170  61.429 -56.420  1.00  0.00    -0.328 N 
HETATM   20  C   UNL     1     -42.170  61.708 -57.335  1.00  0.00     0.218 C 
HETATM   21  C   UNL     1     -42.297  63.100 -57.903  1.00  0.00     0.117 C 
HETATM   22  O   UNL     1     -41.265  60.964 -57.697  1.00  0.00    -0.274 OA
HETATM   23  H   UNL     1     -43.839  62.167 -56.238  1.00  0.00     0.169 HD
ENDBRANCH  16  19
ENDBRANCH   7  13
BRANCH  11  24
HETATM   24  N   UNL     1     -42.278  55.907 -49.892  1.00  0.00    -0.282 NA
HETATM   25  H   UNL     1     -42.544  56.768 -49.421  1.00  0.00     0.126 HD
HETATM   26  H   UNL     1     -41.391  55.528 -49.569  1.00  0.00     0.126 HD
ENDBRANCH  11  24
BRANCH   1  27
HETATM   27  C   UNL     1     -42.378  55.791 -56.643  1.00  0.00    -0.005 A 
HETATM   28  C   UNL     1     -43.291  54.964 -57.303  1.00  0.00     0.014 A 
HETATM   29  C   UNL     1     -43.969  55.421 -58.439  1.00  0.00     0.008 A 
HETATM   30  C   UNL     1     -43.743  56.709 -58.940  1.00  0.00    -0.058 A 
HETATM   31  C   UNL     1     -42.769  57.503 -58.311  1.00  0.00     0.008 A 
HETATM   32  C   UNL     1     -42.095  57.052 -57.173  1.00  0.00     0.014 A 
BRANCH  30  33
HETATM   33  C   UNL     1     -44.484  57.302 -60.122  1.00  0.00     0.042 C 
BRANCH  33  34
HETATM   34  C   UNL     1     -46.008  57.522 -59.984  1.00  0.00    -0.019 C 
HETATM   35  C   UNL     1     -46.395  57.896 -58.550  1.00  0.00     0.010 C 
HETATM   36  C   UNL     1     -46.763  56.250 -60.388  1.00  0.00     0.010 C 
ENDBRANCH  33  34
ENDBRANCH  30  33
ENDBRANCH   1  27
TORSDOF 6
ENDMDL
MODEL 10
REMARK VINA RESULT:      -7.0      2.127      5.624
REMARK  6 active torsions:
REMARK  status: ('A' for Active; 'I' for Inactive)
REMARK    1  A    between atoms: C_2  and  C_3 
REMARK    2  A    between atoms: C_3  and  C_4 
REMARK    3  A    between atoms: C_7  and  C_8 
REMARK    4  A    between atoms: C_14  and  C_15 
REMARK    5  A    between atoms: C_18  and  N_19 
REMARK       I    between atoms: N_19  and  C_20 
REMARK    6  A    between atoms: C_28  and  N_29 
ROOT
HETATM    1  C   UNL     1     -44.577  59.943 -54.469  1.00  0.00     0.099 A 
HETATM    2  N   UNL     1     -45.868  60.325 -54.446  1.00  0.00    -0.172 NA
HETATM    3  N   UNL     1     -46.100  60.662 -53.162  1.00  0.00    -0.256 N 
HETATM    4  H   UNL     1     -47.020  60.997 -52.902  1.00  0.00     0.191 HD
HETATM    5  C   UNL     1     -45.019  60.472 -52.365  1.00  0.00     0.175 A 
HETATM    6  C   UNL     1     -44.008  60.015 -53.167  1.00  0.00     0.040 A 
HETATM    7  C   UNL     1     -42.677  59.690 -52.573  1.00  0.00     0.106 A 
HETATM    8  C   UNL     1     -42.689  59.937 -51.064  1.00  0.00     0.081 A 
HETATM    9  C   UNL     1     -41.464  59.715 -50.371  1.00  0.00     0.100 C 
HETATM   10  N   UNL     1     -40.472  59.532 -49.796  1.00  0.00    -0.191 NA
HETATM   11  C   UNL     1     -43.781  60.408 -50.398  1.00  0.00     0.140 A 
HETATM   12  O   UNL     1     -44.995  60.681 -51.055  1.00  0.00    -0.279 OA
ENDROOT
BRANCH   7  13
HETATM   13  C   UNL     1     -42.378  58.249 -52.964  1.00  0.00    -0.044 A 
HETATM   14  C   UNL     1     -43.200  57.222 -52.476  1.00  0.00     0.010 A 
HETATM   15  C   UNL     1     -42.889  55.876 -52.699  1.00  0.00     0.030 A 
HETATM   16  C   UNL     1     -41.760  55.526 -53.435  1.00  0.00     0.034 A 
HETATM   17  C   UNL     1     -40.976  56.544 -53.991  1.00  0.00     0.030 A 
HETATM   18  C   UNL     1     -41.281  57.891 -53.762  1.00  0.00     0.010 A 
BRANCH  16  19
HETATM   19  N   UNL     1     -41.333  54.197 -53.636  1.00  0.00    -0.328 N 
HETATM   20  C   UNL     1     -40.598  53.410 -52.766  1.00  0.00     0.218 C 
HETATM   21  C   UNL     1     -40.265  52.067 -53.366  1.00  0.00     0.117 C 
HETATM   22  O   UNL     1     -40.234  53.696 -51.631  1.00  0.00    -0.274 OA
HETATM   23  H   UNL     1     -41.545  53.798 -54.541  1.00  0.00     0.169 HD
ENDBRANCH  16  19
ENDBRANCH   7  13
BRANCH  11  24
HETATM   24  N   UNL     1     -43.839  60.675 -49.049  1.00  0.00    -0.282 NA
HETATM   25  H   UNL     1     -44.361  61.506 -48.784  1.00  0.00     0.126 HD
HETATM   26  H   UNL     1     -42.926  60.614 -48.604  1.00  0.00     0.126 HD
ENDBRANCH  11  24
BRANCH   1  27
HETATM   27  C   UNL     1     -43.949  59.449 -55.688  1.00  0.00    -0.005 A 
HETATM   28  C   UNL     1     -42.958  60.193 -56.335  1.00  0.00     0.014 A 
HETATM   29  C   UNL     1     -42.243  59.643 -57.405  1.00  0.00     0.008 A 
HETATM   30  C   UNL     1     -42.508  58.343 -57.853  1.00  0.00    -0.058 A 
HETATM   31  C   UNL     1     -43.557  57.634 -57.242  1.00  0.00     0.008 A 
HETATM   32  C   UNL     1     -44.268  58.178 -56.170  1.00  0.00     0.014 A 
BRANCH  30  33
HETATM   33  C   UNL     1     -41.735  57.652 -58.959  1.00  0.00     0.042 C 
BRANCH  33  34
HETATM   34  C   UNL     1     -42.417  57.509 -60.338  1.00  0.00    -0.019 C 
HETATM   35  C   UNL     1     -43.217  58.764 -60.704  1.00  0.00     0.010 C 
HETATM   36  C   UNL     1     -43.360  56.300 -60.338  1.00  0.00     0.010 C 
ENDBRANCH  33  34
ENDBRANCH  30  33
ENDBRANCH   1  27
TORSDOF 6
ENDMDL
