MODEL 1
REMARK VINA RESULT:      -7.3      0.000      0.000
REMARK  5 active torsions:
REMARK  status: ('A' for Active; 'I' for Inactive)
REMARK    1  A    between atoms: C_8  and  C_9 
REMARK    2  A    between atoms: C_11  and  O_12 
REMARK    3  A    between atoms: C_14  and  O_15 
REMARK    4  A    between atoms: C_18  and  C_19 
REMARK    5  A    between atoms: C_22  and  O_23 
ROOT
HETATM    1  C   UNL     1     -39.622  51.912 -54.711  1.00  0.00     0.070 C 
HETATM    2  C   UNL     1     -39.871  51.841 -53.253  1.00  0.00     0.033 A 
HETATM    3  N   UNL     1     -39.729  50.666 -52.563  1.00  0.00    -0.282 N 
HETATM    4  H   UNL     1     -39.478  49.754 -52.927  1.00  0.00     0.189 HD
HETATM    5  N   UNL     1     -39.915  50.785 -51.240  1.00  0.00    -0.179 NA
HETATM    6  C   UNL     1     -40.201  52.080 -51.082  1.00  0.00     0.066 A 
HETATM    7  C   UNL     1     -40.248  52.784 -52.312  1.00  0.00     0.001 A 
HETATM    8  C   UNL     1     -40.512  54.259 -52.373  1.00  0.00     0.070 C 
HETATM    9  C   UNL     1     -41.103  54.826 -51.050  1.00  0.00     0.102 C 
HETATM   10  C   UNL     1     -40.399  54.240 -49.793  1.00  0.00     0.071 C 
HETATM   11  C   UNL     1     -40.972  54.808 -48.484  1.00  0.00     0.047 C 
HETATM   12  C   UNL     1     -40.424  52.687 -49.738  1.00  0.00     0.100 C 
ENDROOT
BRANCH   8  13
HETATM   13  C   UNL     1     -41.338  54.606 -53.605  1.00  0.00    -0.046 A 
HETATM   14  C   UNL     1     -41.169  55.794 -54.343  1.00  0.00     0.047 A 
HETATM   15  C   UNL     1     -41.940  56.039 -55.480  1.00  0.00     0.101 A 
HETATM   16  C   UNL     1     -42.826  55.064 -55.936  1.00  0.00     0.099 A 
HETATM   17  C   UNL     1     -43.000  53.877 -55.241  1.00  0.00     0.040 A 
HETATM   18  C   UNL     1     -42.266  53.654 -54.075  1.00  0.00     0.011 A 
BRANCH  15  19
HETATM   19  O   UNL     1     -41.854  57.185 -56.228  1.00  0.00    -0.353 OA
HETATM   20  C   UNL     1     -42.376  58.327 -55.545  1.00  0.00     0.210 C 
ENDBRANCH  15  19
BRANCH  16  21
HETATM   21  O   UNL     1     -43.548  55.266 -57.077  1.00  0.00    -0.358 OA
HETATM   22  H   UNL     1     -43.393  56.202 -57.313  1.00  0.00     0.218 HD
ENDBRANCH  16  21
ENDBRANCH   8  13
BRANCH   9  23
HETATM   23  C   UNL     1     -42.620  54.663 -50.957  1.00  0.00     0.131 C 
HETATM   24  C   UNL     1     -43.440  55.930 -50.930  1.00  0.00     0.091 C 
HETATM   25  O   UNL     1     -43.164  53.564 -50.864  1.00  0.00    -0.298 OA
ENDBRANCH   9  23
BRANCH  10  26
HETATM   26  O   UNL     1     -39.018  54.665 -49.842  1.00  0.00    -0.389 OA
HETATM   27  H   UNL     1     -38.486  53.975 -50.275  1.00  0.00     0.210 HD
ENDBRANCH  10  26
TORSDOF 5
ENDMDL
MODEL 2
REMARK VINA RESULT:      -7.0      3.760      5.842
REMARK  5 active torsions:
REMARK  status: ('A' for Active; 'I' for Inactive)
REMARK    1  A    between atoms: C_8  and  C_9 
REMARK    2  A    between atoms: C_11  and  O_12 
REMARK    3  A    between atoms: C_14  and  O_15 
REMARK    4  A    between atoms: C_18  and  C_19 
REMARK    5  A    between atoms: C_22  and  O_23 
ROOT
HETATM    1  C   UNL     1     -42.307  59.468 -55.503  1.00  0.00     0.070 C 
HETATM    2  C   UNL     1     -42.478  58.018 -55.752  1.00  0.00     0.033 A 
HETATM    3  N   UNL     1     -43.200  57.560 -56.823  1.00  0.00    -0.282 N 
HETATM    4  H   UNL     1     -43.695  58.103 -57.521  1.00  0.00     0.189 HD
HETATM    5  N   UNL     1     -43.196  56.226 -56.951  1.00  0.00    -0.179 NA
HETATM    6  C   UNL     1     -42.459  55.815 -55.917  1.00  0.00     0.066 A 
HETATM    7  C   UNL     1     -42.029  56.887 -55.093  1.00  0.00     0.001 A 
HETATM    8  C   UNL     1     -41.154  56.665 -53.895  1.00  0.00     0.070 C 
HETATM    9  C   UNL     1     -41.110  55.178 -53.441  1.00  0.00     0.102 C 
HETATM   10  C   UNL     1     -40.997  54.198 -54.645  1.00  0.00     0.071 C 
HETATM   11  C   UNL     1     -40.940  52.728 -54.200  1.00  0.00     0.047 C 
HETATM   12  C   UNL     1     -42.129  54.378 -55.694  1.00  0.00     0.100 C 
ENDROOT
BRANCH   8  13
HETATM   13  C   UNL     1     -41.522  57.631 -52.776  1.00  0.00    -0.046 A 
HETATM   14  C   UNL     1     -40.569  58.350 -52.027  1.00  0.00     0.047 A 
HETATM   15  C   UNL     1     -40.973  59.241 -51.032  1.00  0.00     0.101 A 
HETATM   16  C   UNL     1     -42.332  59.484 -50.835  1.00  0.00     0.099 A 
HETATM   17  C   UNL     1     -43.292  58.805 -51.569  1.00  0.00     0.040 A 
HETATM   18  C   UNL     1     -42.888  57.875 -52.529  1.00  0.00     0.011 A 
BRANCH  15  19
HETATM   19  O   UNL     1     -40.104  59.949 -50.242  1.00  0.00    -0.353 OA
HETATM   20  C   UNL     1     -38.739  59.600 -50.479  1.00  0.00     0.210 C 
ENDBRANCH  15  19
BRANCH  16  21
HETATM   21  O   UNL     1     -42.742  60.393 -49.903  1.00  0.00    -0.358 OA
HETATM   22  H   UNL     1     -42.022  61.052 -49.857  1.00  0.00     0.218 HD
ENDBRANCH  16  21
ENDBRANCH   8  13
BRANCH   9  23
HETATM   23  C   UNL     1     -42.276  54.797 -52.530  1.00  0.00     0.131 C 
HETATM   24  C   UNL     1     -41.946  54.510 -51.086  1.00  0.00     0.091 C 
HETATM   25  O   UNL     1     -43.429  54.684 -52.943  1.00  0.00    -0.298 OA
ENDBRANCH   9  23
BRANCH  10  26
HETATM   26  O   UNL     1     -39.734  54.468 -55.297  1.00  0.00    -0.389 OA
HETATM   27  H   UNL     1     -39.650  53.895 -56.079  1.00  0.00     0.210 HD
ENDBRANCH  10  26
TORSDOF 5
ENDMDL
MODEL 3
REMARK VINA RESULT:      -6.8      3.746      5.819
REMARK  5 active torsions:
REMARK  status: ('A' for Active; 'I' for Inactive)
REMARK    1  A    between atoms: C_8  and  C_9 
REMARK    2  A    between atoms: C_11  and  O_12 
REMARK    3  A    between atoms: C_14  and  O_15 
REMARK    4  A    between atoms: C_18  and  C_19 
REMARK    5  A    between atoms: C_22  and  O_23 
ROOT
HETATM    1  C   UNL     1     -42.373  59.480 -55.699  1.00  0.00     0.070 C 
HETATM    2  C   UNL     1     -42.506  58.019 -55.898  1.00  0.00     0.033 A 
HETATM    3  N   UNL     1     -43.192  57.506 -56.967  1.00  0.00    -0.282 N 
HETATM    4  H   UNL     1     -43.682  58.012 -57.697  1.00  0.00     0.189 HD
HETATM    5  N   UNL     1     -43.156  56.168 -57.046  1.00  0.00    -0.179 NA
HETATM    6  C   UNL     1     -42.435  55.812 -55.980  1.00  0.00     0.066 A 
HETATM    7  C   UNL     1     -42.049  56.923 -55.186  1.00  0.00     0.001 A 
HETATM    8  C   UNL     1     -41.199  56.766 -53.961  1.00  0.00     0.070 C 
HETATM    9  C   UNL     1     -41.133  55.297 -53.451  1.00  0.00     0.102 C 
HETATM   10  C   UNL     1     -40.970  54.277 -54.615  1.00  0.00     0.071 C 
HETATM   11  C   UNL     1     -40.892  52.826 -54.113  1.00  0.00     0.047 C 
HETATM   12  C   UNL     1     -42.080  54.392 -55.696  1.00  0.00     0.100 C 
ENDROOT
BRANCH   8  13
HETATM   13  C   UNL     1     -41.614  57.763 -52.887  1.00  0.00    -0.046 A 
HETATM   14  C   UNL     1     -42.955  58.003 -52.529  1.00  0.00     0.047 A 
HETATM   15  C   UNL     1     -43.268  58.911 -51.516  1.00  0.00     0.101 A 
HETATM   16  C   UNL     1     -42.241  59.522 -50.797  1.00  0.00     0.099 A 
HETATM   17  C   UNL     1     -40.912  59.291 -51.115  1.00  0.00     0.040 A 
HETATM   18  C   UNL     1     -40.601  58.423 -52.163  1.00  0.00     0.011 A 
BRANCH  15  19
HETATM   19  O   UNL     1     -44.549  59.220 -51.136  1.00  0.00    -0.353 OA
HETATM   20  C   UNL     1     -45.296  59.844 -52.182  1.00  0.00     0.210 C 
ENDBRANCH  15  19
BRANCH  16  21
HETATM   21  O   UNL     1     -42.530  60.371 -49.767  1.00  0.00    -0.358 OA
HETATM   22  H   UNL     1     -42.209  59.916 -48.965  1.00  0.00     0.218 HD
ENDBRANCH  16  21
ENDBRANCH   8  13
BRANCH   9  23
HETATM   23  C   UNL     1     -42.313  54.924 -52.554  1.00  0.00     0.131 C 
HETATM   24  C   UNL     1     -42.010  54.689 -51.094  1.00  0.00     0.091 C 
HETATM   25  O   UNL     1     -43.454  54.776 -52.988  1.00  0.00    -0.298 OA
ENDBRANCH   9  23
BRANCH  10  26
HETATM   26  O   UNL     1     -39.698  54.551 -55.246  1.00  0.00    -0.389 OA
HETATM   27  H   UNL     1     -39.728  55.432 -55.657  1.00  0.00     0.210 HD
ENDBRANCH  10  26
TORSDOF 5
ENDMDL
MODEL 4
REMARK VINA RESULT:      -6.7      3.495      5.563
REMARK  5 active torsions:
REMARK  status: ('A' for Active; 'I' for Inactive)
REMARK    1  A    between atoms: C_8  and  C_9 
REMARK    2  A    between atoms: C_11  and  O_12 
REMARK    3  A    between atoms: C_14  and  O_15 
REMARK    4  A    between atoms: C_18  and  C_19 
REMARK    5  A    between atoms: C_22  and  O_23 
ROOT
HETATM    1  C   UNL     1     -45.482  58.575 -55.594  1.00  0.00     0.070 C 
HETATM    2  C   UNL     1     -44.791  58.098 -54.373  1.00  0.00     0.033 A 
HETATM    3  N   UNL     1     -44.883  58.783 -53.190  1.00  0.00    -0.282 N 
HETATM    4  H   UNL     1     -45.376  59.650 -53.007  1.00  0.00     0.189 HD
HETATM    5  N   UNL     1     -44.265  58.182 -52.164  1.00  0.00    -0.179 NA
HETATM    6  C   UNL     1     -43.747  57.081 -52.714  1.00  0.00     0.066 A 
HETATM    7  C   UNL     1     -43.990  57.001 -54.109  1.00  0.00     0.001 A 
HETATM    8  C   UNL     1     -43.534  55.831 -54.929  1.00  0.00     0.070 C 
HETATM    9  C   UNL     1     -42.468  54.959 -54.204  1.00  0.00     0.102 C 
HETATM   10  C   UNL     1     -42.812  54.737 -52.702  1.00  0.00     0.071 C 
HETATM   11  C   UNL     1     -41.767  53.866 -51.986  1.00  0.00     0.047 C 
HETATM   12  C   UNL     1     -43.011  56.061 -51.913  1.00  0.00     0.100 C 
ENDROOT
BRANCH   8  13
HETATM   13  C   UNL     1     -43.106  56.282 -56.319  1.00  0.00    -0.046 A 
HETATM   14  C   UNL     1     -43.370  55.544 -57.489  1.00  0.00     0.047 A 
HETATM   15  C   UNL     1     -42.974  56.028 -58.737  1.00  0.00     0.101 A 
HETATM   16  C   UNL     1     -42.387  57.290 -58.833  1.00  0.00     0.099 A 
HETATM   17  C   UNL     1     -42.132  58.046 -57.701  1.00  0.00     0.040 A 
HETATM   18  C   UNL     1     -42.481  57.539 -56.447  1.00  0.00     0.011 A 
BRANCH  15  19
HETATM   19  O   UNL     1     -43.166  55.351 -59.914  1.00  0.00    -0.353 OA
HETATM   20  C   UNL     1     -44.426  54.679 -59.961  1.00  0.00     0.210 C 
ENDBRANCH  15  19
BRANCH  16  21
HETATM   21  O   UNL     1     -42.044  57.800 -60.053  1.00  0.00    -0.358 OA
HETATM   22  H   UNL     1     -41.396  58.505 -59.860  1.00  0.00     0.218 HD
ENDBRANCH  16  21
ENDBRANCH   8  13
BRANCH   9  23
HETATM   23  C   UNL     1     -41.047  55.496 -54.369  1.00  0.00     0.131 C 
HETATM   24  C   UNL     1     -40.068  54.615 -55.107  1.00  0.00     0.091 C 
HETATM   25  O   UNL     1     -40.685  56.571 -53.894  1.00  0.00    -0.298 OA
ENDBRANCH   9  23
BRANCH  10  26
HETATM   26  O   UNL     1     -44.052  53.995 -52.654  1.00  0.00    -0.389 OA
HETATM   27  H   UNL     1     -43.914  53.174 -52.151  1.00  0.00     0.210 HD
ENDBRANCH  10  26
TORSDOF 5
ENDMDL
MODEL 5
REMARK VINA RESULT:      -6.6      3.338      5.171
REMARK  5 active torsions:
REMARK  status: ('A' for Active; 'I' for Inactive)
REMARK    1  A    between atoms: C_8  and  C_9 
REMARK    2  A    between atoms: C_11  and  O_12 
REMARK    3  A    between atoms: C_14  and  O_15 
REMARK    4  A    between atoms: C_18  and  C_19 
REMARK    5  A    between atoms: C_22  and  O_23 
ROOT
HETATM    1  C   UNL     1     -45.216  58.690 -55.260  1.00  0.00     0.070 C 
HETATM    2  C   UNL     1     -44.425  58.183 -54.115  1.00  0.00     0.033 A 
HETATM    3  N   UNL     1     -44.295  58.913 -52.962  1.00  0.00    -0.282 N 
HETATM    4  H   UNL     1     -44.670  59.832 -52.759  1.00  0.00     0.189 HD
HETATM    5  N   UNL     1     -43.614  58.283 -51.994  1.00  0.00    -0.179 NA
HETATM    6  C   UNL     1     -43.284  57.117 -52.553  1.00  0.00     0.066 A 
HETATM    7  C   UNL     1     -43.711  57.017 -53.902  1.00  0.00     0.001 A 
HETATM    8  C   UNL     1     -43.485  55.778 -54.717  1.00  0.00     0.070 C 
HETATM    9  C   UNL     1     -42.428  54.823 -54.091  1.00  0.00     0.102 C 
HETATM   10  C   UNL     1     -42.596  54.688 -52.550  1.00  0.00     0.071 C 
HETATM   11  C   UNL     1     -41.561  53.736 -51.930  1.00  0.00     0.047 C 
HETATM   12  C   UNL     1     -42.558  56.051 -51.804  1.00  0.00     0.100 C 
ENDROOT
BRANCH   8  13
HETATM   13  C   UNL     1     -43.196  56.136 -56.169  1.00  0.00    -0.046 A 
HETATM   14  C   UNL     1     -42.537  57.318 -56.560  1.00  0.00     0.047 A 
HETATM   15  C   UNL     1     -42.277  57.573 -57.907  1.00  0.00     0.101 A 
HETATM   16  C   UNL     1     -42.598  56.612 -58.865  1.00  0.00     0.099 A 
HETATM   17  C   UNL     1     -43.230  55.432 -58.508  1.00  0.00     0.040 A 
HETATM   18  C   UNL     1     -43.537  55.200 -57.166  1.00  0.00     0.011 A 
BRANCH  15  19
HETATM   19  O   UNL     1     -41.671  58.715 -58.365  1.00  0.00    -0.353 OA
HETATM   20  C   UNL     1     -42.475  59.880 -58.170  1.00  0.00     0.210 C 
ENDBRANCH  15  19
BRANCH  16  21
HETATM   21  O   UNL     1     -42.301  56.824 -60.182  1.00  0.00    -0.358 OA
HETATM   22  H   UNL     1     -42.240  57.794 -60.275  1.00  0.00     0.218 HD
ENDBRANCH  16  21
ENDBRANCH   8  13
BRANCH   9  23
HETATM   23  C   UNL     1     -40.993  55.201 -54.457  1.00  0.00     0.131 C 
HETATM   24  C   UNL     1     -40.220  54.208 -55.291  1.00  0.00     0.091 C 
HETATM   25  O   UNL     1     -40.460  56.238 -54.065  1.00  0.00    -0.298 OA
ENDBRANCH   9  23
BRANCH  10  26
HETATM   26  O   UNL     1     -43.888  54.083 -52.314  1.00  0.00    -0.389 OA
HETATM   27  H   UNL     1     -44.427  54.154 -53.121  1.00  0.00     0.210 HD
ENDBRANCH  10  26
TORSDOF 5
ENDMDL
MODEL 6
REMARK VINA RESULT:      -6.6      3.069      5.893
REMARK  5 active torsions:
REMARK  status: ('A' for Active; 'I' for Inactive)
REMARK    1  A    between atoms: C_8  and  C_9 
REMARK    2  A    between atoms: C_11  and  O_12 
REMARK    3  A    between atoms: C_14  and  O_15 
REMARK    4  A    between atoms: C_18  and  C_19 
REMARK    5  A    between atoms: C_22  and  O_23 
ROOT
HETATM    1  C   UNL     1     -43.157  53.950 -55.468  1.00  0.00     0.070 C 
HETATM    2  C   UNL     1     -42.818  55.375 -55.682  1.00  0.00     0.033 A 
HETATM    3  N   UNL     1     -42.530  55.859 -56.931  1.00  0.00    -0.282 N 
HETATM    4  H   UNL     1     -42.489  55.348 -57.805  1.00  0.00     0.189 HD
HETATM    5  N   UNL     1     -42.320  57.183 -56.966  1.00  0.00    -0.179 NA
HETATM    6  C   UNL     1     -42.463  57.556 -55.692  1.00  0.00     0.066 A 
HETATM    7  C   UNL     1     -42.717  56.460 -54.828  1.00  0.00     0.001 A 
HETATM    8  C   UNL     1     -42.953  56.646 -53.358  1.00  0.00     0.070 C 
HETATM    9  C   UNL     1     -42.506  58.045 -52.844  1.00  0.00     0.102 C 
HETATM   10  C   UNL     1     -42.910  59.188 -53.820  1.00  0.00     0.071 C 
HETATM   11  C   UNL     1     -42.481  60.573 -53.309  1.00  0.00     0.047 C 
HETATM   12  C   UNL     1     -42.376  58.982 -55.265  1.00  0.00     0.100 C 
ENDROOT
BRANCH   8  13
HETATM   13  C   UNL     1     -42.355  55.490 -52.568  1.00  0.00    -0.046 A 
HETATM   14  C   UNL     1     -41.274  54.713 -53.028  1.00  0.00     0.047 A 
HETATM   15  C   UNL     1     -40.755  53.683 -52.241  1.00  0.00     0.101 A 
HETATM   16  C   UNL     1     -41.256  53.477 -50.957  1.00  0.00     0.099 A 
HETATM   17  C   UNL     1     -42.307  54.238 -50.470  1.00  0.00     0.040 A 
HETATM   18  C   UNL     1     -42.861  55.234 -51.277  1.00  0.00     0.011 A 
BRANCH  15  19
HETATM   19  O   UNL     1     -39.727  52.865 -52.636  1.00  0.00    -0.353 OA
HETATM   20  C   UNL     1     -40.061  52.078 -53.780  1.00  0.00     0.210 C 
ENDBRANCH  15  19
BRANCH  16  21
HETATM   21  O   UNL     1     -40.722  52.509 -50.154  1.00  0.00    -0.358 OA
HETATM   22  H   UNL     1     -40.973  51.664 -50.575  1.00  0.00     0.218 HD
ENDBRANCH  16  21
ENDBRANCH   8  13
BRANCH   9  23
HETATM   23  C   UNL     1     -41.017  58.109 -52.508  1.00  0.00     0.131 C 
HETATM   24  C   UNL     1     -40.654  58.275 -51.052  1.00  0.00     0.091 C 
HETATM   25  O   UNL     1     -40.141  58.073 -53.370  1.00  0.00    -0.298 OA
ENDBRANCH   9  23
BRANCH  10  26
HETATM   26  O   UNL     1     -44.355  59.211 -53.874  1.00  0.00    -0.389 OA
HETATM   27  H   UNL     1     -44.678  60.018 -53.437  1.00  0.00     0.210 HD
ENDBRANCH  10  26
TORSDOF 5
ENDMDL
MODEL 7
REMARK VINA RESULT:      -6.6     13.770     16.269
REMARK  5 active torsions:
REMARK  status: ('A' for Active; 'I' for Inactive)
REMARK    1  A    between atoms: C_8  and  C_9 
REMARK    2  A    between atoms: C_11  and  O_12 
REMARK    3  A    between atoms: C_14  and  O_15 
REMARK    4  A    between atoms: C_18  and  C_19 
REMARK    5  A    between atoms: C_22  and  O_23 
ROOT
HETATM    1  C   UNL     1     -36.495  41.979 -53.160  1.00  0.00     0.070 C 
HETATM    2  C   UNL     1     -35.175  41.447 -52.751  1.00  0.00     0.033 A 
HETATM    3  N   UNL     1     -34.521  41.935 -51.651  1.00  0.00    -0.282 N 
HETATM    4  H   UNL     1     -34.813  42.680 -51.029  1.00  0.00     0.189 HD
HETATM    5  N   UNL     1     -33.375  41.297 -51.372  1.00  0.00    -0.179 NA
HETATM    6  C   UNL     1     -33.286  40.379 -52.337  1.00  0.00     0.066 A 
HETATM    7  C   UNL     1     -34.353  40.461 -53.269  1.00  0.00     0.001 A 
HETATM    8  C   UNL     1     -34.481  39.503 -54.415  1.00  0.00     0.070 C 
HETATM    9  C   UNL     1     -33.170  38.713 -54.696  1.00  0.00     0.102 C 
HETATM   10  C   UNL     1     -32.481  38.230 -53.387  1.00  0.00     0.071 C 
HETATM   11  C   UNL     1     -31.192  37.439 -53.661  1.00  0.00     0.047 C 
HETATM   12  C   UNL     1     -32.178  39.382 -52.388  1.00  0.00     0.100 C 
ENDROOT
BRANCH   8  13
HETATM   13  C   UNL     1     -35.040  40.207 -55.644  1.00  0.00    -0.046 A 
HETATM   14  C   UNL     1     -36.048  39.659 -56.461  1.00  0.00     0.047 A 
HETATM   15  C   UNL     1     -36.538  40.369 -57.558  1.00  0.00     0.101 A 
HETATM   16  C   UNL     1     -36.084  41.665 -57.798  1.00  0.00     0.099 A 
HETATM   17  C   UNL     1     -35.106  42.238 -57.000  1.00  0.00     0.040 A 
HETATM   18  C   UNL     1     -34.580  41.508 -55.934  1.00  0.00     0.011 A 
BRANCH  15  19
HETATM   19  O   UNL     1     -37.492  39.886 -58.416  1.00  0.00    -0.353 OA
HETATM   20  C   UNL     1     -37.988  38.606 -58.021  1.00  0.00     0.210 C 
ENDBRANCH  15  19
BRANCH  16  21
HETATM   21  O   UNL     1     -36.593  42.394 -58.835  1.00  0.00    -0.358 OA
HETATM   22  H   UNL     1     -36.079  43.225 -58.838  1.00  0.00     0.218 HD
ENDBRANCH  16  21
ENDBRANCH   8  13
BRANCH   9  23
HETATM   23  C   UNL     1     -32.189  39.480 -55.582  1.00  0.00     0.131 C 
HETATM   24  C   UNL     1     -31.994  38.965 -56.987  1.00  0.00     0.091 C 
HETATM   25  O   UNL     1     -31.548  40.448 -55.177  1.00  0.00    -0.298 OA
ENDBRANCH   9  23
BRANCH  10  26
HETATM   26  O   UNL     1     -33.389  37.306 -52.744  1.00  0.00    -0.389 OA
HETATM   27  H   UNL     1     -32.874  36.632 -52.267  1.00  0.00     0.210 HD
ENDBRANCH  10  26
TORSDOF 5
ENDMDL
MODEL 8
REMARK VINA RESULT:      -6.4      2.851      5.564
REMARK  5 active torsions:
REMARK  status: ('A' for Active; 'I' for Inactive)
REMARK    1  A    between atoms: C_8  and  C_9 
REMARK    2  A    between atoms: C_11  and  O_12 
REMARK    3  A    between atoms: C_14  and  O_15 
REMARK    4  A    between atoms: C_18  and  C_19 
REMARK    5  A    between atoms: C_22  and  O_23 
ROOT
HETATM    1  C   UNL     1     -42.170  54.850 -50.106  1.00  0.00     0.070 C 
HETATM    2  C   UNL     1     -41.722  54.627 -51.500  1.00  0.00     0.033 A 
HETATM    3  N   UNL     1     -40.646  53.828 -51.782  1.00  0.00    -0.282 N 
HETATM    4  H   UNL     1     -40.043  53.338 -51.131  1.00  0.00     0.189 HD
HETATM    5  N   UNL     1     -40.417  53.666 -53.093  1.00  0.00    -0.179 NA
HETATM    6  C   UNL     1     -41.372  54.401 -53.669  1.00  0.00     0.066 A 
HETATM    7  C   UNL     1     -42.185  55.077 -52.724  1.00  0.00     0.001 A 
HETATM    8  C   UNL     1     -43.347  55.929 -53.142  1.00  0.00     0.070 C 
HETATM    9  C   UNL     1     -43.315  56.302 -54.652  1.00  0.00     0.102 C 
HETATM   10  C   UNL     1     -42.906  55.097 -55.548  1.00  0.00     0.071 C 
HETATM   11  C   UNL     1     -42.885  55.459 -57.042  1.00  0.00     0.047 C 
HETATM   12  C   UNL     1     -41.543  54.466 -55.149  1.00  0.00     0.100 C 
ENDROOT
BRANCH   8  13
HETATM   13  C   UNL     1     -43.488  57.134 -52.222  1.00  0.00    -0.046 A 
HETATM   14  C   UNL     1     -42.395  57.912 -51.790  1.00  0.00     0.047 A 
HETATM   15  C   UNL     1     -42.595  59.022 -50.968  1.00  0.00     0.101 A 
HETATM   16  C   UNL     1     -43.893  59.413 -50.641  1.00  0.00     0.099 A 
HETATM   17  C   UNL     1     -44.988  58.678 -51.067  1.00  0.00     0.040 A 
HETATM   18  C   UNL     1     -44.785  57.537 -51.846  1.00  0.00     0.011 A 
BRANCH  15  19
HETATM   19  O   UNL     1     -41.580  59.805 -50.482  1.00  0.00    -0.353 OA
HETATM   20  C   UNL     1     -40.291  59.355 -50.903  1.00  0.00     0.210 C 
ENDBRANCH  15  19
BRANCH  16  21
HETATM   21  O   UNL     1     -44.108  60.528 -49.883  1.00  0.00    -0.358 OA
HETATM   22  H   UNL     1     -45.032  60.453 -49.577  1.00  0.00     0.218 HD
ENDBRANCH  16  21
ENDBRANCH   8  13
BRANCH   9  23
HETATM   23  C   UNL     1     -42.446  57.524 -54.946  1.00  0.00     0.131 C 
HETATM   24  C   UNL     1     -43.152  58.750 -55.474  1.00  0.00     0.091 C 
HETATM   25  O   UNL     1     -41.224  57.518 -54.806  1.00  0.00    -0.298 OA
ENDBRANCH   9  23
BRANCH  10  26
HETATM   26  O   UNL     1     -43.930  54.087 -55.396  1.00  0.00    -0.389 OA
HETATM   27  H   UNL     1     -44.488  54.075 -56.192  1.00  0.00     0.210 HD
ENDBRANCH  10  26
TORSDOF 5
ENDMDL
MODEL 9
REMARK VINA RESULT:      -6.4      3.140      6.157
REMARK  5 active torsions:
REMARK  status: ('A' for Active; 'I' for Inactive)
REMARK    1  A    between atoms: C_8  and  C_9 
REMARK    2  A    between atoms: C_11  and  O_12 
REMARK    3  A    between atoms: C_14  and  O_15 
REMARK    4  A    between atoms: C_18  and  C_19 
REMARK    5  A    between atoms: C_22  and  O_23 
ROOT
HETATM    1  C   UNL     1     -40.636  56.901 -50.579  1.00  0.00     0.070 C 
HETATM    2  C   UNL     1     -41.654  57.655 -51.346  1.00  0.00     0.033 A 
HETATM    3  N   UNL     1     -42.564  58.463 -50.716  1.00  0.00    -0.282 N 
HETATM    4  H   UNL     1     -42.673  58.626 -49.722  1.00  0.00     0.189 HD
HETATM    5  N   UNL     1     -43.367  59.134 -51.555  1.00  0.00    -0.179 NA
HETATM    6  C   UNL     1     -42.966  58.729 -52.762  1.00  0.00     0.066 A 
HETATM    7  C   UNL     1     -41.936  57.756 -52.697  1.00  0.00     0.001 A 
HETATM    8  C   UNL     1     -41.303  57.186 -53.932  1.00  0.00     0.070 C 
HETATM    9  C   UNL     1     -42.133  57.456 -55.220  1.00  0.00     0.102 C 
HETATM   10  C   UNL     1     -42.695  58.906 -55.264  1.00  0.00     0.071 C 
HETATM   11  C   UNL     1     -43.505  59.181 -56.542  1.00  0.00     0.047 C 
HETATM   12  C   UNL     1     -43.551  59.275 -54.020  1.00  0.00     0.100 C 
ENDROOT
BRANCH   8  13
HETATM   13  C   UNL     1     -40.957  55.717 -53.729  1.00  0.00    -0.046 A 
HETATM   14  C   UNL     1     -41.388  54.965 -52.618  1.00  0.00     0.047 A 
HETATM   15  C   UNL     1     -41.059  53.613 -52.506  1.00  0.00     0.101 A 
HETATM   16  C   UNL     1     -40.372  52.982 -53.542  1.00  0.00     0.099 A 
HETATM   17  C   UNL     1     -39.952  53.692 -54.656  1.00  0.00     0.040 A 
HETATM   18  C   UNL     1     -40.235  55.057 -54.744  1.00  0.00     0.011 A 
BRANCH  15  19
HETATM   19  O   UNL     1     -41.414  52.827 -51.439  1.00  0.00    -0.353 OA
HETATM   20  C   UNL     1     -40.646  53.113 -50.269  1.00  0.00     0.210 C 
ENDBRANCH  15  19
BRANCH  16  21
HETATM   21  O   UNL     1     -40.090  51.648 -53.472  1.00  0.00    -0.358 OA
HETATM   22  H   UNL     1     -39.264  51.536 -53.980  1.00  0.00     0.218 HD
ENDBRANCH  16  21
ENDBRANCH   8  13
BRANCH   9  23
HETATM   23  C   UNL     1     -43.243  56.429 -55.440  1.00  0.00     0.131 C 
HETATM   24  C   UNL     1     -43.173  55.613 -56.708  1.00  0.00     0.091 C 
HETATM   25  O   UNL     1     -44.180  56.288 -54.657  1.00  0.00    -0.298 OA
ENDBRANCH   9  23
BRANCH  10  26
HETATM   26  O   UNL     1     -41.561  59.802 -55.311  1.00  0.00    -0.389 OA
HETATM   27  H   UNL     1     -40.796  59.330 -55.684  1.00  0.00     0.210 HD
ENDBRANCH  10  26
TORSDOF 5
ENDMDL
MODEL 10
REMARK VINA RESULT:      -6.1      3.040      5.785
REMARK  5 active torsions:
REMARK  status: ('A' for Active; 'I' for Inactive)
REMARK    1  A    between atoms: C_8  and  C_9 
REMARK    2  A    between atoms: C_11  and  O_12 
REMARK    3  A    between atoms: C_14  and  O_15 
REMARK    4  A    between atoms: C_18  and  C_19 
REMARK    5  A    between atoms: C_22  and  O_23 
ROOT
HETATM    1  C   UNL     1     -42.312  55.109 -50.181  1.00  0.00     0.070 C 
HETATM    2  C   UNL     1     -41.826  54.839 -51.554  1.00  0.00     0.033 A 
HETATM    3  N   UNL     1     -40.735  54.041 -51.777  1.00  0.00    -0.282 N 
HETATM    4  H   UNL     1     -40.145  53.582 -51.093  1.00  0.00     0.189 HD
HETATM    5  N   UNL     1     -40.471  53.833 -53.075  1.00  0.00    -0.179 NA
HETATM    6  C   UNL     1     -41.416  54.536 -53.703  1.00  0.00     0.066 A 
HETATM    7  C   UNL     1     -42.261  55.238 -52.805  1.00  0.00     0.001 A 
HETATM    8  C   UNL     1     -43.419  56.062 -53.285  1.00  0.00     0.070 C 
HETATM    9  C   UNL     1     -43.350  56.379 -54.807  1.00  0.00     0.102 C 
HETATM   10  C   UNL     1     -42.907  55.146 -55.646  1.00  0.00     0.071 C 
HETATM   11  C   UNL     1     -42.850  55.452 -57.151  1.00  0.00     0.047 C 
HETATM   12  C   UNL     1     -41.549  54.545 -55.188  1.00  0.00     0.100 C 
ENDROOT
BRANCH   8  13
HETATM   13  C   UNL     1     -43.595  57.299 -52.414  1.00  0.00    -0.046 A 
HETATM   14  C   UNL     1     -44.850  57.767 -51.976  1.00  0.00     0.047 A 
HETATM   15  C   UNL     1     -44.941  58.893 -51.156  1.00  0.00     0.101 A 
HETATM   16  C   UNL     1     -43.776  59.508 -50.699  1.00  0.00     0.099 A 
HETATM   17  C   UNL     1     -42.527  59.059 -51.098  1.00  0.00     0.040 A 
HETATM   18  C   UNL     1     -42.438  57.965 -51.961  1.00  0.00     0.011 A 
BRANCH  15  19
HETATM   19  O   UNL     1     -46.126  59.425 -50.719  1.00  0.00    -0.353 OA
HETATM   20  C   UNL     1     -46.696  60.340 -51.656  1.00  0.00     0.210 C 
ENDBRANCH  15  19
BRANCH  16  21
HETATM   21  O   UNL     1     -43.847  60.577 -49.852  1.00  0.00    -0.358 OA
HETATM   22  H   UNL     1     -43.310  61.274 -50.277  1.00  0.00     0.218 HD
ENDBRANCH  16  21
ENDBRANCH   8  13
BRANCH   9  23
HETATM   23  C   UNL     1     -42.485  57.599 -55.123  1.00  0.00     0.131 C 
HETATM   24  C   UNL     1     -43.191  58.802 -55.700  1.00  0.00     0.091 C 
HETATM   25  O   UNL     1     -41.266  57.606 -54.963  1.00  0.00    -0.298 OA
ENDBRANCH   9  23
BRANCH  10  26
HETATM   26  O   UNL     1     -43.925  54.132 -55.482  1.00  0.00    -0.389 OA
HETATM   27  H   UNL     1     -44.771  54.470 -55.824  1.00  0.00     0.210 HD
ENDBRANCH  10  26
TORSDOF 5
ENDMDL
