MODEL 1
REMARK VINA RESULT:      -9.6      0.000      0.000
REMARK  5 active torsions:
REMARK  status: ('A' for Active; 'I' for Inactive)
REMARK    1  A    between atoms: C_6  and  S_7 
REMARK    2  A    between atoms: S_7  and  C_8 
REMARK    3  A    between atoms: C_8  and  C_9 
REMARK       I    between atoms: C_9  and  N_10 
REMARK    4  A    between atoms: N_10  and  C_11 
REMARK    5  A    between atoms: N_22  and  C_23 
ROOT
HETATM    1  C   UNL     1     -39.575  49.782 -50.976  1.00  0.00     0.001 A 
HETATM    2  C   UNL     1     -40.032  51.046 -50.604  1.00  0.00     0.019 A 
HETATM    3  C   UNL     1     -40.261  52.019 -51.585  1.00  0.00     0.061 A 
HETATM    4  C   UNL     1     -40.031  51.744 -52.927  1.00  0.00     0.075 A 
HETATM    5  N   UNL     1     -40.182  52.713 -53.920  1.00  0.00    -0.223 NA
HETATM    6  C   UNL     1     -40.663  53.871 -53.594  1.00  0.00     0.177 A 
HETATM    7  N   UNL     1     -41.040  54.230 -52.298  1.00  0.00    -0.256 N 
HETATM    8  C   UNL     1     -40.793  53.348 -51.235  1.00  0.00     0.267 A 
HETATM    9  O   UNL     1     -41.025  53.572 -50.048  1.00  0.00    -0.267 OA
HETATM   10  C   UNL     1     -39.586  50.470 -53.292  1.00  0.00     0.032 A 
HETATM   11  C   UNL     1     -39.357  49.492 -52.321  1.00  0.00     0.002 A 
ENDROOT
BRANCH   6  12
HETATM   12  S   UNL     1     -40.677  55.087 -54.871  1.00  0.00    -0.082 SA
BRANCH  12  13
HETATM   13  C   UNL     1     -42.266  54.763 -55.691  1.00  0.00     0.185 C 
BRANCH  13  14
HETATM   14  C   UNL     1     -42.801  55.992 -56.417  1.00  0.00     0.231 C 
HETATM   15  N   UNL     1     -42.447  56.047 -57.751  1.00  0.00    -0.326 N 
HETATM   16  H   UNL     1     -41.796  55.325 -58.059  1.00  0.00     0.169 HD
HETATM   17  O   UNL     1     -43.519  56.799 -55.831  1.00  0.00    -0.272 OA
BRANCH  15  18
HETATM   18  C   UNL     1     -42.842  56.987 -58.723  1.00  0.00     0.037 A 
HETATM   19  C   UNL     1     -41.977  57.939 -59.277  1.00  0.00     0.061 A 
HETATM   20  C   UNL     1     -42.517  58.819 -60.188  1.00  0.00     0.065 A 
HETATM   21  C   UNL     1     -43.857  58.780 -60.564  1.00  0.00     0.063 A 
HETATM   22  N   UNL     1     -41.912  59.866 -60.876  1.00  0.00    -0.306 N 
HETATM   23  N   UNL     1     -44.077  59.799 -61.483  1.00  0.00    -0.307 N 
HETATM   24  C   UNL     1     -44.730  57.855 -60.053  1.00  0.00     0.034 A 
HETATM   25  C   UNL     1     -42.873  60.488 -61.686  1.00  0.00     0.325 A 
HETATM   26  H   UNL     1     -44.940  60.037 -61.942  1.00  0.00     0.170 HD
HETATM   27  O   UNL     1     -42.700  61.443 -62.422  1.00  0.00    -0.247 OA
HETATM   28  C   UNL     1     -44.207  56.952 -59.119  1.00  0.00     0.032 A 
HETATM   29  H   UNL     1     -40.949  60.154 -60.819  1.00  0.00     0.170 HD
ENDBRANCH  15  18
ENDBRANCH  13  14
ENDBRANCH  12  13
ENDBRANCH   6  12
BRANCH   7  30
HETATM   30  C   UNL     1     -41.736  55.450 -51.988  1.00  0.00     0.046 A 
HETATM   31  C   UNL     1     -41.046  56.552 -51.454  1.00  0.00     0.057 A 
HETATM   32  C   UNL     1     -41.731  57.720 -51.110  1.00  0.00     0.074 A 
HETATM   33 CL   UNL     1     -40.857  59.059 -50.472  1.00  0.00    -0.081 Cl
HETATM   34  C   UNL     1     -43.109  57.794 -51.284  1.00  0.00     0.138 A 
HETATM   35  F   UNL     1     -43.787  58.904 -50.955  1.00  0.00    -0.204 F 
HETATM   36  C   UNL     1     -43.814  56.710 -51.795  1.00  0.00     0.046 A 
HETATM   37  C   UNL     1     -43.131  55.540 -52.141  1.00  0.00     0.033 A 
ENDBRANCH   7  30
TORSDOF 5
ENDMDL
MODEL 2
REMARK VINA RESULT:      -9.4      3.727     10.509
REMARK  5 active torsions:
REMARK  status: ('A' for Active; 'I' for Inactive)
REMARK    1  A    between atoms: C_6  and  S_7 
REMARK    2  A    between atoms: S_7  and  C_8 
REMARK    3  A    between atoms: C_8  and  C_9 
REMARK       I    between atoms: C_9  and  N_10 
REMARK    4  A    between atoms: N_10  and  C_11 
REMARK    5  A    between atoms: N_22  and  C_23 
ROOT
HETATM    1  C   UNL     1     -40.089  63.091 -60.857  1.00  0.00     0.001 A 
HETATM    2  C   UNL     1     -41.003  62.063 -61.087  1.00  0.00     0.019 A 
HETATM    3  C   UNL     1     -41.445  61.274 -60.018  1.00  0.00     0.061 A 
HETATM    4  C   UNL     1     -40.979  61.498 -58.728  1.00  0.00     0.075 A 
HETATM    5  N   UNL     1     -41.347  60.685 -57.655  1.00  0.00    -0.223 NA
HETATM    6  C   UNL     1     -42.240  59.765 -57.845  1.00  0.00     0.177 A 
HETATM    7  N   UNL     1     -42.866  59.517 -59.070  1.00  0.00    -0.256 N 
HETATM    8  C   UNL     1     -42.448  60.212 -60.215  1.00  0.00     0.267 A 
HETATM    9  O   UNL     1     -42.879  60.042 -61.354  1.00  0.00    -0.267 OA
HETATM   10  C   UNL     1     -40.075  62.540 -58.505  1.00  0.00     0.032 A 
HETATM   11  C   UNL     1     -39.629  63.334 -59.565  1.00  0.00     0.002 A 
ENDROOT
BRANCH   6  12
HETATM   12  S   UNL     1     -42.534  58.684 -56.485  1.00  0.00    -0.082 SA
BRANCH  12  13
HETATM   13  C   UNL     1     -42.048  59.711 -55.067  1.00  0.00     0.185 C 
BRANCH  13  14
HETATM   14  C   UNL     1     -41.409  58.890 -53.953  1.00  0.00     0.231 C 
HETATM   15  N   UNL     1     -42.124  57.756 -53.618  1.00  0.00    -0.326 N 
HETATM   16  H   UNL     1     -43.029  57.661 -54.077  1.00  0.00     0.169 HD
HETATM   17  O   UNL     1     -40.331  59.227 -53.469  1.00  0.00    -0.272 OA
BRANCH  15  18
HETATM   18  C   UNL     1     -41.776  56.741 -52.705  1.00  0.00     0.037 A 
HETATM   19  C   UNL     1     -41.867  56.886 -51.315  1.00  0.00     0.061 A 
HETATM   20  C   UNL     1     -41.454  55.819 -50.548  1.00  0.00     0.065 A 
HETATM   21  C   UNL     1     -40.972  54.637 -51.105  1.00  0.00     0.063 A 
HETATM   22  N   UNL     1     -41.413  55.685 -49.164  1.00  0.00    -0.306 N 
HETATM   23  N   UNL     1     -40.636  53.777 -50.066  1.00  0.00    -0.307 N 
HETATM   24  C   UNL     1     -40.880  54.455 -52.460  1.00  0.00     0.034 A 
HETATM   25  C   UNL     1     -40.903  54.419 -48.848  1.00  0.00     0.325 A 
HETATM   26  H   UNL     1     -40.258  52.848 -50.137  1.00  0.00     0.170 HD
HETATM   27  O   UNL     1     -40.722  53.961 -47.734  1.00  0.00    -0.247 OA
HETATM   28  C   UNL     1     -41.289  55.528 -53.263  1.00  0.00     0.032 A 
HETATM   29  H   UNL     1     -41.693  56.369 -48.479  1.00  0.00     0.170 HD
ENDBRANCH  15  18
ENDBRANCH  13  14
ENDBRANCH  12  13
ENDBRANCH   6  12
BRANCH   7  30
HETATM   30  C   UNL     1     -43.978  58.618 -59.219  1.00  0.00     0.046 A 
HETATM   31  C   UNL     1     -43.771  57.279 -59.594  1.00  0.00     0.057 A 
HETATM   32  C   UNL     1     -44.855  56.419 -59.784  1.00  0.00     0.074 A 
HETATM   33 CL   UNL     1     -44.569  54.781 -60.231  1.00  0.00    -0.081 Cl
HETATM   34  C   UNL     1     -46.153  56.889 -59.613  1.00  0.00     0.138 A 
HETATM   35  F   UNL     1     -47.208  56.081 -59.796  1.00  0.00    -0.204 F 
HETATM   36  C   UNL     1     -46.382  58.214 -59.258  1.00  0.00     0.046 A 
HETATM   37  C   UNL     1     -45.298  59.076 -59.066  1.00  0.00     0.033 A 
ENDBRANCH   7  30
TORSDOF 5
ENDMDL
MODEL 3
REMARK VINA RESULT:      -9.3      3.603     10.387
REMARK  5 active torsions:
REMARK  status: ('A' for Active; 'I' for Inactive)
REMARK    1  A    between atoms: C_6  and  S_7 
REMARK    2  A    between atoms: S_7  and  C_8 
REMARK    3  A    between atoms: C_8  and  C_9 
REMARK       I    between atoms: C_9  and  N_10 
REMARK    4  A    between atoms: N_10  and  C_11 
REMARK    5  A    between atoms: N_22  and  C_23 
ROOT
HETATM    1  C   UNL     1     -40.308  62.767 -60.670  1.00  0.00     0.001 A 
HETATM    2  C   UNL     1     -41.230  61.776 -61.006  1.00  0.00     0.019 A 
HETATM    3  C   UNL     1     -41.791  60.978 -60.000  1.00  0.00     0.061 A 
HETATM    4  C   UNL     1     -41.436  61.157 -58.669  1.00  0.00     0.075 A 
HETATM    5  N   UNL     1     -41.924  60.334 -57.654  1.00  0.00    -0.223 NA
HETATM    6  C   UNL     1     -42.825  59.449 -57.946  1.00  0.00     0.177 A 
HETATM    7  N   UNL     1     -43.347  59.250 -59.227  1.00  0.00    -0.256 N 
HETATM    8  C   UNL     1     -42.806  59.956 -60.313  1.00  0.00     0.267 A 
HETATM    9  O   UNL     1     -43.139  59.826 -61.489  1.00  0.00    -0.267 OA
HETATM   10  C   UNL     1     -40.523  62.163 -58.340  1.00  0.00     0.032 A 
HETATM   11  C   UNL     1     -39.958  62.964 -59.335  1.00  0.00     0.002 A 
ENDROOT
BRANCH   6  12
HETATM   12  S   UNL     1     -43.275  58.349 -56.645  1.00  0.00    -0.082 SA
BRANCH  12  13
HETATM   13  C   UNL     1     -42.318  56.860 -57.055  1.00  0.00     0.185 C 
BRANCH  13  14
HETATM   14  C   UNL     1     -42.366  55.819 -55.942  1.00  0.00     0.231 C 
HETATM   15  N   UNL     1     -41.121  55.472 -55.452  1.00  0.00    -0.326 N 
HETATM   16  H   UNL     1     -40.329  55.870 -55.955  1.00  0.00     0.169 HD
HETATM   17  O   UNL     1     -43.443  55.400 -55.524  1.00  0.00    -0.272 OA
BRANCH  15  18
HETATM   18  C   UNL     1     -40.812  54.617 -54.376  1.00  0.00     0.037 A 
HETATM   19  C   UNL     1     -40.312  53.319 -54.536  1.00  0.00     0.061 A 
HETATM   20  C   UNL     1     -40.094  52.588 -53.390  1.00  0.00     0.065 A 
HETATM   21  C   UNL     1     -40.344  53.095 -52.118  1.00  0.00     0.063 A 
HETATM   22  N   UNL     1     -39.627  51.285 -53.244  1.00  0.00    -0.306 N 
HETATM   23  N   UNL     1     -40.031  52.109 -51.191  1.00  0.00    -0.307 N 
HETATM   24  C   UNL     1     -40.822  54.365 -51.921  1.00  0.00     0.034 A 
HETATM   25  C   UNL     1     -39.585  50.971 -51.879  1.00  0.00     0.325 A 
HETATM   26  H   UNL     1     -40.104  52.162 -50.189  1.00  0.00     0.170 HD
HETATM   27  O   UNL     1     -39.232  49.916 -51.382  1.00  0.00    -0.247 OA
HETATM   28  C   UNL     1     -41.057  55.128 -53.072  1.00  0.00     0.032 A 
HETATM   29  H   UNL     1     -39.360  50.650 -53.979  1.00  0.00     0.170 HD
ENDBRANCH  15  18
ENDBRANCH  13  14
ENDBRANCH  12  13
ENDBRANCH   6  12
BRANCH   7  30
HETATM   30  C   UNL     1     -44.469  58.393 -59.497  1.00  0.00     0.046 A 
HETATM   31  C   UNL     1     -44.276  57.105 -60.025  1.00  0.00     0.057 A 
HETATM   32  C   UNL     1     -45.369  56.291 -60.330  1.00  0.00     0.074 A 
HETATM   33 CL   UNL     1     -45.099  54.712 -60.962  1.00  0.00    -0.081 Cl
HETATM   34  C   UNL     1     -46.663  56.758 -60.124  1.00  0.00     0.138 A 
HETATM   35  F   UNL     1     -47.726  55.995 -60.416  1.00  0.00    -0.204 F 
HETATM   36  C   UNL     1     -46.878  58.035 -59.618  1.00  0.00     0.046 A 
HETATM   37  C   UNL     1     -45.785  58.852 -59.311  1.00  0.00     0.033 A 
ENDBRANCH   7  30
TORSDOF 5
ENDMDL
MODEL 4
REMARK VINA RESULT:      -9.1      2.539      3.214
REMARK  5 active torsions:
REMARK  status: ('A' for Active; 'I' for Inactive)
REMARK    1  A    between atoms: C_6  and  S_7 
REMARK    2  A    between atoms: S_7  and  C_8 
REMARK    3  A    between atoms: C_8  and  C_9 
REMARK       I    between atoms: C_9  and  N_10 
REMARK    4  A    between atoms: N_10  and  C_11 
REMARK    5  A    between atoms: N_22  and  C_23 
ROOT
HETATM    1  C   UNL     1     -39.424  51.707 -52.366  1.00  0.00     0.001 A 
HETATM    2  C   UNL     1     -39.873  52.944 -51.907  1.00  0.00     0.019 A 
HETATM    3  C   UNL     1     -40.812  53.665 -52.656  1.00  0.00     0.061 A 
HETATM    4  C   UNL     1     -41.297  53.166 -53.858  1.00  0.00     0.075 A 
HETATM    5  N   UNL     1     -42.179  53.891 -54.661  1.00  0.00    -0.223 NA
HETATM    6  C   UNL     1     -42.648  55.014 -54.216  1.00  0.00     0.177 A 
HETATM    7  N   UNL     1     -42.324  55.567 -52.974  1.00  0.00    -0.256 N 
HETATM    8  C   UNL     1     -41.347  54.953 -52.177  1.00  0.00     0.267 A 
HETATM    9  O   UNL     1     -40.936  55.371 -51.096  1.00  0.00    -0.267 OA
HETATM   10  C   UNL     1     -40.853  51.918 -54.303  1.00  0.00     0.032 A 
HETATM   11  C   UNL     1     -39.918  51.190 -53.562  1.00  0.00     0.002 A 
ENDROOT
BRANCH   6  12
HETATM   12  S   UNL     1     -43.629  55.942 -55.350  1.00  0.00    -0.082 SA
BRANCH  12  13
HETATM   13  C   UNL     1     -42.438  56.316 -56.670  1.00  0.00     0.185 C 
BRANCH  13  14
HETATM   14  C   UNL     1     -43.125  56.623 -57.996  1.00  0.00     0.231 C 
HETATM   15  N   UNL     1     -44.468  56.924 -57.869  1.00  0.00    -0.326 N 
HETATM   16  H   UNL     1     -44.854  56.807 -56.933  1.00  0.00     0.169 HD
HETATM   17  O   UNL     1     -42.483  56.637 -59.044  1.00  0.00    -0.272 OA
BRANCH  15  18
HETATM   18  C   UNL     1     -45.370  57.338 -58.869  1.00  0.00     0.037 A 
HETATM   19  C   UNL     1     -46.138  56.451 -59.634  1.00  0.00     0.061 A 
HETATM   20  C   UNL     1     -46.947  57.001 -60.603  1.00  0.00     0.065 A 
HETATM   21  C   UNL     1     -47.021  58.374 -60.827  1.00  0.00     0.063 A 
HETATM   22  N   UNL     1     -47.793  56.376 -61.512  1.00  0.00    -0.306 N 
HETATM   23  N   UNL     1     -47.913  58.593 -61.870  1.00  0.00    -0.307 N 
HETATM   24  C   UNL     1     -46.294  59.273 -60.091  1.00  0.00     0.034 A 
HETATM   25  C   UNL     1     -48.401  57.354 -62.310  1.00  0.00     0.325 A 
HETATM   26  H   UNL     1     -48.183  59.475 -62.272  1.00  0.00     0.170 HD
HETATM   27  O   UNL     1     -49.197  57.170 -63.214  1.00  0.00    -0.247 OA
HETATM   28  C   UNL     1     -45.458  58.737 -59.102  1.00  0.00     0.032 A 
HETATM   29  H   UNL     1     -47.960  55.387 -61.606  1.00  0.00     0.170 HD
ENDBRANCH  15  18
ENDBRANCH  13  14
ENDBRANCH  12  13
ENDBRANCH   6  12
BRANCH   7  30
HETATM   30  C   UNL     1     -42.989  56.717 -52.425  1.00  0.00     0.046 A 
HETATM   31  C   UNL     1     -42.478  58.009 -52.635  1.00  0.00     0.057 A 
HETATM   32  C   UNL     1     -43.098  59.121 -52.062  1.00  0.00     0.074 A 
HETATM   33 CL   UNL     1     -42.455  60.692 -52.349  1.00  0.00    -0.081 Cl
HETATM   34  C   UNL     1     -44.226  58.954 -51.266  1.00  0.00     0.138 A 
HETATM   35  F   UNL     1     -44.835  60.007 -50.701  1.00  0.00    -0.204 F 
HETATM   36  C   UNL     1     -44.741  57.683 -51.031  1.00  0.00     0.046 A 
HETATM   37  C   UNL     1     -44.122  56.568 -51.604  1.00  0.00     0.033 A 
ENDBRANCH   7  30
TORSDOF 5
ENDMDL
MODEL 5
REMARK VINA RESULT:      -9.1      4.423      6.783
REMARK  5 active torsions:
REMARK  status: ('A' for Active; 'I' for Inactive)
REMARK    1  A    between atoms: C_6  and  S_7 
REMARK    2  A    between atoms: S_7  and  C_8 
REMARK    3  A    between atoms: C_8  and  C_9 
REMARK       I    between atoms: C_9  and  N_10 
REMARK    4  A    between atoms: N_10  and  C_11 
REMARK    5  A    between atoms: N_22  and  C_23 
ROOT
HETATM    1  C   UNL     1     -39.829  50.943 -53.857  1.00  0.00     0.001 A 
HETATM    2  C   UNL     1     -40.664  51.939 -54.364  1.00  0.00     0.019 A 
HETATM    3  C   UNL     1     -41.039  53.013 -53.547  1.00  0.00     0.061 A 
HETATM    4  C   UNL     1     -40.595  53.097 -52.233  1.00  0.00     0.075 A 
HETATM    5  N   UNL     1     -41.007  54.117 -51.374  1.00  0.00    -0.223 NA
HETATM    6  C   UNL     1     -41.734  55.078 -51.850  1.00  0.00     0.177 A 
HETATM    7  N   UNL     1     -42.150  55.166 -53.181  1.00  0.00    -0.256 N 
HETATM    8  C   UNL     1     -41.878  54.110 -54.063  1.00  0.00     0.267 A 
HETATM    9  O   UNL     1     -42.240  54.044 -55.236  1.00  0.00    -0.267 OA
HETATM   10  C   UNL     1     -39.746  52.102 -51.739  1.00  0.00     0.032 A 
HETATM   11  C   UNL     1     -39.365  51.028 -52.546  1.00  0.00     0.002 A 
ENDROOT
BRANCH   6  12
HETATM   12  S   UNL     1     -42.341  56.240 -50.672  1.00  0.00    -0.082 SA
BRANCH  12  13
HETATM   13  C   UNL     1     -40.985  57.445 -50.587  1.00  0.00     0.185 C 
BRANCH  13  14
HETATM   14  C   UNL     1     -41.487  58.884 -50.631  1.00  0.00     0.231 C 
HETATM   15  N   UNL     1     -42.831  58.994 -50.933  1.00  0.00    -0.326 N 
HETATM   16  H   UNL     1     -43.293  58.121 -51.187  1.00  0.00     0.169 HD
HETATM   17  O   UNL     1     -40.734  59.817 -50.364  1.00  0.00    -0.272 OA
BRANCH  15  18
HETATM   18  C   UNL     1     -43.629  60.154 -50.968  1.00  0.00     0.037 A 
HETATM   19  C   UNL     1     -44.611  60.447 -50.014  1.00  0.00     0.061 A 
HETATM   20  C   UNL     1     -45.339  61.601 -50.201  1.00  0.00     0.065 A 
HETATM   21  C   UNL     1     -45.122  62.458 -51.277  1.00  0.00     0.063 A 
HETATM   22  N   UNL     1     -46.375  62.130 -49.438  1.00  0.00    -0.306 N 
HETATM   23  N   UNL     1     -46.021  63.513 -51.176  1.00  0.00    -0.307 N 
HETATM   24  C   UNL     1     -44.161  62.211 -52.223  1.00  0.00     0.034 A 
HETATM   25  C   UNL     1     -46.813  63.321 -50.035  1.00  0.00     0.325 A 
HETATM   26  H   UNL     1     -46.121  64.297 -51.799  1.00  0.00     0.170 HD
HETATM   27  O   UNL     1     -47.708  64.048 -49.643  1.00  0.00    -0.247 OA
HETATM   28  C   UNL     1     -43.411  61.040 -52.058  1.00  0.00     0.032 A 
HETATM   29  H   UNL     1     -46.768  61.742 -48.596  1.00  0.00     0.170 HD
ENDBRANCH  15  18
ENDBRANCH  13  14
ENDBRANCH  12  13
ENDBRANCH   6  12
BRANCH   7  30
HETATM   30  C   UNL     1     -42.801  56.325 -53.729  1.00  0.00     0.046 A 
HETATM   31  C   UNL     1     -42.049  57.431 -54.162  1.00  0.00     0.057 A 
HETATM   32  C   UNL     1     -42.684  58.575 -54.650  1.00  0.00     0.074 A 
HETATM   33 CL   UNL     1     -41.735  59.908 -55.186  1.00  0.00    -0.081 Cl
HETATM   34  C   UNL     1     -44.073  58.630 -54.701  1.00  0.00     0.138 A 
HETATM   35  F   UNL     1     -44.704  59.721 -55.161  1.00  0.00    -0.204 F 
HETATM   36  C   UNL     1     -44.837  57.554 -54.263  1.00  0.00     0.046 A 
HETATM   37  C   UNL     1     -44.203  56.408 -53.774  1.00  0.00     0.033 A 
ENDBRANCH   7  30
TORSDOF 5
ENDMDL
MODEL 6
REMARK VINA RESULT:      -9.0      4.056      8.852
REMARK  5 active torsions:
REMARK  status: ('A' for Active; 'I' for Inactive)
REMARK    1  A    between atoms: C_6  and  S_7 
REMARK    2  A    between atoms: S_7  and  C_8 
REMARK    3  A    between atoms: C_8  and  C_9 
REMARK       I    between atoms: C_9  and  N_10 
REMARK    4  A    between atoms: N_10  and  C_11 
REMARK    5  A    between atoms: N_22  and  C_23 
ROOT
HETATM    1  C   UNL     1     -44.905  63.496 -51.898  1.00  0.00     0.001 A 
HETATM    2  C   UNL     1     -44.818  62.212 -51.362  1.00  0.00     0.019 A 
HETATM    3  C   UNL     1     -43.930  61.284 -51.921  1.00  0.00     0.061 A 
HETATM    4  C   UNL     1     -43.138  61.624 -53.011  1.00  0.00     0.075 A 
HETATM    5  N   UNL     1     -42.296  60.701 -53.633  1.00  0.00    -0.223 NA
HETATM    6  C   UNL     1     -42.162  59.524 -53.107  1.00  0.00     0.177 A 
HETATM    7  N   UNL     1     -42.817  59.101 -51.948  1.00  0.00    -0.256 N 
HETATM    8  C   UNL     1     -43.773  59.934 -51.348  1.00  0.00     0.267 A 
HETATM    9  O   UNL     1     -44.454  59.653 -50.364  1.00  0.00    -0.267 OA
HETATM   10  C   UNL     1     -43.222  62.918 -53.533  1.00  0.00     0.032 A 
HETATM   11  C   UNL     1     -44.103  63.851 -52.981  1.00  0.00     0.002 A 
ENDROOT
BRANCH   6  12
HETATM   12  S   UNL     1     -41.207  58.370 -54.036  1.00  0.00    -0.082 SA
BRANCH  12  13
HETATM   13  C   UNL     1     -42.487  57.463 -54.953  1.00  0.00     0.185 C 
BRANCH  13  14
HETATM   14  C   UNL     1     -42.323  55.953 -54.830  1.00  0.00     0.231 C 
HETATM   15  N   UNL     1     -41.180  55.571 -54.153  1.00  0.00    -0.326 N 
HETATM   16  H   UNL     1     -40.544  56.330 -53.911  1.00  0.00     0.169 HD
HETATM   17  O   UNL     1     -43.185  55.193 -55.266  1.00  0.00    -0.272 OA
BRANCH  15  18
HETATM   18  C   UNL     1     -40.772  54.273 -53.787  1.00  0.00     0.037 A 
HETATM   19  C   UNL     1     -40.669  53.839 -52.460  1.00  0.00     0.061 A 
HETATM   20  C   UNL     1     -40.218  52.554 -52.257  1.00  0.00     0.065 A 
HETATM   21  C   UNL     1     -39.881  51.703 -53.306  1.00  0.00     0.063 A 
HETATM   22  N   UNL     1     -40.000  51.868 -51.066  1.00  0.00    -0.306 N 
HETATM   23  N   UNL     1     -39.459  50.496 -52.763  1.00  0.00    -0.307 N 
HETATM   24  C   UNL     1     -39.981  52.089 -54.617  1.00  0.00     0.034 A 
HETATM   25  C   UNL     1     -39.524  50.584 -51.365  1.00  0.00     0.325 A 
HETATM   26  H   UNL     1     -39.146  49.676 -53.257  1.00  0.00     0.170 HD
HETATM   27  O   UNL     1     -39.223  49.713 -50.569  1.00  0.00    -0.247 OA
HETATM   28  C   UNL     1     -40.432  53.394 -54.851  1.00  0.00     0.032 A 
HETATM   29  H   UNL     1     -40.148  52.212 -50.131  1.00  0.00     0.170 HD
ENDBRANCH  15  18
ENDBRANCH  13  14
ENDBRANCH  12  13
ENDBRANCH   6  12
BRANCH   7  30
HETATM   30  C   UNL     1     -42.520  57.862 -51.282  1.00  0.00     0.046 A 
HETATM   31  C   UNL     1     -43.447  56.805 -51.288  1.00  0.00     0.057 A 
HETATM   32  C   UNL     1     -43.177  55.619 -50.602  1.00  0.00     0.074 A 
HETATM   33 CL   UNL     1     -44.326  54.338 -50.640  1.00  0.00    -0.081 Cl
HETATM   34  C   UNL     1     -41.987  55.481 -49.895  1.00  0.00     0.138 A 
HETATM   35  F   UNL     1     -41.710  54.352 -49.225  1.00  0.00    -0.204 F 
HETATM   36  C   UNL     1     -41.062  56.519 -49.862  1.00  0.00     0.046 A 
HETATM   37  C   UNL     1     -41.330  57.707 -50.549  1.00  0.00     0.033 A 
ENDBRANCH   7  30
TORSDOF 5
ENDMDL
MODEL 7
REMARK VINA RESULT:      -9.0      3.974      8.724
REMARK  5 active torsions:
REMARK  status: ('A' for Active; 'I' for Inactive)
REMARK    1  A    between atoms: C_6  and  S_7 
REMARK    2  A    between atoms: S_7  and  C_8 
REMARK    3  A    between atoms: C_8  and  C_9 
REMARK       I    between atoms: C_9  and  N_10 
REMARK    4  A    between atoms: N_10  and  C_11 
REMARK    5  A    between atoms: N_22  and  C_23 
ROOT
HETATM    1  C   UNL     1     -47.409  62.148 -52.584  1.00  0.00     0.001 A 
HETATM    2  C   UNL     1     -46.778  61.113 -51.895  1.00  0.00     0.019 A 
HETATM    3  C   UNL     1     -45.672  60.471 -52.466  1.00  0.00     0.061 A 
HETATM    4  C   UNL     1     -45.197  60.847 -53.716  1.00  0.00     0.075 A 
HETATM    5  N   UNL     1     -44.142  60.182 -54.341  1.00  0.00    -0.223 NA
HETATM    6  C   UNL     1     -43.511  59.259 -53.686  1.00  0.00     0.177 A 
HETATM    7  N   UNL     1     -43.819  58.869 -52.381  1.00  0.00    -0.256 N 
HETATM    8  C   UNL     1     -44.948  59.408 -51.745  1.00  0.00     0.267 A 
HETATM    9  O   UNL     1     -45.355  59.103 -50.625  1.00  0.00    -0.267 OA
HETATM   10  C   UNL     1     -45.827  61.896 -54.393  1.00  0.00     0.032 A 
HETATM   11  C   UNL     1     -46.930  62.544 -53.832  1.00  0.00     0.002 A 
ENDROOT
BRANCH   6  12
HETATM   12  S   UNL     1     -42.297  58.361 -54.596  1.00  0.00    -0.082 SA
BRANCH  12  13
HETATM   13  C   UNL     1     -43.289  57.046 -55.364  1.00  0.00     0.185 C 
BRANCH  13  14
HETATM   14  C   UNL     1     -43.036  55.686 -54.724  1.00  0.00     0.231 C 
HETATM   15  N   UNL     1     -41.697  55.354 -54.634  1.00  0.00    -0.326 N 
HETATM   16  H   UNL     1     -41.056  56.003 -55.091  1.00  0.00     0.169 HD
HETATM   17  O   UNL     1     -43.971  55.011 -54.300  1.00  0.00    -0.272 OA
BRANCH  15  18
HETATM   18  C   UNL     1     -41.114  54.226 -54.024  1.00  0.00     0.037 A 
HETATM   19  C   UNL     1     -40.931  53.001 -54.678  1.00  0.00     0.061 A 
HETATM   20  C   UNL     1     -40.383  51.976 -53.940  1.00  0.00     0.065 A 
HETATM   21  C   UNL     1     -40.012  52.127 -52.605  1.00  0.00     0.063 A 
HETATM   22  N   UNL     1     -40.106  50.665 -54.312  1.00  0.00    -0.306 N 
HETATM   23  N   UNL     1     -39.507  50.913 -52.158  1.00  0.00    -0.307 N 
HETATM   24  C   UNL     1     -40.165  53.314 -51.937  1.00  0.00     0.034 A 
HETATM   25  C   UNL     1     -39.562  49.988 -53.212  1.00  0.00     0.325 A 
HETATM   26  H   UNL     1     -39.158  50.693 -51.240  1.00  0.00     0.170 HD
HETATM   27  O   UNL     1     -39.207  48.823 -53.172  1.00  0.00    -0.247 OA
HETATM   28  C   UNL     1     -40.726  54.371 -52.665  1.00  0.00     0.032 A 
HETATM   29  H   UNL     1     -40.262  50.243 -55.213  1.00  0.00     0.170 HD
ENDBRANCH  15  18
ENDBRANCH  13  14
ENDBRANCH  12  13
ENDBRANCH   6  12
BRANCH   7  30
HETATM   30  C   UNL     1     -42.999  57.975 -51.610  1.00  0.00     0.046 A 
HETATM   31  C   UNL     1     -43.459  56.690 -51.274  1.00  0.00     0.057 A 
HETATM   32  C   UNL     1     -42.680  55.839 -50.485  1.00  0.00     0.074 A 
HETATM   33 CL   UNL     1     -43.266  54.266 -50.102  1.00  0.00    -0.081 Cl
HETATM   34  C   UNL     1     -41.443  56.267 -50.016  1.00  0.00     0.138 A 
HETATM   35  F   UNL     1     -40.682  55.469 -49.253  1.00  0.00    -0.204 F 
HETATM   36  C   UNL     1     -40.975  57.540 -50.322  1.00  0.00     0.046 A 
HETATM   37  C   UNL     1     -41.752  58.392 -51.112  1.00  0.00     0.033 A 
ENDBRANCH   7  30
TORSDOF 5
ENDMDL
MODEL 8
REMARK VINA RESULT:      -9.0      3.398      8.970
REMARK  5 active torsions:
REMARK  status: ('A' for Active; 'I' for Inactive)
REMARK    1  A    between atoms: C_6  and  S_7 
REMARK    2  A    between atoms: S_7  and  C_8 
REMARK    3  A    between atoms: C_8  and  C_9 
REMARK       I    between atoms: C_9  and  N_10 
REMARK    4  A    between atoms: N_10  and  C_11 
REMARK    5  A    between atoms: N_22  and  C_23 
ROOT
HETATM    1  C   UNL     1     -45.038  55.078 -60.567  1.00  0.00     0.001 A 
HETATM    2  C   UNL     1     -44.900  56.455 -60.396  1.00  0.00     0.019 A 
HETATM    3  C   UNL     1     -44.194  56.950 -59.292  1.00  0.00     0.061 A 
HETATM    4  C   UNL     1     -43.633  56.086 -58.360  1.00  0.00     0.075 A 
HETATM    5  N   UNL     1     -42.985  56.549 -57.214  1.00  0.00    -0.223 NA
HETATM    6  C   UNL     1     -42.799  57.824 -57.074  1.00  0.00     0.177 A 
HETATM    7  N   UNL     1     -43.214  58.786 -57.998  1.00  0.00    -0.256 N 
HETATM    8  C   UNL     1     -43.984  58.397 -59.105  1.00  0.00     0.267 A 
HETATM    9  O   UNL     1     -44.455  59.153 -59.953  1.00  0.00    -0.267 OA
HETATM   10  C   UNL     1     -43.764  54.707 -58.548  1.00  0.00     0.032 A 
HETATM   11  C   UNL     1     -44.465  54.203 -59.646  1.00  0.00     0.002 A 
ENDROOT
BRANCH   6  12
HETATM   12  S   UNL     1     -42.115  58.339 -55.533  1.00  0.00    -0.082 SA
BRANCH  12  13
HETATM   13  C   UNL     1     -43.406  57.841 -54.356  1.00  0.00     0.185 C 
BRANCH  13  14
HETATM   14  C   UNL     1     -43.104  56.497 -53.703  1.00  0.00     0.231 C 
HETATM   15  N   UNL     1     -41.949  55.899 -54.171  1.00  0.00    -0.326 N 
HETATM   16  H   UNL     1     -41.501  56.372 -54.955  1.00  0.00     0.169 HD
HETATM   17  O   UNL     1     -43.828  56.058 -52.813  1.00  0.00    -0.272 OA
BRANCH  15  18
HETATM   18  C   UNL     1     -41.337  54.711 -53.726  1.00  0.00     0.037 A 
HETATM   19  C   UNL     1     -41.165  53.580 -54.532  1.00  0.00     0.061 A 
HETATM   20  C   UNL     1     -40.584  52.477 -53.946  1.00  0.00     0.065 A 
HETATM   21  C   UNL     1     -40.172  52.465 -52.616  1.00  0.00     0.063 A 
HETATM   22  N   UNL     1     -40.309  51.226 -54.488  1.00  0.00    -0.306 N 
HETATM   23  N   UNL     1     -39.642  51.210 -52.340  1.00  0.00    -0.307 N 
HETATM   24  C   UNL     1     -40.313  53.557 -51.800  1.00  0.00     0.034 A 
HETATM   25  C   UNL     1     -39.723  50.424 -53.499  1.00  0.00     0.325 A 
HETATM   26  H   UNL     1     -39.261  50.882 -51.469  1.00  0.00     0.170 HD
HETATM   27  O   UNL     1     -39.357  49.268 -53.617  1.00  0.00    -0.247 OA
HETATM   28  C   UNL     1     -40.906  54.690 -52.371  1.00  0.00     0.032 A 
HETATM   29  H   UNL     1     -40.491  50.918 -55.430  1.00  0.00     0.170 HD
ENDBRANCH  15  18
ENDBRANCH  13  14
ENDBRANCH  12  13
ENDBRANCH   6  12
BRANCH   7  30
HETATM   30  C   UNL     1     -42.842  60.173 -57.915  1.00  0.00     0.046 A 
HETATM   31  C   UNL     1     -41.621  60.620 -58.448  1.00  0.00     0.057 A 
HETATM   32  C   UNL     1     -41.240  61.959 -58.325  1.00  0.00     0.074 A 
HETATM   33 CL   UNL     1     -39.745  62.479 -59.001  1.00  0.00    -0.081 Cl
HETATM   34  C   UNL     1     -42.067  62.858 -57.660  1.00  0.00     0.138 A 
HETATM   35  F   UNL     1     -41.717  64.146 -57.526  1.00  0.00    -0.204 F 
HETATM   36  C   UNL     1     -43.271  62.434 -57.110  1.00  0.00     0.046 A 
HETATM   37  C   UNL     1     -43.655  61.095 -57.233  1.00  0.00     0.033 A 
ENDBRANCH   7  30
TORSDOF 5
ENDMDL
MODEL 9
REMARK VINA RESULT:      -8.8      3.830      6.627
REMARK  5 active torsions:
REMARK  status: ('A' for Active; 'I' for Inactive)
REMARK    1  A    between atoms: C_6  and  S_7 
REMARK    2  A    between atoms: S_7  and  C_8 
REMARK    3  A    between atoms: C_8  and  C_9 
REMARK       I    between atoms: C_9  and  N_10 
REMARK    4  A    between atoms: N_10  and  C_11 
REMARK    5  A    between atoms: N_22  and  C_23 
ROOT
HETATM    1  C   UNL     1     -45.424  62.215 -49.044  1.00  0.00     0.001 A 
HETATM    2  C   UNL     1     -45.440  60.907 -49.526  1.00  0.00     0.019 A 
HETATM    3  C   UNL     1     -44.471  60.494 -50.449  1.00  0.00     0.061 A 
HETATM    4  C   UNL     1     -43.495  61.375 -50.898  1.00  0.00     0.075 A 
HETATM    5  N   UNL     1     -42.559  61.015 -51.868  1.00  0.00    -0.223 NA
HETATM    6  C   UNL     1     -42.527  59.786 -52.279  1.00  0.00     0.177 A 
HETATM    7  N   UNL     1     -43.381  58.780 -51.820  1.00  0.00    -0.256 N 
HETATM    8  C   UNL     1     -44.426  59.105 -50.941  1.00  0.00     0.267 A 
HETATM    9  O   UNL     1     -45.274  58.324 -50.514  1.00  0.00    -0.267 OA
HETATM   10  C   UNL     1     -43.478  62.680 -50.398  1.00  0.00     0.032 A 
HETATM   11  C   UNL     1     -44.439  63.101 -49.475  1.00  0.00     0.002 A 
ENDROOT
BRANCH   6  12
HETATM   12  S   UNL     1     -41.426  59.449 -53.613  1.00  0.00    -0.082 SA
BRANCH  12  13
HETATM   13  C   UNL     1     -42.225  60.313 -54.998  1.00  0.00     0.185 C 
BRANCH  13  14
HETATM   14  C   UNL     1     -43.083  59.378 -55.843  1.00  0.00     0.231 C 
HETATM   15  N   UNL     1     -42.351  58.564 -56.687  1.00  0.00    -0.326 N 
HETATM   16  H   UNL     1     -41.350  58.756 -56.716  1.00  0.00     0.169 HD
HETATM   17  O   UNL     1     -44.304  59.358 -55.709  1.00  0.00    -0.272 OA
BRANCH  15  18
HETATM   18  C   UNL     1     -42.815  57.535 -57.529  1.00  0.00     0.037 A 
HETATM   19  C   UNL     1     -43.328  57.757 -58.813  1.00  0.00     0.061 A 
HETATM   20  C   UNL     1     -43.780  56.656 -59.504  1.00  0.00     0.065 A 
HETATM   21  C   UNL     1     -43.734  55.368 -58.976  1.00  0.00     0.063 A 
HETATM   22  N   UNL     1     -44.350  56.575 -60.771  1.00  0.00    -0.306 N 
HETATM   23  N   UNL     1     -44.271  54.497 -59.915  1.00  0.00    -0.307 N 
HETATM   24  C   UNL     1     -43.227  55.110 -57.729  1.00  0.00     0.034 A 
HETATM   25  C   UNL     1     -44.664  55.236 -61.041  1.00  0.00     0.325 A 
HETATM   26  H   UNL     1     -44.383  53.500 -59.836  1.00  0.00     0.170 HD
HETATM   27  O   UNL     1     -45.179  54.796 -62.053  1.00  0.00    -0.247 OA
HETATM   28  C   UNL     1     -42.766  56.216 -57.002  1.00  0.00     0.032 A 
HETATM   29  H   UNL     1     -44.523  57.336 -61.408  1.00  0.00     0.170 HD
ENDBRANCH  15  18
ENDBRANCH  13  14
ENDBRANCH  12  13
ENDBRANCH   6  12
BRANCH   7  30
HETATM   30  C   UNL     1     -43.214  57.391 -52.152  1.00  0.00     0.046 A 
HETATM   31  C   UNL     1     -42.304  56.589 -51.442  1.00  0.00     0.057 A 
HETATM   32  C   UNL     1     -42.108  55.252 -51.796  1.00  0.00     0.074 A 
HETATM   33 CL   UNL     1     -40.996  54.292 -50.899  1.00  0.00    -0.081 Cl
HETATM   34  C   UNL     1     -42.809  54.708 -52.867  1.00  0.00     0.138 A 
HETATM   35  F   UNL     1     -42.632  53.428 -53.227  1.00  0.00    -0.204 F 
HETATM   36  C   UNL     1     -43.703  55.487 -53.593  1.00  0.00     0.046 A 
HETATM   37  C   UNL     1     -43.901  56.825 -53.240  1.00  0.00     0.033 A 
ENDBRANCH   7  30
TORSDOF 5
ENDMDL
MODEL 10
REMARK VINA RESULT:      -8.6      3.847      7.818
REMARK  5 active torsions:
REMARK  status: ('A' for Active; 'I' for Inactive)
REMARK    1  A    between atoms: C_6  and  S_7 
REMARK    2  A    between atoms: S_7  and  C_8 
REMARK    3  A    between atoms: C_8  and  C_9 
REMARK       I    between atoms: C_9  and  N_10 
REMARK    4  A    between atoms: N_10  and  C_11 
REMARK    5  A    between atoms: N_22  and  C_23 
ROOT
HETATM    1  C   UNL     1     -40.984  57.053 -50.147  1.00  0.00     0.001 A 
HETATM    2  C   UNL     1     -40.767  57.931 -51.208  1.00  0.00     0.019 A 
HETATM    3  C   UNL     1     -41.602  57.882 -52.332  1.00  0.00     0.061 A 
HETATM    4  C   UNL     1     -42.641  56.964 -52.408  1.00  0.00     0.075 A 
HETATM    5  N   UNL     1     -43.446  56.845 -53.542  1.00  0.00    -0.223 NA
HETATM    6  C   UNL     1     -43.292  57.693 -54.509  1.00  0.00     0.177 A 
HETATM    7  N   UNL     1     -42.358  58.733 -54.503  1.00  0.00    -0.256 N 
HETATM    8  C   UNL     1     -41.434  58.828 -53.451  1.00  0.00     0.267 A 
HETATM    9  O   UNL     1     -40.532  59.659 -53.361  1.00  0.00    -0.267 OA
HETATM   10  C   UNL     1     -42.861  56.098 -51.333  1.00  0.00     0.032 A 
HETATM   11  C   UNL     1     -42.035  56.139 -50.206  1.00  0.00     0.002 A 
ENDROOT
BRANCH   6  12
HETATM   12  S   UNL     1     -44.233  57.381 -55.966  1.00  0.00    -0.082 SA
BRANCH  12  13
HETATM   13  C   UNL     1     -43.116  56.316 -56.924  1.00  0.00     0.185 C 
BRANCH  13  14
HETATM   14  C   UNL     1     -42.811  55.006 -56.206  1.00  0.00     0.231 C 
HETATM   15  N   UNL     1     -41.603  55.009 -55.534  1.00  0.00    -0.326 N 
HETATM   16  H   UNL     1     -41.025  55.835 -55.682  1.00  0.00     0.169 HD
HETATM   17  O   UNL     1     -43.624  54.085 -56.215  1.00  0.00    -0.272 OA
BRANCH  15  18
HETATM   18  C   UNL     1     -41.061  54.007 -54.705  1.00  0.00     0.037 A 
HETATM   19  C   UNL     1     -40.853  52.687 -55.120  1.00  0.00     0.061 A 
HETATM   20  C   UNL     1     -40.352  51.809 -54.185  1.00  0.00     0.065 A 
HETATM   21  C   UNL     1     -40.051  52.194 -52.881  1.00  0.00     0.063 A 
HETATM   22  N   UNL     1     -40.066  50.453 -54.305  1.00  0.00    -0.306 N 
HETATM   23  N   UNL     1     -39.579  51.079 -52.200  1.00  0.00    -0.307 N 
HETATM   24  C   UNL     1     -40.230  53.480 -52.442  1.00  0.00     0.034 A 
HETATM   25  C   UNL     1     -39.585  49.983 -53.075  1.00  0.00     0.325 A 
HETATM   26  H   UNL     1     -39.279  51.026 -51.241  1.00  0.00     0.170 HD
HETATM   27  O   UNL     1     -39.241  48.844 -52.812  1.00  0.00    -0.247 OA
HETATM   28  C   UNL     1     -40.744  54.392 -53.373  1.00  0.00     0.032 A 
HETATM   29  H   UNL     1     -40.178  49.879 -55.124  1.00  0.00     0.170 HD
ENDBRANCH  15  18
ENDBRANCH  13  14
ENDBRANCH  12  13
ENDBRANCH   6  12
BRANCH   7  30
HETATM   30  C   UNL     1     -42.323  59.768 -55.499  1.00  0.00     0.046 A 
HETATM   31  C   UNL     1     -42.994  60.986 -55.291  1.00  0.00     0.057 A 
HETATM   32  C   UNL     1     -42.999  61.973 -56.279  1.00  0.00     0.074 A 
HETATM   33 CL   UNL     1     -43.818  63.459 -55.989  1.00  0.00    -0.081 Cl
HETATM   34  C   UNL     1     -42.346  61.750 -57.487  1.00  0.00     0.138 A 
HETATM   35  F   UNL     1     -42.343  62.682 -58.451  1.00  0.00    -0.204 F 
HETATM   36  C   UNL     1     -41.690  60.547 -57.721  1.00  0.00     0.046 A 
HETATM   37  C   UNL     1     -41.683  59.557 -56.733  1.00  0.00     0.033 A 
ENDBRANCH   7  30
TORSDOF 5
ENDMDL
