MODEL 1
REMARK VINA RESULT:      -7.4      0.000      0.000
REMARK  2 active torsions:
REMARK  status: ('A' for Active; 'I' for Inactive)
REMARK    1  A    between atoms: C_6  and  N_7 
REMARK       I    between atoms: N_7  and  C_8 
REMARK       I    between atoms: C_8  and  N_9 
REMARK    2  A    between atoms: N_9  and  C_10 
ROOT
HETATM    1  N   UNL     1     -43.784  56.644 -56.634  1.00  0.00    -0.306 N 
HETATM    2  C   UNL     1     -43.402  55.930 -55.544  1.00  0.00     0.321 C 
HETATM    3  N   UNL     1     -42.228  55.249 -55.586  1.00  0.00    -0.338 N 
HETATM    4  O   UNL     1     -44.190  55.810 -54.608  1.00  0.00    -0.247 OA
HETATM    5  H   UNL     1     -44.773  56.860 -56.568  1.00  0.00     0.171 HD
HETATM    6  H   UNL     1     -41.501  55.662 -56.155  1.00  0.00     0.164 HD
ENDROOT
BRANCH   3   7
HETATM    7  C   UNL     1     -41.779  54.357 -54.524  1.00  0.00     0.092 C 
HETATM    8  C   UNL     1     -41.528  55.123 -53.194  1.00  0.00     0.084 C 
HETATM    9  C   UNL     1     -40.846  54.233 -52.239  1.00  0.00     0.034 A 
HETATM   10  C   UNL     1     -40.235  53.038 -52.549  1.00  0.00     0.033 A 
HETATM   11  N   UNL     1     -40.653  54.424 -50.887  1.00  0.00    -0.354 N 
HETATM   12  N   UNL     1     -39.712  52.556 -51.369  1.00  0.00    -0.354 N 
HETATM   13  C   UNL     1     -40.201  52.416 -53.886  1.00  0.00     0.061 C 
HETATM   14  H   UNL     1     -39.195  51.685 -51.268  1.00  0.00     0.166 HD
HETATM   15  C   UNL     1     -39.959  53.406 -50.366  1.00  0.00     0.180 A 
HETATM   16  C   UNL     1     -40.575  53.467 -54.952  1.00  0.00     0.031 C 
HETATM   17  H   UNL     1     -40.973  55.233 -50.358  1.00  0.00     0.166 HD
ENDBRANCH   3   7
BRANCH   1  18
HETATM   18  C   UNL     1     -43.182  56.880 -57.890  1.00  0.00     0.077 A 
HETATM   19  C   UNL     1     -43.325  56.150 -59.074  1.00  0.00     0.152 A 
HETATM   20  N   UNL     1     -42.757  56.484 -60.257  1.00  0.00    -0.247 NA
HETATM   21 CL   UNL     1     -44.098  54.612 -59.173  1.00  0.00    -0.060 Cl
HETATM   22  C   UNL     1     -41.964  57.573 -60.271  1.00  0.00     0.118 A 
HETATM   23  C   UNL     1     -41.698  58.332 -59.148  1.00  0.00     0.022 A 
HETATM   24  C   UNL     1     -42.305  57.972 -57.946  1.00  0.00     0.034 A 
ENDBRANCH   1  18
TORSDOF 2
ENDMDL
MODEL 2
REMARK VINA RESULT:      -7.3      1.488      1.728
REMARK  2 active torsions:
REMARK  status: ('A' for Active; 'I' for Inactive)
REMARK    1  A    between atoms: C_6  and  N_7 
REMARK       I    between atoms: N_7  and  C_8 
REMARK       I    between atoms: C_8  and  N_9 
REMARK    2  A    between atoms: N_9  and  C_10 
ROOT
HETATM    1  N   UNL     1     -43.697  56.460 -56.293  1.00  0.00    -0.306 N 
HETATM    2  C   UNL     1     -43.319  55.633 -55.285  1.00  0.00     0.321 C 
HETATM    3  N   UNL     1     -42.150  54.951 -55.401  1.00  0.00    -0.338 N 
HETATM    4  O   UNL     1     -44.107  55.421 -54.365  1.00  0.00    -0.247 OA
HETATM    5  H   UNL     1     -44.684  56.677 -56.204  1.00  0.00     0.171 HD
HETATM    6  H   UNL     1     -41.421  55.415 -55.926  1.00  0.00     0.164 HD
ENDROOT
BRANCH   3   7
HETATM    7  C   UNL     1     -41.708  53.949 -54.440  1.00  0.00     0.092 C 
HETATM    8  C   UNL     1     -41.723  54.498 -52.985  1.00  0.00     0.084 C 
HETATM    9  C   UNL     1     -41.039  53.544 -52.096  1.00  0.00     0.034 A 
HETATM   10  C   UNL     1     -40.235  52.501 -52.501  1.00  0.00     0.033 A 
HETATM   11  N   UNL     1     -41.034  53.519 -50.717  1.00  0.00    -0.354 N 
HETATM   12  N   UNL     1     -39.790  51.889 -51.350  1.00  0.00    -0.354 N 
HETATM   13  C   UNL     1     -39.958  52.128 -53.901  1.00  0.00     0.061 C 
HETATM   14  H   UNL     1     -39.171  51.081 -51.315  1.00  0.00     0.166 HD
HETATM   15  C   UNL     1     -40.269  52.518 -50.270  1.00  0.00     0.180 A 
HETATM   16  C   UNL     1     -40.349  53.296 -54.831  1.00  0.00     0.031 C 
HETATM   17  H   UNL     1     -41.524  54.181 -50.117  1.00  0.00     0.166 HD
ENDBRANCH   3   7
BRANCH   1  18
HETATM   18  C   UNL     1     -43.095  56.822 -57.520  1.00  0.00     0.077 A 
HETATM   19  C   UNL     1     -42.339  57.961 -57.815  1.00  0.00     0.152 A 
HETATM   20  N   UNL     1     -41.743  58.201 -59.007  1.00  0.00    -0.247 NA
HETATM   21 CL   UNL     1     -42.198  59.324 -56.769  1.00  0.00    -0.060 Cl
HETATM   22  C   UNL     1     -41.936  57.293 -59.983  1.00  0.00     0.118 A 
HETATM   23  C   UNL     1     -42.717  56.164 -59.826  1.00  0.00     0.022 A 
HETATM   24  C   UNL     1     -43.309  55.936 -58.584  1.00  0.00     0.034 A 
ENDBRANCH   1  18
TORSDOF 2
ENDMDL
MODEL 3
REMARK VINA RESULT:      -7.3      4.940      7.236
REMARK  2 active torsions:
REMARK  status: ('A' for Active; 'I' for Inactive)
REMARK    1  A    between atoms: C_6  and  N_7 
REMARK       I    between atoms: N_7  and  C_8 
REMARK       I    between atoms: C_8  and  N_9 
REMARK    2  A    between atoms: N_9  and  C_10 
ROOT
HETATM    1  N   UNL     1     -39.642  52.611 -51.064  1.00  0.00    -0.306 N 
HETATM    2  C   UNL     1     -40.198  53.835 -50.871  1.00  0.00     0.321 C 
HETATM    3  N   UNL     1     -40.993  54.353 -51.843  1.00  0.00    -0.338 N 
HETATM    4  O   UNL     1     -39.860  54.492 -49.889  1.00  0.00    -0.247 OA
HETATM    5  H   UNL     1     -38.878  52.479 -50.409  1.00  0.00     0.171 HD
HETATM    6  H   UNL     1     -41.514  53.680 -52.389  1.00  0.00     0.164 HD
ENDROOT
BRANCH   3   7
HETATM    7  C   UNL     1     -41.542  55.702 -51.795  1.00  0.00     0.092 C 
HETATM    8  C   UNL     1     -42.941  55.732 -51.116  1.00  0.00     0.084 C 
HETATM    9  C   UNL     1     -43.553  57.056 -51.316  1.00  0.00     0.034 A 
HETATM   10  C   UNL     1     -43.129  58.010 -52.216  1.00  0.00     0.033 A 
HETATM   11  N   UNL     1     -44.662  57.585 -50.690  1.00  0.00    -0.354 N 
HETATM   12  N   UNL     1     -43.995  59.074 -52.084  1.00  0.00    -0.354 N 
HETATM   13  C   UNL     1     -41.957  57.890 -53.103  1.00  0.00     0.061 C 
HETATM   14  H   UNL     1     -43.948  59.940 -52.617  1.00  0.00     0.166 HD
HETATM   15  C   UNL     1     -44.929  58.806 -51.164  1.00  0.00     0.180 A 
HETATM   16  C   UNL     1     -41.522  56.411 -53.182  1.00  0.00     0.031 C 
HETATM   17  H   UNL     1     -45.216  57.109 -49.980  1.00  0.00     0.166 HD
ENDBRANCH   3   7
BRANCH   1  18
HETATM   18  C   UNL     1     -39.725  51.670 -52.114  1.00  0.00     0.077 A 
HETATM   19  C   UNL     1     -39.632  50.277 -52.042  1.00  0.00     0.152 A 
HETATM   20  N   UNL     1     -39.785  49.440 -53.097  1.00  0.00    -0.247 NA
HETATM   21 CL   UNL     1     -39.127  49.413 -50.638  1.00  0.00    -0.060 Cl
HETATM   22  C   UNL     1     -39.997  50.004 -54.301  1.00  0.00     0.118 A 
HETATM   23  C   UNL     1     -40.043  51.370 -54.502  1.00  0.00     0.022 A 
HETATM   24  C   UNL     1     -39.893  52.207 -53.397  1.00  0.00     0.034 A 
ENDBRANCH   1  18
TORSDOF 2
ENDMDL
MODEL 4
REMARK VINA RESULT:      -7.2      4.125      7.048
REMARK  2 active torsions:
REMARK  status: ('A' for Active; 'I' for Inactive)
REMARK    1  A    between atoms: C_6  and  N_7 
REMARK       I    between atoms: N_7  and  C_8 
REMARK       I    between atoms: C_8  and  N_9 
REMARK    2  A    between atoms: N_9  and  C_10 
ROOT
HETATM    1  N   UNL     1     -39.643  52.727 -54.042  1.00  0.00    -0.306 N 
HETATM    2  C   UNL     1     -40.296  53.916 -54.092  1.00  0.00     0.321 C 
HETATM    3  N   UNL     1     -41.228  54.192 -53.143  1.00  0.00    -0.338 N 
HETATM    4  O   UNL     1     -40.124  54.646 -55.066  1.00  0.00    -0.247 OA
HETATM    5  H   UNL     1     -39.200  52.545 -54.936  1.00  0.00     0.171 HD
HETATM    6  H   UNL     1     -41.061  53.786 -52.233  1.00  0.00     0.164 HD
ENDROOT
BRANCH   3   7
HETATM    7  C   UNL     1     -42.071  55.380 -53.169  1.00  0.00     0.092 C 
HETATM    8  C   UNL     1     -42.259  55.986 -51.748  1.00  0.00     0.084 C 
HETATM    9  C   UNL     1     -43.307  57.020 -51.793  1.00  0.00     0.034 A 
HETATM   10  C   UNL     1     -44.204  57.212 -52.821  1.00  0.00     0.033 A 
HETATM   11  N   UNL     1     -43.619  57.957 -50.831  1.00  0.00    -0.354 N 
HETATM   12  N   UNL     1     -45.009  58.263 -52.437  1.00  0.00    -0.354 N 
HETATM   13  C   UNL     1     -44.240  56.445 -54.080  1.00  0.00     0.061 C 
HETATM   14  H   UNL     1     -45.776  58.646 -52.986  1.00  0.00     0.166 HD
HETATM   15  C   UNL     1     -44.656  58.704 -51.225  1.00  0.00     0.180 A 
HETATM   16  C   UNL     1     -43.417  55.149 -53.917  1.00  0.00     0.031 C 
HETATM   17  H   UNL     1     -43.144  58.058 -49.936  1.00  0.00     0.166 HD
ENDBRANCH   3   7
BRANCH   1  18
HETATM   18  C   UNL     1     -39.698  51.635 -53.146  1.00  0.00     0.077 A 
HETATM   19  C   UNL     1     -39.680  50.268 -53.439  1.00  0.00     0.152 A 
HETATM   20  N   UNL     1     -39.673  49.282 -52.510  1.00  0.00    -0.247 NA
HETATM   21 CL   UNL     1     -39.848  49.618 -55.027  1.00  0.00    -0.060 Cl
HETATM   22  C   UNL     1     -39.732  49.656 -51.218  1.00  0.00     0.118 A 
HETATM   23  C   UNL     1     -39.819  50.975 -50.813  1.00  0.00     0.022 A 
HETATM   24  C   UNL     1     -39.813  51.970 -51.790  1.00  0.00     0.034 A 
ENDBRANCH   1  18
TORSDOF 2
ENDMDL
MODEL 5
REMARK VINA RESULT:      -7.1      1.998      2.897
REMARK  2 active torsions:
REMARK  status: ('A' for Active; 'I' for Inactive)
REMARK    1  A    between atoms: C_6  and  N_7 
REMARK       I    between atoms: N_7  and  C_8 
REMARK       I    between atoms: C_8  and  N_9 
REMARK    2  A    between atoms: N_9  and  C_10 
ROOT
HETATM    1  N   UNL     1     -44.297  57.721 -57.897  1.00  0.00    -0.306 N 
HETATM    2  C   UNL     1     -43.669  57.385 -56.741  1.00  0.00     0.321 C 
HETATM    3  N   UNL     1     -43.324  56.087 -56.537  1.00  0.00    -0.338 N 
HETATM    4  O   UNL     1     -43.553  58.235 -55.861  1.00  0.00    -0.247 OA
HETATM    5  H   UNL     1     -44.731  58.633 -57.795  1.00  0.00     0.171 HD
HETATM    6  H   UNL     1     -43.096  55.557 -57.367  1.00  0.00     0.164 HD
ENDROOT
BRANCH   3   7
HETATM    7  C   UNL     1     -42.757  55.595 -55.288  1.00  0.00     0.092 C 
HETATM    8  C   UNL     1     -41.629  54.554 -55.537  1.00  0.00     0.084 C 
HETATM    9  C   UNL     1     -41.268  53.911 -54.262  1.00  0.00     0.034 A 
HETATM   10  C   UNL     1     -42.002  53.966 -53.098  1.00  0.00     0.033 A 
HETATM   11  N   UNL     1     -40.173  53.118 -53.989  1.00  0.00    -0.354 N 
HETATM   12  N   UNL     1     -41.312  53.212 -52.173  1.00  0.00    -0.354 N 
HETATM   13  C   UNL     1     -43.256  54.719 -52.911  1.00  0.00     0.061 C 
HETATM   14  H   UNL     1     -41.602  53.056 -51.209  1.00  0.00     0.166 HD
HETATM   15  C   UNL     1     -40.209  52.693 -52.722  1.00  0.00     0.180 A 
HETATM   16  C   UNL     1     -43.841  55.093 -54.290  1.00  0.00     0.031 C 
HETATM   17  H   UNL     1     -39.447  52.871 -54.659  1.00  0.00     0.166 HD
ENDBRANCH   3   7
BRANCH   1  18
HETATM   18  C   UNL     1     -44.684  56.977 -59.035  1.00  0.00     0.077 A 
HETATM   19  C   UNL     1     -43.870  56.325 -59.966  1.00  0.00     0.152 A 
HETATM   20  N   UNL     1     -44.328  55.578 -60.999  1.00  0.00    -0.247 NA
HETATM   21 CL   UNL     1     -42.159  56.517 -60.054  1.00  0.00    -0.060 Cl
HETATM   22  C   UNL     1     -45.664  55.503 -61.156  1.00  0.00     0.118 A 
HETATM   23  C   UNL     1     -46.563  56.159 -60.337  1.00  0.00     0.022 A 
HETATM   24  C   UNL     1     -46.063  56.911 -59.274  1.00  0.00     0.034 A 
ENDBRANCH   1  18
TORSDOF 2
ENDMDL
MODEL 6
REMARK VINA RESULT:      -6.9      2.321      2.876
REMARK  2 active torsions:
REMARK  status: ('A' for Active; 'I' for Inactive)
REMARK    1  A    between atoms: C_6  and  N_7 
REMARK       I    between atoms: N_7  and  C_8 
REMARK       I    between atoms: C_8  and  N_9 
REMARK    2  A    between atoms: N_9  and  C_10 
ROOT
HETATM    1  N   UNL     1     -43.533  57.022 -58.194  1.00  0.00    -0.306 N 
HETATM    2  C   UNL     1     -42.978  56.418 -57.112  1.00  0.00     0.321 C 
HETATM    3  N   UNL     1     -43.417  55.183 -56.755  1.00  0.00    -0.338 N 
HETATM    4  O   UNL     1     -42.196  57.058 -56.411  1.00  0.00    -0.247 OA
HETATM    5  H   UNL     1     -43.319  58.014 -58.176  1.00  0.00     0.171 HD
HETATM    6  H   UNL     1     -43.731  54.593 -57.513  1.00  0.00     0.164 HD
ENDROOT
BRANCH   3   7
HETATM    7  C   UNL     1     -42.980  54.495 -55.547  1.00  0.00     0.092 C 
HETATM    8  C   UNL     1     -43.711  55.028 -54.282  1.00  0.00     0.084 C 
HETATM    9  C   UNL     1     -43.061  54.484 -53.077  1.00  0.00     0.034 A 
HETATM   10  C   UNL     1     -41.827  53.873 -53.036  1.00  0.00     0.033 A 
HETATM   11  N   UNL     1     -43.524  54.505 -51.778  1.00  0.00    -0.354 N 
HETATM   12  N   UNL     1     -41.606  53.544 -51.716  1.00  0.00    -0.354 N 
HETATM   13  C   UNL     1     -40.961  53.612 -54.200  1.00  0.00     0.061 C 
HETATM   14  H   UNL     1     -40.774  53.079 -51.357  1.00  0.00     0.166 HD
HETATM   15  C   UNL     1     -42.634  53.939 -50.956  1.00  0.00     0.180 A 
HETATM   16  C   UNL     1     -41.430  54.473 -55.393  1.00  0.00     0.031 C 
HETATM   17  H   UNL     1     -44.408  54.912 -51.478  1.00  0.00     0.166 HD
ENDBRANCH   3   7
BRANCH   1  18
HETATM   18  C   UNL     1     -44.522  56.621 -59.120  1.00  0.00     0.077 A 
HETATM   19  C   UNL     1     -45.855  57.032 -59.201  1.00  0.00     0.152 A 
HETATM   20  N   UNL     1     -46.724  56.642 -60.165  1.00  0.00    -0.247 NA
HETATM   21 CL   UNL     1     -46.657  57.956 -57.986  1.00  0.00    -0.060 Cl
HETATM   22  C   UNL     1     -46.271  55.761 -61.078  1.00  0.00     0.118 A 
HETATM   23  C   UNL     1     -44.993  55.236 -61.058  1.00  0.00     0.022 A 
HETATM   24  C   UNL     1     -44.117  55.665 -60.061  1.00  0.00     0.034 A 
ENDBRANCH   1  18
TORSDOF 2
ENDMDL
MODEL 7
REMARK VINA RESULT:      -6.9     14.611     16.710
REMARK  2 active torsions:
REMARK  status: ('A' for Active; 'I' for Inactive)
REMARK    1  A    between atoms: C_6  and  N_7 
REMARK       I    between atoms: N_7  and  C_8 
REMARK       I    between atoms: C_8  and  N_9 
REMARK    2  A    between atoms: N_9  and  C_10 
ROOT
HETATM    1  N   UNL     1     -38.701  41.241 -53.448  1.00  0.00    -0.306 N 
HETATM    2  C   UNL     1     -38.924  41.155 -54.785  1.00  0.00     0.321 C 
HETATM    3  N   UNL     1     -37.878  40.878 -55.606  1.00  0.00    -0.338 N 
HETATM    4  O   UNL     1     -40.030  41.463 -55.223  1.00  0.00    -0.247 OA
HETATM    5  H   UNL     1     -39.482  41.713 -53.004  1.00  0.00     0.171 HD
HETATM    6  H   UNL     1     -37.152  40.294 -55.212  1.00  0.00     0.164 HD
ENDROOT
BRANCH   3   7
HETATM    7  C   UNL     1     -37.977  40.881 -57.060  1.00  0.00     0.092 C 
HETATM    8  C   UNL     1     -37.853  39.447 -57.650  1.00  0.00     0.084 C 
HETATM    9  C   UNL     1     -37.708  39.532 -59.113  1.00  0.00     0.034 A 
HETATM   10  C   UNL     1     -37.407  40.671 -59.826  1.00  0.00     0.033 A 
HETATM   11  N   UNL     1     -37.808  38.514 -60.039  1.00  0.00    -0.354 N 
HETATM   12  N   UNL     1     -37.349  40.291 -61.150  1.00  0.00    -0.354 N 
HETATM   13  C   UNL     1     -37.223  42.018 -59.253  1.00  0.00     0.061 C 
HETATM   14  H   UNL     1     -37.142  40.912 -61.931  1.00  0.00     0.166 HD
HETATM   15  C   UNL     1     -37.583  38.980 -61.271  1.00  0.00     0.180 A 
HETATM   16  C   UNL     1     -37.009  41.902 -57.729  1.00  0.00     0.031 C 
HETATM   17  H   UNL     1     -38.004  37.539 -59.818  1.00  0.00     0.166 HD
ENDBRANCH   3   7
BRANCH   1  18
HETATM   18  C   UNL     1     -37.547  41.072 -52.650  1.00  0.00     0.077 A 
HETATM   19  C   UNL     1     -36.305  41.701 -52.775  1.00  0.00     0.152 A 
HETATM   20  N   UNL     1     -35.265  41.525 -51.924  1.00  0.00    -0.247 NA
HETATM   21 CL   UNL     1     -35.837  42.657 -54.131  1.00  0.00    -0.060 Cl
HETATM   22  C   UNL     1     -35.438  40.647 -50.917  1.00  0.00     0.118 A 
HETATM   23  C   UNL     1     -36.599  39.921 -50.735  1.00  0.00     0.022 A 
HETATM   24  C   UNL     1     -37.657  40.130 -51.619  1.00  0.00     0.034 A 
ENDBRANCH   1  18
TORSDOF 2
ENDMDL
MODEL 8
REMARK VINA RESULT:      -6.7      2.585      7.434
REMARK  2 active torsions:
REMARK  status: ('A' for Active; 'I' for Inactive)
REMARK    1  A    between atoms: C_6  and  N_7 
REMARK       I    between atoms: N_7  and  C_8 
REMARK       I    between atoms: C_8  and  N_9 
REMARK    2  A    between atoms: N_9  and  C_10 
ROOT
HETATM    1  N   UNL     1     -40.432  53.162 -52.643  1.00  0.00    -0.306 N 
HETATM    2  C   UNL     1     -40.631  53.702 -53.873  1.00  0.00     0.321 C 
HETATM    3  N   UNL     1     -41.229  54.919 -53.965  1.00  0.00    -0.338 N 
HETATM    4  O   UNL     1     -40.390  53.020 -54.866  1.00  0.00    -0.247 OA
HETATM    5  H   UNL     1     -40.243  52.169 -52.735  1.00  0.00     0.171 HD
HETATM    6  H   UNL     1     -41.056  55.552 -53.196  1.00  0.00     0.164 HD
ENDROOT
BRANCH   3   7
HETATM    7  C   UNL     1     -41.599  55.536 -55.231  1.00  0.00     0.092 C 
HETATM    8  C   UNL     1     -41.809  57.071 -55.086  1.00  0.00     0.084 C 
HETATM    9  C   UNL     1     -42.418  57.599 -56.319  1.00  0.00     0.034 A 
HETATM   10  C   UNL     1     -43.007  56.847 -57.311  1.00  0.00     0.033 A 
HETATM   11  N   UNL     1     -42.552  58.917 -56.705  1.00  0.00    -0.354 N 
HETATM   12  N   UNL     1     -43.459  57.743 -58.255  1.00  0.00    -0.354 N 
HETATM   13  C   UNL     1     -43.087  55.374 -57.336  1.00  0.00     0.061 C 
HETATM   14  H   UNL     1     -43.945  57.495 -59.116  1.00  0.00     0.166 HD
HETATM   15  C   UNL     1     -43.189  58.997 -57.877  1.00  0.00     0.180 A 
HETATM   16  C   UNL     1     -42.795  54.820 -55.925  1.00  0.00     0.031 C 
HETATM   17  H   UNL     1     -42.231  59.720 -56.167  1.00  0.00     0.166 HD
ENDBRANCH   3   7
BRANCH   1  18
HETATM   18  C   UNL     1     -40.703  53.621 -51.334  1.00  0.00     0.077 A 
HETATM   19  C   UNL     1     -41.941  53.901 -50.749  1.00  0.00     0.152 A 
HETATM   20  N   UNL     1     -42.116  54.279 -49.460  1.00  0.00    -0.247 NA
HETATM   21 CL   UNL     1     -43.425  53.985 -51.623  1.00  0.00    -0.060 Cl
HETATM   22  C   UNL     1     -41.007  54.437 -48.712  1.00  0.00     0.118 A 
HETATM   23  C   UNL     1     -39.728  54.252 -49.202  1.00  0.00     0.022 A 
HETATM   24  C   UNL     1     -39.579  53.851 -50.529  1.00  0.00     0.034 A 
ENDBRANCH   1  18
TORSDOF 2
ENDMDL
MODEL 9
REMARK VINA RESULT:      -6.6      4.189      5.404
REMARK  2 active torsions:
REMARK  status: ('A' for Active; 'I' for Inactive)
REMARK    1  A    between atoms: C_6  and  N_7 
REMARK       I    between atoms: N_7  and  C_8 
REMARK       I    between atoms: C_8  and  N_9 
REMARK    2  A    between atoms: N_9  and  C_10 
ROOT
HETATM    1  N   UNL     1     -42.500  57.328 -53.214  1.00  0.00    -0.306 N 
HETATM    2  C   UNL     1     -42.383  55.987 -53.387  1.00  0.00     0.321 C 
HETATM    3  N   UNL     1     -41.561  55.290 -52.559  1.00  0.00    -0.338 N 
HETATM    4  O   UNL     1     -42.914  55.466 -54.365  1.00  0.00    -0.247 OA
HETATM    5  H   UNL     1     -42.909  57.743 -54.046  1.00  0.00     0.171 HD
HETATM    6  H   UNL     1     -41.474  55.653 -51.620  1.00  0.00     0.164 HD
ENDROOT
BRANCH   3   7
HETATM    7  C   UNL     1     -41.267  53.873 -52.728  1.00  0.00     0.092 C 
HETATM    8  C   UNL     1     -40.723  53.236 -51.418  1.00  0.00     0.084 C 
HETATM    9  C   UNL     1     -40.212  51.885 -51.708  1.00  0.00     0.034 A 
HETATM   10  C   UNL     1     -39.951  51.376 -52.961  1.00  0.00     0.033 A 
HETATM   11  N   UNL     1     -39.868  50.895 -50.811  1.00  0.00    -0.354 N 
HETATM   12  N   UNL     1     -39.471  50.099 -52.764  1.00  0.00    -0.354 N 
HETATM   13  C   UNL     1     -40.184  52.078 -54.236  1.00  0.00     0.061 C 
HETATM   14  H   UNL     1     -39.185  49.458 -53.502  1.00  0.00     0.166 HD
HETATM   15  C   UNL     1     -39.413  49.817 -51.457  1.00  0.00     0.180 A 
HETATM   16  C   UNL     1     -40.366  53.587 -53.966  1.00  0.00     0.031 C 
HETATM   17  H   UNL     1     -39.929  50.976 -49.798  1.00  0.00     0.166 HD
ENDBRANCH   3   7
BRANCH   1  18
HETATM   18  C   UNL     1     -41.939  58.233 -52.285  1.00  0.00     0.077 A 
HETATM   19  C   UNL     1     -42.596  59.027 -51.340  1.00  0.00     0.152 A 
HETATM   20  N   UNL     1     -41.973  59.826 -50.440  1.00  0.00    -0.247 NA
HETATM   21 CL   UNL     1     -44.304  59.256 -51.289  1.00  0.00    -0.060 Cl
HETATM   22  C   UNL     1     -40.629  59.885 -50.500  1.00  0.00     0.118 A 
HETATM   23  C   UNL     1     -39.880  59.195 -51.434  1.00  0.00     0.022 A 
HETATM   24  C   UNL     1     -40.546  58.371 -52.340  1.00  0.00     0.034 A 
ENDBRANCH   1  18
TORSDOF 2
ENDMDL
MODEL 10
REMARK VINA RESULT:      -6.5      2.645      7.489
REMARK  2 active torsions:
REMARK  status: ('A' for Active; 'I' for Inactive)
REMARK    1  A    between atoms: C_6  and  N_7 
REMARK       I    between atoms: N_7  and  C_8 
REMARK       I    between atoms: C_8  and  N_9 
REMARK    2  A    between atoms: N_9  and  C_10 
ROOT
HETATM    1  N   UNL     1     -42.829  54.033 -52.378  1.00  0.00    -0.306 N 
HETATM    2  C   UNL     1     -43.088  54.837 -53.441  1.00  0.00     0.321 C 
HETATM    3  N   UNL     1     -42.287  55.912 -53.659  1.00  0.00    -0.338 N 
HETATM    4  O   UNL     1     -44.115  54.648 -54.090  1.00  0.00    -0.247 OA
HETATM    5  H   UNL     1     -43.641  53.458 -52.181  1.00  0.00     0.171 HD
HETATM    6  H   UNL     1     -41.323  55.806 -53.374  1.00  0.00     0.164 HD
ENDROOT
BRANCH   3   7
HETATM    7  C   UNL     1     -42.543  56.906 -54.693  1.00  0.00     0.092 C 
HETATM    8  C   UNL     1     -42.184  56.372 -56.109  1.00  0.00     0.084 C 
HETATM    9  C   UNL     1     -42.222  57.483 -57.075  1.00  0.00     0.034 A 
HETATM   10  C   UNL     1     -42.248  58.823 -56.757  1.00  0.00     0.033 A 
HETATM   11  N   UNL     1     -42.205  57.415 -58.452  1.00  0.00    -0.354 N 
HETATM   12  N   UNL     1     -42.256  59.502 -57.957  1.00  0.00    -0.354 N 
HETATM   13  C   UNL     1     -42.292  59.379 -55.392  1.00  0.00     0.061 C 
HETATM   14  H   UNL     1     -42.273  60.515 -58.058  1.00  0.00     0.166 HD
HETATM   15  C   UNL     1     -42.219  58.643 -58.981  1.00  0.00     0.180 A 
HETATM   16  C   UNL     1     -41.893  58.285 -54.379  1.00  0.00     0.031 C 
HETATM   17  H   UNL     1     -42.165  56.554 -58.995  1.00  0.00     0.166 HD
ENDBRANCH   3   7
BRANCH   1  18
HETATM   18  C   UNL     1     -41.824  54.044 -51.383  1.00  0.00     0.077 A 
HETATM   19  C   UNL     1     -40.553  53.465 -51.426  1.00  0.00     0.152 A 
HETATM   20  N   UNL     1     -39.624  53.577 -50.446  1.00  0.00    -0.247 NA
HETATM   21 CL   UNL     1     -40.031  52.368 -52.649  1.00  0.00    -0.060 Cl
HETATM   22  C   UNL     1     -39.978  54.258 -49.340  1.00  0.00     0.118 A 
HETATM   23  C   UNL     1     -41.229  54.816 -49.161  1.00  0.00     0.022 A 
HETATM   24  C   UNL     1     -42.162  54.696 -50.190  1.00  0.00     0.034 A 
ENDBRANCH   1  18
TORSDOF 2
ENDMDL
