MODEL 1
REMARK VINA RESULT:      -8.3      0.000      0.000
REMARK  5 active torsions:
REMARK  status: ('A' for Active; 'I' for Inactive)
REMARK    1  A    between atoms: C_2  and  C_3 
REMARK    2  A    between atoms: C_7  and  N_8 
REMARK    3  A    between atoms: C_13  and  N_14 
REMARK       I    between atoms: N_14  and  C_15 
REMARK    4  A    between atoms: C_15  and  C_16 
REMARK       I    between atoms: C_16  and  N_17 
REMARK    5  A    between atoms: N_17  and  C_18 
ROOT
HETATM    1  N   UNL     1     -40.990  54.784 -53.389  1.00  0.00    -0.045 N 
HETATM    2  N   UNL     1     -40.478  53.904 -52.484  1.00  0.00    -0.156 NA
HETATM    3  C   UNL     1     -40.117  52.848 -53.221  1.00  0.00     0.055 A 
HETATM    4  C   UNL     1     -39.504  51.653 -52.584  1.00  0.00     0.072 C 
HETATM    5  C   UNL     1     -40.389  53.044 -54.596  1.00  0.00     0.079 A 
HETATM    6  C   UNL     1     -40.954  54.294 -54.685  1.00  0.00     0.152 A 
ENDROOT
BRANCH   6   7
HETATM    7  N   UNL     1     -41.417  54.970 -55.809  1.00  0.00    -0.303 N 
HETATM    8  C   UNL     1     -42.763  54.924 -56.290  1.00  0.00     0.315 C 
HETATM    9  O   UNL     1     -43.641  54.257 -55.770  1.00  0.00    -0.262 OA
HETATM   10  H   UNL     1     -40.751  55.553 -56.330  1.00  0.00     0.171 HD
BRANCH   8  11
HETATM   11  C   UNL     1     -43.032  55.800 -57.527  1.00  0.00     0.310 C 
HETATM   12  N   UNL     1     -42.799  57.146 -57.336  1.00  0.00    -0.348 N 
HETATM   13  H   UNL     1     -42.573  57.453 -56.391  1.00  0.00     0.163 HD
HETATM   14  O   UNL     1     -43.414  55.261 -58.556  1.00  0.00    -0.262 OA
BRANCH  12  15
HETATM   15  C   UNL     1     -43.065  58.159 -58.350  1.00  0.00     0.085 C 
HETATM   16  C   UNL     1     -41.955  59.218 -58.313  1.00  0.00     0.034 C 
HETATM   17  C   UNL     1     -42.168  60.385 -59.300  1.00  0.00    -0.045 C 
HETATM   18  C   UNL     1     -41.879  59.934 -60.743  1.00  0.00     0.015 C 
HETATM   19  C   UNL     1     -41.155  61.502 -58.966  1.00  0.00     0.015 C 
HETATM   20  C   UNL     1     -43.596  60.963 -59.151  1.00  0.00     0.013 C 
HETATM   21  C   UNL     1     -44.750  59.948 -59.078  1.00  0.00    -0.016 C 
HETATM   22  C   UNL     1     -44.437  58.799 -58.111  1.00  0.00     0.029 C 
HETATM   23  C   UNL     1     -45.201  59.437 -60.447  1.00  0.00     0.010 C 
ENDBRANCH  12  15
ENDBRANCH   8  11
ENDBRANCH   6   7
BRANCH   1  24
HETATM   24  C   UNL     1     -41.484  56.028 -52.973  1.00  0.00     0.732 A 
HETATM   25  N   UNL     1     -40.655  57.049 -53.320  1.00  0.00    -0.152 N 
HETATM   26  C   UNL     1     -40.949  58.336 -53.004  1.00  0.00     0.268 A 
HETATM   27  H   UNL     1     -39.793  56.859 -53.822  1.00  0.00     0.188 HD
HETATM   28  C   UNL     1     -42.231  58.535 -52.267  1.00  0.00     0.035 A 
HETATM   29  O   UNL     1     -40.207  59.262 -53.307  1.00  0.00    -0.267 OA
HETATM   30  C   UNL     1     -42.968  57.438 -51.983  1.00  0.00     0.061 A 
HETATM   31  N   UNL     1     -42.603  56.150 -52.333  1.00  0.00    -0.067 NA
HETATM   32  C   UNL     1     -44.295  57.503 -51.268  1.00  0.00     0.072 C 
BRANCH  28  33
HETATM   33  C   UNL     1     -42.543  59.958 -51.879  1.00  0.00     0.042 C 
HETATM   34  C   UNL     1     -41.997  60.309 -50.503  1.00  0.00     0.010 C 
ENDBRANCH  28  33
ENDBRANCH   1  24
TORSDOF 5
ENDMDL
MODEL 2
REMARK VINA RESULT:      -8.2      1.240      1.731
REMARK  5 active torsions:
REMARK  status: ('A' for Active; 'I' for Inactive)
REMARK    1  A    between atoms: C_2  and  C_3 
REMARK    2  A    between atoms: C_7  and  N_8 
REMARK    3  A    between atoms: C_13  and  N_14 
REMARK       I    between atoms: N_14  and  C_15 
REMARK    4  A    between atoms: C_15  and  C_16 
REMARK       I    between atoms: C_16  and  N_17 
REMARK    5  A    between atoms: N_17  and  C_18 
ROOT
HETATM    1  N   UNL     1     -41.151  54.745 -53.136  1.00  0.00    -0.045 N 
HETATM    2  N   UNL     1     -40.630  53.873 -52.227  1.00  0.00    -0.156 NA
HETATM    3  C   UNL     1     -40.132  52.880 -52.973  1.00  0.00     0.055 A 
HETATM    4  C   UNL     1     -39.467  51.715 -52.335  1.00  0.00     0.072 C 
HETATM    5  C   UNL     1     -40.324  53.109 -54.356  1.00  0.00     0.079 A 
HETATM    6  C   UNL     1     -40.985  54.312 -54.442  1.00  0.00     0.152 A 
ENDROOT
BRANCH   6   7
HETATM    7  N   UNL     1     -41.424  54.993 -55.573  1.00  0.00    -0.303 N 
HETATM    8  C   UNL     1     -42.726  54.859 -56.150  1.00  0.00     0.315 C 
HETATM    9  O   UNL     1     -43.579  54.106 -55.716  1.00  0.00    -0.262 OA
HETATM   10  H   UNL     1     -40.773  55.647 -56.025  1.00  0.00     0.171 HD
BRANCH   8  11
HETATM   11  C   UNL     1     -42.980  55.759 -57.372  1.00  0.00     0.310 C 
HETATM   12  N   UNL     1     -42.779  57.105 -57.144  1.00  0.00    -0.348 N 
HETATM   13  H   UNL     1     -42.583  57.393 -56.187  1.00  0.00     0.163 HD
HETATM   14  O   UNL     1     -43.326  55.238 -58.423  1.00  0.00    -0.262 OA
BRANCH  12  15
HETATM   15  C   UNL     1     -43.040  58.137 -58.140  1.00  0.00     0.085 C 
HETATM   16  C   UNL     1     -41.928  59.193 -58.079  1.00  0.00     0.034 C 
HETATM   17  C   UNL     1     -42.136  60.377 -59.045  1.00  0.00    -0.045 C 
HETATM   18  C   UNL     1     -41.841  59.953 -60.495  1.00  0.00     0.015 C 
HETATM   19  C   UNL     1     -41.122  61.487 -58.687  1.00  0.00     0.015 C 
HETATM   20  C   UNL     1     -43.563  60.955 -58.892  1.00  0.00     0.013 C 
HETATM   21  C   UNL     1     -44.719  59.941 -58.843  1.00  0.00    -0.016 C 
HETATM   22  C   UNL     1     -44.412  58.774 -57.895  1.00  0.00     0.029 C 
HETATM   23  C   UNL     1     -45.165  59.455 -60.222  1.00  0.00     0.010 C 
ENDBRANCH  12  15
ENDBRANCH   8  11
ENDBRANCH   6   7
BRANCH   1  24
HETATM   24  C   UNL     1     -41.775  55.926 -52.715  1.00  0.00     0.732 A 
HETATM   25  N   UNL     1     -42.832  55.681 -51.893  1.00  0.00    -0.152 N 
HETATM   26  C   UNL     1     -43.576  56.693 -51.379  1.00  0.00     0.268 A 
HETATM   27  H   UNL     1     -43.082  54.727 -51.653  1.00  0.00     0.188 HD
HETATM   28  C   UNL     1     -43.147  58.066 -51.775  1.00  0.00     0.035 A 
HETATM   29  O   UNL     1     -44.531  56.484 -50.641  1.00  0.00    -0.267 OA
HETATM   30  C   UNL     1     -42.079  58.176 -52.597  1.00  0.00     0.061 A 
HETATM   31  N   UNL     1     -41.367  57.096 -53.088  1.00  0.00    -0.067 NA
HETATM   32  C   UNL     1     -41.526  59.505 -53.051  1.00  0.00     0.072 C 
BRANCH  28  33
HETATM   33  C   UNL     1     -43.993  59.192 -51.239  1.00  0.00     0.042 C 
HETATM   34  C   UNL     1     -45.129  59.554 -52.184  1.00  0.00     0.010 C 
ENDBRANCH  28  33
ENDBRANCH   1  24
TORSDOF 5
ENDMDL
MODEL 3
REMARK VINA RESULT:      -8.0      2.754      5.504
REMARK  5 active torsions:
REMARK  status: ('A' for Active; 'I' for Inactive)
REMARK    1  A    between atoms: C_2  and  C_3 
REMARK    2  A    between atoms: C_7  and  N_8 
REMARK    3  A    between atoms: C_13  and  N_14 
REMARK       I    between atoms: N_14  and  C_15 
REMARK    4  A    between atoms: C_15  and  C_16 
REMARK       I    between atoms: C_16  and  N_17 
REMARK    5  A    between atoms: N_17  and  C_18 
ROOT
HETATM    1  N   UNL     1     -43.401  59.332 -51.481  1.00  0.00    -0.045 N 
HETATM    2  N   UNL     1     -43.584  59.887 -50.250  1.00  0.00    -0.156 NA
HETATM    3  C   UNL     1     -43.815  61.180 -50.504  1.00  0.00     0.055 A 
HETATM    4  C   UNL     1     -44.066  62.137 -49.395  1.00  0.00     0.072 C 
HETATM    5  C   UNL     1     -43.786  61.460 -51.891  1.00  0.00     0.079 A 
HETATM    6  C   UNL     1     -43.515  60.260 -52.504  1.00  0.00     0.152 A 
ENDROOT
BRANCH   6   7
HETATM    7  N   UNL     1     -43.368  59.980 -53.859  1.00  0.00    -0.303 N 
HETATM    8  C   UNL     1     -42.114  59.808 -54.523  1.00  0.00     0.315 C 
HETATM    9  O   UNL     1     -41.036  59.918 -53.965  1.00  0.00    -0.262 OA
HETATM   10  H   UNL     1     -44.219  59.879 -54.425  1.00  0.00     0.171 HD
BRANCH   8  11
HETATM   11  C   UNL     1     -42.223  59.457 -56.017  1.00  0.00     0.310 C 
HETATM   12  N   UNL     1     -43.205  58.535 -56.318  1.00  0.00    -0.348 N 
HETATM   13  H   UNL     1     -43.693  58.099 -55.538  1.00  0.00     0.163 HD
HETATM   14  O   UNL     1     -41.464  60.003 -56.806  1.00  0.00    -0.262 OA
BRANCH  12  15
HETATM   15  C   UNL     1     -43.425  58.004 -57.658  1.00  0.00     0.085 C 
HETATM   16  C   UNL     1     -44.933  57.932 -57.934  1.00  0.00     0.034 C 
HETATM   17  C   UNL     1     -45.291  57.317 -59.302  1.00  0.00    -0.045 C 
HETATM   18  C   UNL     1     -44.992  58.310 -60.439  1.00  0.00     0.015 C 
HETATM   19  C   UNL     1     -46.811  57.041 -59.334  1.00  0.00     0.015 C 
HETATM   20  C   UNL     1     -44.549  55.973 -59.500  1.00  0.00     0.013 C 
HETATM   21  C   UNL     1     -43.053  55.949 -59.144  1.00  0.00    -0.016 C 
HETATM   22  C   UNL     1     -42.779  56.620 -57.792  1.00  0.00     0.029 C 
HETATM   23  C   UNL     1     -42.153  56.501 -60.250  1.00  0.00     0.010 C 
ENDBRANCH  12  15
ENDBRANCH   8  11
ENDBRANCH   6   7
BRANCH   1  24
HETATM   24  C   UNL     1     -43.126  57.965 -51.612  1.00  0.00     0.732 A 
HETATM   25  N   UNL     1     -42.450  57.473 -50.539  1.00  0.00    -0.152 N 
HETATM   26  C   UNL     1     -42.082  56.168 -50.473  1.00  0.00     0.268 A 
HETATM   27  H   UNL     1     -42.206  58.084 -49.766  1.00  0.00     0.188 HD
HETATM   28  C   UNL     1     -42.477  55.334 -51.646  1.00  0.00     0.035 A 
HETATM   29  O   UNL     1     -41.470  55.716 -49.514  1.00  0.00    -0.267 OA
HETATM   30  C   UNL     1     -43.149  55.941 -52.649  1.00  0.00     0.061 A 
HETATM   31  N   UNL     1     -43.488  57.282 -52.652  1.00  0.00    -0.067 NA
HETATM   32  C   UNL     1     -43.629  55.207 -53.877  1.00  0.00     0.072 C 
BRANCH  28  33
HETATM   33  C   UNL     1     -42.037  53.893 -51.595  1.00  0.00     0.042 C 
HETATM   34  C   UNL     1     -40.688  53.683 -52.267  1.00  0.00     0.010 C 
ENDBRANCH  28  33
ENDBRANCH   1  24
TORSDOF 5
ENDMDL
MODEL 4
REMARK VINA RESULT:      -7.8      2.268      5.097
REMARK  5 active torsions:
REMARK  status: ('A' for Active; 'I' for Inactive)
REMARK    1  A    between atoms: C_2  and  C_3 
REMARK    2  A    between atoms: C_7  and  N_8 
REMARK    3  A    between atoms: C_13  and  N_14 
REMARK       I    between atoms: N_14  and  C_15 
REMARK    4  A    between atoms: C_15  and  C_16 
REMARK       I    between atoms: C_16  and  N_17 
REMARK    5  A    between atoms: N_17  and  C_18 
ROOT
HETATM    1  N   UNL     1     -41.249  57.147 -51.907  1.00  0.00    -0.045 N 
HETATM    2  N   UNL     1     -40.730  57.518 -50.703  1.00  0.00    -0.156 NA
HETATM    3  C   UNL     1     -41.094  58.799 -50.570  1.00  0.00     0.055 A 
HETATM    4  C   UNL     1     -40.708  59.574 -49.362  1.00  0.00     0.072 C 
HETATM    5  C   UNL     1     -41.847  59.254 -51.678  1.00  0.00     0.079 A 
HETATM    6  C   UNL     1     -41.935  58.178 -52.531  1.00  0.00     0.152 A 
ENDROOT
BRANCH   6   7
HETATM    7  N   UNL     1     -42.559  58.091 -53.771  1.00  0.00    -0.303 N 
HETATM    8  C   UNL     1     -43.952  57.836 -53.965  1.00  0.00     0.315 C 
HETATM    9  O   UNL     1     -44.734  57.642 -53.050  1.00  0.00    -0.262 OA
HETATM   10  H   UNL     1     -41.984  58.227 -54.611  1.00  0.00     0.171 HD
BRANCH   8  11
HETATM   11  C   UNL     1     -44.405  57.836 -55.435  1.00  0.00     0.310 C 
HETATM   12  N   UNL     1     -43.393  57.611 -56.346  1.00  0.00    -0.348 N 
HETATM   13  H   UNL     1     -42.441  57.567 -55.985  1.00  0.00     0.163 HD
HETATM   14  O   UNL     1     -45.588  58.022 -55.686  1.00  0.00    -0.262 OA
BRANCH  12  15
HETATM   15  C   UNL     1     -43.588  57.649 -57.790  1.00  0.00     0.085 C 
HETATM   16  C   UNL     1     -44.079  56.276 -58.271  1.00  0.00     0.034 C 
HETATM   17  C   UNL     1     -44.255  56.174 -59.800  1.00  0.00    -0.045 C 
HETATM   18  C   UNL     1     -45.513  56.936 -60.254  1.00  0.00     0.015 C 
HETATM   19  C   UNL     1     -44.470  54.690 -60.172  1.00  0.00     0.015 C 
HETATM   20  C   UNL     1     -42.983  56.677 -60.524  1.00  0.00     0.013 C 
HETATM   21  C   UNL     1     -42.378  57.999 -60.022  1.00  0.00    -0.016 C 
HETATM   22  C   UNL     1     -42.281  58.036 -58.491  1.00  0.00     0.029 C 
HETATM   23  C   UNL     1     -43.073  59.241 -60.581  1.00  0.00     0.010 C 
ENDBRANCH  12  15
ENDBRANCH   8  11
ENDBRANCH   6   7
BRANCH   1  24
HETATM   24  C   UNL     1     -41.063  55.847 -52.394  1.00  0.00     0.732 A 
HETATM   25  N   UNL     1     -41.148  54.914 -51.408  1.00  0.00    -0.152 N 
HETATM   26  C   UNL     1     -40.990  53.592 -51.670  1.00  0.00     0.268 A 
HETATM   27  H   UNL     1     -41.329  55.199 -50.450  1.00  0.00     0.188 HD
HETATM   28  C   UNL     1     -40.727  53.252 -53.099  1.00  0.00     0.035 A 
HETATM   29  O   UNL     1     -41.061  52.745 -50.789  1.00  0.00    -0.267 OA
HETATM   30  C   UNL     1     -40.668  54.271 -53.985  1.00  0.00     0.061 A 
HETATM   31  N   UNL     1     -40.834  55.602 -53.645  1.00  0.00    -0.067 NA
HETATM   32  C   UNL     1     -40.436  54.062 -55.462  1.00  0.00     0.072 C 
BRANCH  28  33
HETATM   33  C   UNL     1     -40.513  51.789 -53.390  1.00  0.00     0.042 C 
HETATM   34  C   UNL     1     -39.044  51.398 -53.304  1.00  0.00     0.010 C 
ENDBRANCH  28  33
ENDBRANCH   1  24
TORSDOF 5
ENDMDL
MODEL 5
REMARK VINA RESULT:      -7.8      2.647      4.183
REMARK  5 active torsions:
REMARK  status: ('A' for Active; 'I' for Inactive)
REMARK    1  A    between atoms: C_2  and  C_3 
REMARK    2  A    between atoms: C_7  and  N_8 
REMARK    3  A    between atoms: C_13  and  N_14 
REMARK       I    between atoms: N_14  and  C_15 
REMARK    4  A    between atoms: C_15  and  C_16 
REMARK       I    between atoms: C_16  and  N_17 
REMARK    5  A    between atoms: N_17  and  C_18 
ROOT
HETATM    1  N   UNL     1     -42.353  57.340 -51.387  1.00  0.00    -0.045 N 
HETATM    2  N   UNL     1     -41.923  56.534 -50.376  1.00  0.00    -0.156 NA
HETATM    3  C   UNL     1     -41.175  55.609 -50.987  1.00  0.00     0.055 A 
HETATM    4  C   UNL     1     -40.518  54.529 -50.206  1.00  0.00     0.072 C 
HETATM    5  C   UNL     1     -41.116  55.817 -52.386  1.00  0.00     0.079 A 
HETATM    6  C   UNL     1     -41.882  56.933 -52.626  1.00  0.00     0.152 A 
ENDROOT
BRANCH   6   7
HETATM    7  N   UNL     1     -42.165  57.559 -53.835  1.00  0.00    -0.303 N 
HETATM    8  C   UNL     1     -41.495  58.722 -54.327  1.00  0.00     0.315 C 
HETATM    9  O   UNL     1     -40.617  59.303 -53.712  1.00  0.00    -0.262 OA
HETATM   10  H   UNL     1     -42.901  57.154 -54.427  1.00  0.00     0.171 HD
BRANCH   8  11
HETATM   11  C   UNL     1     -41.962  59.192 -55.716  1.00  0.00     0.310 C 
HETATM   12  N   UNL     1     -42.695  58.259 -56.419  1.00  0.00    -0.348 N 
HETATM   13  H   UNL     1     -42.776  57.327 -56.016  1.00  0.00     0.163 HD
HETATM   14  O   UNL     1     -41.666  60.321 -56.084  1.00  0.00    -0.262 OA
BRANCH  12  15
HETATM   15  C   UNL     1     -43.165  58.469 -57.783  1.00  0.00     0.085 C 
HETATM   16  C   UNL     1     -44.398  57.591 -58.035  1.00  0.00     0.034 C 
HETATM   17  C   UNL     1     -44.944  57.676 -59.475  1.00  0.00    -0.045 C 
HETATM   18  C   UNL     1     -45.678  59.010 -59.699  1.00  0.00     0.015 C 
HETATM   19  C   UNL     1     -45.985  56.551 -59.673  1.00  0.00     0.015 C 
HETATM   20  C   UNL     1     -43.802  57.467 -60.498  1.00  0.00     0.013 C 
HETATM   21  C   UNL     1     -42.497  58.241 -60.247  1.00  0.00    -0.016 C 
HETATM   22  C   UNL     1     -42.050  58.142 -58.783  1.00  0.00     0.029 C 
HETATM   23  C   UNL     1     -42.542  59.690 -60.735  1.00  0.00     0.010 C 
ENDBRANCH  12  15
ENDBRANCH   8  11
ENDBRANCH   6   7
BRANCH   1  24
HETATM   24  C   UNL     1     -43.181  58.438 -51.122  1.00  0.00     0.732 A 
HETATM   25  N   UNL     1     -44.469  58.064 -50.895  1.00  0.00    -0.152 N 
HETATM   26  C   UNL     1     -45.434  58.980 -50.625  1.00  0.00     0.268 A 
HETATM   27  H   UNL     1     -44.729  57.083 -50.928  1.00  0.00     0.188 HD
HETATM   28  C   UNL     1     -44.974  60.399 -50.592  1.00  0.00     0.035 A 
HETATM   29  O   UNL     1     -46.597  58.654 -50.422  1.00  0.00    -0.267 OA
HETATM   30  C   UNL     1     -43.666  60.640 -50.833  1.00  0.00     0.061 A 
HETATM   31  N   UNL     1     -42.736  59.654 -51.108  1.00  0.00    -0.067 NA
HETATM   32  C   UNL     1     -43.068  62.026 -50.804  1.00  0.00     0.072 C 
BRANCH  28  33
HETATM   33  C   UNL     1     -46.048  61.424 -50.331  1.00  0.00     0.042 C 
HETATM   34  C   UNL     1     -46.709  61.901 -51.617  1.00  0.00     0.010 C 
ENDBRANCH  28  33
ENDBRANCH   1  24
TORSDOF 5
ENDMDL
MODEL 6
REMARK VINA RESULT:      -7.8      2.627      8.149
REMARK  5 active torsions:
REMARK  status: ('A' for Active; 'I' for Inactive)
REMARK    1  A    between atoms: C_2  and  C_3 
REMARK    2  A    between atoms: C_7  and  N_8 
REMARK    3  A    between atoms: C_13  and  N_14 
REMARK       I    between atoms: N_14  and  C_15 
REMARK    4  A    between atoms: C_15  and  C_16 
REMARK       I    between atoms: C_16  and  N_17 
REMARK    5  A    between atoms: N_17  and  C_18 
ROOT
HETATM    1  N   UNL     1     -45.770  58.261 -60.165  1.00  0.00    -0.045 N 
HETATM    2  N   UNL     1     -46.713  58.311 -61.147  1.00  0.00    -0.156 NA
HETATM    3  C   UNL     1     -47.399  57.171 -61.002  1.00  0.00     0.055 A 
HETATM    4  C   UNL     1     -48.533  56.849 -61.906  1.00  0.00     0.072 C 
HETATM    5  C   UNL     1     -46.906  56.390 -59.929  1.00  0.00     0.079 A 
HETATM    6  C   UNL     1     -45.856  57.105 -59.404  1.00  0.00     0.152 A 
ENDROOT
BRANCH   6   7
HETATM    7  N   UNL     1     -45.018  56.782 -58.342  1.00  0.00    -0.303 N 
HETATM    8  C   UNL     1     -43.670  56.325 -58.477  1.00  0.00     0.315 C 
HETATM    9  O   UNL     1     -43.125  56.147 -59.553  1.00  0.00    -0.262 OA
HETATM   10  H   UNL     1     -45.386  56.886 -57.388  1.00  0.00     0.171 HD
BRANCH   8  11
HETATM   11  C   UNL     1     -42.939  56.081 -57.145  1.00  0.00     0.310 C 
HETATM   12  N   UNL     1     -43.206  54.860 -56.562  1.00  0.00    -0.348 N 
HETATM   13  H   UNL     1     -43.923  54.281 -56.996  1.00  0.00     0.163 HD
HETATM   14  O   UNL     1     -42.195  56.952 -56.715  1.00  0.00    -0.262 OA
BRANCH  12  15
HETATM   15  C   UNL     1     -42.682  54.459 -55.261  1.00  0.00     0.085 C 
HETATM   16  C   UNL     1     -43.107  55.488 -54.205  1.00  0.00     0.034 C 
HETATM   17  C   UNL     1     -42.549  55.206 -52.795  1.00  0.00    -0.045 C 
HETATM   18  C   UNL     1     -43.293  54.026 -52.144  1.00  0.00     0.015 C 
HETATM   19  C   UNL     1     -42.806  56.444 -51.908  1.00  0.00     0.015 C 
HETATM   20  C   UNL     1     -41.022  54.961 -52.858  1.00  0.00     0.013 C 
HETATM   21  C   UNL     1     -40.517  54.018 -53.962  1.00  0.00    -0.016 C 
HETATM   22  C   UNL     1     -41.155  54.338 -55.321  1.00  0.00     0.029 C 
HETATM   23  C   UNL     1     -40.645  52.536 -53.606  1.00  0.00     0.010 C 
ENDBRANCH  12  15
ENDBRANCH   8  11
ENDBRANCH   6   7
BRANCH   1  24
HETATM   24  C   UNL     1     -44.847  59.303 -60.009  1.00  0.00     0.732 A 
HETATM   25  N   UNL     1     -43.711  59.092 -60.726  1.00  0.00    -0.152 N 
HETATM   26  C   UNL     1     -42.687  59.982 -60.707  1.00  0.00     0.268 A 
HETATM   27  H   UNL     1     -43.611  58.252 -61.289  1.00  0.00     0.188 HD
HETATM   28  C   UNL     1     -42.907  61.189 -59.857  1.00  0.00     0.035 A 
HETATM   29  O   UNL     1     -41.658  59.800 -61.346  1.00  0.00    -0.267 OA
HETATM   30  C   UNL     1     -44.082  61.283 -59.194  1.00  0.00     0.061 A 
HETATM   31  N   UNL     1     -45.083  60.331 -59.257  1.00  0.00    -0.067 NA
HETATM   32  C   UNL     1     -44.441  62.463 -58.325  1.00  0.00     0.072 C 
BRANCH  28  33
HETATM   33  C   UNL     1     -41.758  62.163 -59.801  1.00  0.00     0.042 C 
HETATM   34  C   UNL     1     -40.819  61.874 -58.639  1.00  0.00     0.010 C 
ENDBRANCH  28  33
ENDBRANCH   1  24
TORSDOF 5
ENDMDL
MODEL 7
REMARK VINA RESULT:      -7.7      2.109      2.762
REMARK  5 active torsions:
REMARK  status: ('A' for Active; 'I' for Inactive)
REMARK    1  A    between atoms: C_2  and  C_3 
REMARK    2  A    between atoms: C_7  and  N_8 
REMARK    3  A    between atoms: C_13  and  N_14 
REMARK       I    between atoms: N_14  and  C_15 
REMARK    4  A    between atoms: C_15  and  C_16 
REMARK       I    between atoms: C_16  and  N_17 
REMARK    5  A    between atoms: N_17  and  C_18 
ROOT
HETATM    1  N   UNL     1     -41.955  55.910 -50.783  1.00  0.00    -0.045 N 
HETATM    2  N   UNL     1     -41.454  55.464 -49.597  1.00  0.00    -0.156 NA
HETATM    3  C   UNL     1     -41.226  54.162 -49.806  1.00  0.00     0.055 A 
HETATM    4  C   UNL     1     -40.668  53.308 -48.726  1.00  0.00     0.072 C 
HETATM    5  C   UNL     1     -41.573  53.768 -51.121  1.00  0.00     0.079 A 
HETATM    6  C   UNL     1     -42.043  54.905 -51.734  1.00  0.00     0.152 A 
ENDROOT
BRANCH   6   7
HETATM    7  N   UNL     1     -42.525  55.067 -53.029  1.00  0.00    -0.303 N 
HETATM    8  C   UNL     1     -41.764  55.585 -54.122  1.00  0.00     0.315 C 
HETATM    9  O   UNL     1     -40.610  55.966 -54.018  1.00  0.00    -0.262 OA
HETATM   10  H   UNL     1     -43.495  54.788 -53.221  1.00  0.00     0.171 HD
BRANCH   8  11
HETATM   11  C   UNL     1     -42.513  55.620 -55.466  1.00  0.00     0.310 C 
HETATM   12  N   UNL     1     -42.702  56.885 -55.983  1.00  0.00    -0.348 N 
HETATM   13  H   UNL     1     -42.429  57.674 -55.401  1.00  0.00     0.163 HD
HETATM   14  O   UNL     1     -42.871  54.562 -55.966  1.00  0.00    -0.262 OA
BRANCH  12  15
HETATM   15  C   UNL     1     -43.456  57.149 -57.203  1.00  0.00     0.085 C 
HETATM   16  C   UNL     1     -42.485  57.551 -58.322  1.00  0.00     0.034 C 
HETATM   17  C   UNL     1     -43.178  57.926 -59.648  1.00  0.00    -0.045 C 
HETATM   18  C   UNL     1     -43.696  56.665 -60.363  1.00  0.00     0.015 C 
HETATM   19  C   UNL     1     -42.132  58.575 -60.582  1.00  0.00     0.015 C 
HETATM   20  C   UNL     1     -44.308  58.952 -59.396  1.00  0.00     0.013 C 
HETATM   21  C   UNL     1     -45.258  58.661 -58.221  1.00  0.00    -0.016 C 
HETATM   22  C   UNL     1     -44.491  58.253 -56.957  1.00  0.00     0.029 C 
HETATM   23  C   UNL     1     -46.367  57.665 -58.564  1.00  0.00     0.010 C 
ENDBRANCH  12  15
ENDBRANCH   8  11
ENDBRANCH   6   7
BRANCH   1  24
HETATM   24  C   UNL     1     -42.321  57.252 -50.943  1.00  0.00     0.732 A 
HETATM   25  N   UNL     1     -41.354  58.102 -50.502  1.00  0.00    -0.152 N 
HETATM   26  C   UNL     1     -41.516  59.448 -50.562  1.00  0.00     0.268 A 
HETATM   27  H   UNL     1     -40.490  57.736 -50.114  1.00  0.00     0.188 HD
HETATM   28  C   UNL     1     -42.810  59.911 -51.144  1.00  0.00     0.035 A 
HETATM   29  O   UNL     1     -40.654  60.222 -50.165  1.00  0.00    -0.267 OA
HETATM   30  C   UNL     1     -43.689  58.965 -51.548  1.00  0.00     0.061 A 
HETATM   31  N   UNL     1     -43.458  57.605 -51.452  1.00  0.00    -0.067 NA
HETATM   32  C   UNL     1     -45.019  59.297 -52.178  1.00  0.00     0.072 C 
BRANCH  28  33
HETATM   33  C   UNL     1     -43.011  61.404 -51.178  1.00  0.00     0.042 C 
HETATM   34  C   UNL     1     -43.722  61.914 -49.932  1.00  0.00     0.010 C 
ENDBRANCH  28  33
ENDBRANCH   1  24
TORSDOF 5
ENDMDL
MODEL 8
REMARK VINA RESULT:      -7.7      2.723      8.538
REMARK  5 active torsions:
REMARK  status: ('A' for Active; 'I' for Inactive)
REMARK    1  A    between atoms: C_2  and  C_3 
REMARK    2  A    between atoms: C_7  and  N_8 
REMARK    3  A    between atoms: C_13  and  N_14 
REMARK       I    between atoms: N_14  and  C_15 
REMARK    4  A    between atoms: C_15  and  C_16 
REMARK       I    between atoms: C_16  and  N_17 
REMARK    5  A    between atoms: N_17  and  C_18 
ROOT
HETATM    1  N   UNL     1     -42.950  59.583 -59.288  1.00  0.00    -0.045 N 
HETATM    2  N   UNL     1     -42.590  60.590 -60.132  1.00  0.00    -0.156 NA
HETATM    3  C   UNL     1     -41.590  61.211 -59.495  1.00  0.00     0.055 A 
HETATM    4  C   UNL     1     -40.919  62.387 -60.104  1.00  0.00     0.072 C 
HETATM    5  C   UNL     1     -41.302  60.606 -58.248  1.00  0.00     0.079 A 
HETATM    6  C   UNL     1     -42.189  59.562 -58.130  1.00  0.00     0.152 A 
ENDROOT
BRANCH   6   7
HETATM    7  N   UNL     1     -42.339  58.652 -57.089  1.00  0.00    -0.303 N 
HETATM    8  C   UNL     1     -43.479  58.582 -56.228  1.00  0.00     0.315 C 
HETATM    9  O   UNL     1     -44.430  59.340 -56.307  1.00  0.00    -0.262 OA
HETATM   10  H   UNL     1     -41.585  57.974 -56.929  1.00  0.00     0.171 HD
BRANCH   8  11
HETATM   11  C   UNL     1     -43.423  57.453 -55.183  1.00  0.00     0.310 C 
HETATM   12  N   UNL     1     -42.265  56.704 -55.211  1.00  0.00    -0.348 N 
HETATM   13  H   UNL     1     -41.607  56.889 -55.966  1.00  0.00     0.163 HD
HETATM   14  O   UNL     1     -44.372  57.308 -54.425  1.00  0.00    -0.262 OA
BRANCH  12  15
HETATM   15  C   UNL     1     -42.041  55.540 -54.362  1.00  0.00     0.085 C 
HETATM   16  C   UNL     1     -41.949  55.990 -52.898  1.00  0.00     0.034 C 
HETATM   17  C   UNL     1     -41.641  54.847 -51.909  1.00  0.00    -0.045 C 
HETATM   18  C   UNL     1     -42.882  53.960 -51.702  1.00  0.00     0.015 C 
HETATM   19  C   UNL     1     -41.295  55.465 -50.536  1.00  0.00     0.015 C 
HETATM   20  C   UNL     1     -40.421  54.027 -52.395  1.00  0.00     0.013 C 
HETATM   21  C   UNL     1     -40.401  53.630 -53.880  1.00  0.00    -0.016 C 
HETATM   22  C   UNL     1     -40.762  54.812 -54.790  1.00  0.00     0.029 C 
HETATM   23  C   UNL     1     -41.240  52.390 -54.193  1.00  0.00     0.010 C 
ENDBRANCH  12  15
ENDBRANCH   8  11
ENDBRANCH   6   7
BRANCH   1  24
HETATM   24  C   UNL     1     -43.990  58.707 -59.626  1.00  0.00     0.732 A 
HETATM   25  N   UNL     1     -45.210  59.304 -59.538  1.00  0.00    -0.152 N 
HETATM   26  C   UNL     1     -46.351  58.624 -59.818  1.00  0.00     0.268 A 
HETATM   27  H   UNL     1     -45.283  60.276 -59.254  1.00  0.00     0.188 HD
HETATM   28  C   UNL     1     -46.162  57.202 -60.228  1.00  0.00     0.035 A 
HETATM   29  O   UNL     1     -47.454  59.150 -59.738  1.00  0.00    -0.267 OA
HETATM   30  C   UNL     1     -44.897  56.727 -60.279  1.00  0.00     0.061 A 
HETATM   31  N   UNL     1     -43.776  57.479 -59.974  1.00  0.00    -0.067 NA
HETATM   32  C   UNL     1     -44.566  55.317 -60.704  1.00  0.00     0.072 C 
BRANCH  28  33
HETATM   33  C   UNL     1     -47.428  56.431 -60.503  1.00  0.00     0.042 C 
HETATM   34  C   UNL     1     -47.916  56.626 -61.932  1.00  0.00     0.010 C 
ENDBRANCH  28  33
ENDBRANCH   1  24
TORSDOF 5
ENDMDL
MODEL 9
REMARK VINA RESULT:      -7.6      3.392      7.337
REMARK  5 active torsions:
REMARK  status: ('A' for Active; 'I' for Inactive)
REMARK    1  A    between atoms: C_2  and  C_3 
REMARK    2  A    between atoms: C_7  and  N_8 
REMARK    3  A    between atoms: C_13  and  N_14 
REMARK       I    between atoms: N_14  and  C_15 
REMARK    4  A    between atoms: C_15  and  C_16 
REMARK       I    between atoms: C_16  and  N_17 
REMARK    5  A    between atoms: N_17  and  C_18 
ROOT
HETATM    1  N   UNL     1     -41.834  56.098 -52.335  1.00  0.00    -0.045 N 
HETATM    2  N   UNL     1     -40.980  55.039 -52.254  1.00  0.00    -0.156 NA
HETATM    3  C   UNL     1     -40.834  54.836 -50.939  1.00  0.00     0.055 A 
HETATM    4  C   UNL     1     -39.958  53.746 -50.435  1.00  0.00     0.072 C 
HETATM    5  C   UNL     1     -41.592  55.753 -50.174  1.00  0.00     0.079 A 
HETATM    6  C   UNL     1     -42.227  56.560 -51.089  1.00  0.00     0.152 A 
ENDROOT
BRANCH   6   7
HETATM    7  N   UNL     1     -43.086  57.631 -50.866  1.00  0.00    -0.303 N 
HETATM    8  C   UNL     1     -44.510  57.532 -50.794  1.00  0.00     0.315 C 
HETATM    9  O   UNL     1     -45.121  56.489 -50.950  1.00  0.00    -0.262 OA
HETATM   10  H   UNL     1     -42.671  58.562 -50.733  1.00  0.00     0.171 HD
BRANCH   8  11
HETATM   11  C   UNL     1     -45.231  58.857 -50.490  1.00  0.00     0.310 C 
HETATM   12  N   UNL     1     -44.396  59.887 -50.107  1.00  0.00    -0.348 N 
HETATM   13  H   UNL     1     -43.413  59.664 -49.963  1.00  0.00     0.163 HD
HETATM   14  O   UNL     1     -46.447  58.906 -50.609  1.00  0.00    -0.262 OA
BRANCH  12  15
HETATM   15  C   UNL     1     -44.877  61.201 -49.697  1.00  0.00     0.085 C 
HETATM   16  C   UNL     1     -43.768  62.239 -49.918  1.00  0.00     0.034 C 
HETATM   17  C   UNL     1     -44.140  63.662 -49.452  1.00  0.00    -0.045 C 
HETATM   18  C   UNL     1     -45.132  64.311 -50.433  1.00  0.00     0.015 C 
HETATM   19  C   UNL     1     -42.862  64.531 -49.462  1.00  0.00     0.015 C 
HETATM   20  C   UNL     1     -44.693  63.629 -48.007  1.00  0.00     0.013 C 
HETATM   21  C   UNL     1     -45.736  62.544 -47.690  1.00  0.00    -0.016 C 
HETATM   22  C   UNL     1     -45.311  61.171 -48.227  1.00  0.00     0.029 C 
HETATM   23  C   UNL     1     -47.155  62.914 -48.125  1.00  0.00     0.010 C 
ENDBRANCH  12  15
ENDBRANCH   8  11
ENDBRANCH   6   7
BRANCH   1  24
HETATM   24  C   UNL     1     -42.222  56.607 -53.581  1.00  0.00     0.732 A 
HETATM   25  N   UNL     1     -42.365  55.626 -54.513  1.00  0.00    -0.152 N 
HETATM   26  C   UNL     1     -42.730  55.911 -55.788  1.00  0.00     0.268 A 
HETATM   27  H   UNL     1     -42.195  54.656 -54.263  1.00  0.00     0.188 HD
HETATM   28  C   UNL     1     -42.962  57.357 -56.078  1.00  0.00     0.035 A 
HETATM   29  O   UNL     1     -42.858  55.036 -56.636  1.00  0.00    -0.267 OA
HETATM   30  C   UNL     1     -42.788  58.234 -55.065  1.00  0.00     0.061 A 
HETATM   31  N   UNL     1     -42.409  57.872 -53.785  1.00  0.00    -0.067 NA
HETATM   32  C   UNL     1     -43.016  59.719 -55.217  1.00  0.00     0.072 C 
BRANCH  28  33
HETATM   33  C   UNL     1     -43.330  57.683 -57.503  1.00  0.00     0.042 C 
HETATM   34  C   UNL     1     -42.110  58.032 -58.343  1.00  0.00     0.010 C 
ENDBRANCH  28  33
ENDBRANCH   1  24
TORSDOF 5
ENDMDL
MODEL 10
REMARK VINA RESULT:      -7.5      2.286      2.962
REMARK  5 active torsions:
REMARK  status: ('A' for Active; 'I' for Inactive)
REMARK    1  A    between atoms: C_2  and  C_3 
REMARK    2  A    between atoms: C_7  and  N_8 
REMARK    3  A    between atoms: C_13  and  N_14 
REMARK       I    between atoms: N_14  and  C_15 
REMARK    4  A    between atoms: C_15  and  C_16 
REMARK       I    between atoms: C_16  and  N_17 
REMARK    5  A    between atoms: N_17  and  C_18 
ROOT
HETATM    1  N   UNL     1     -42.067  56.445 -51.211  1.00  0.00    -0.045 N 
HETATM    2  N   UNL     1     -41.741  56.072 -49.941  1.00  0.00    -0.156 NA
HETATM    3  C   UNL     1     -41.010  54.963 -50.102  1.00  0.00     0.055 A 
HETATM    4  C   UNL     1     -40.459  54.242 -48.925  1.00  0.00     0.072 C 
HETATM    5  C   UNL     1     -40.858  54.623 -51.467  1.00  0.00     0.079 A 
HETATM    6  C   UNL     1     -41.547  55.585 -52.166  1.00  0.00     0.152 A 
ENDROOT
BRANCH   6   7
HETATM    7  N   UNL     1     -41.725  55.714 -53.540  1.00  0.00    -0.303 N 
HETATM    8  C   UNL     1     -42.925  55.376 -54.240  1.00  0.00     0.315 C 
HETATM    9  O   UNL     1     -43.912  54.910 -53.698  1.00  0.00    -0.262 OA
HETATM   10  H   UNL     1     -40.945  56.087 -54.094  1.00  0.00     0.171 HD
BRANCH   8  11
HETATM   11  C   UNL     1     -42.884  55.656 -55.753  1.00  0.00     0.310 C 
HETATM   12  N   UNL     1     -43.340  56.906 -56.116  1.00  0.00    -0.348 N 
HETATM   13  H   UNL     1     -43.750  57.485 -55.385  1.00  0.00     0.163 HD
HETATM   14  O   UNL     1     -42.461  54.785 -56.501  1.00  0.00    -0.262 OA
BRANCH  12  15
HETATM   15  C   UNL     1     -43.462  57.347 -57.501  1.00  0.00     0.085 C 
HETATM   16  C   UNL     1     -42.509  58.525 -57.743  1.00  0.00     0.034 C 
HETATM   17  C   UNL     1     -42.601  59.124 -59.162  1.00  0.00    -0.045 C 
HETATM   18  C   UNL     1     -41.931  58.193 -60.188  1.00  0.00     0.015 C 
HETATM   19  C   UNL     1     -41.819  60.456 -59.185  1.00  0.00     0.015 C 
HETATM   20  C   UNL     1     -44.076  59.420 -59.527  1.00  0.00     0.013 C 
HETATM   21  C   UNL     1     -45.102  58.317 -59.215  1.00  0.00    -0.016 C 
HETATM   22  C   UNL     1     -44.910  57.746 -57.803  1.00  0.00     0.029 C 
HETATM   23  C   UNL     1     -45.158  57.217 -60.275  1.00  0.00     0.010 C 
ENDBRANCH  12  15
ENDBRANCH   8  11
ENDBRANCH   6   7
BRANCH   1  24
HETATM   24  C   UNL     1     -42.848  57.585 -51.441  1.00  0.00     0.732 A 
HETATM   25  N   UNL     1     -44.077  57.487 -50.866  1.00  0.00    -0.152 N 
HETATM   26  C   UNL     1     -44.991  58.484 -50.977  1.00  0.00     0.268 A 
HETATM   27  H   UNL     1     -44.331  56.654 -50.343  1.00  0.00     0.188 HD
HETATM   28  C   UNL     1     -44.544  59.674 -51.759  1.00  0.00     0.035 A 
HETATM   29  O   UNL     1     -46.101  58.405 -50.466  1.00  0.00    -0.267 OA
HETATM   30  C   UNL     1     -43.296  59.650 -52.279  1.00  0.00     0.061 A 
HETATM   31  N   UNL     1     -42.417  58.593 -52.129  1.00  0.00    -0.067 NA
HETATM   32  C   UNL     1     -42.713  60.799 -53.066  1.00  0.00     0.072 C 
BRANCH  28  33
HETATM   33  C   UNL     1     -45.568  60.769 -51.918  1.00  0.00     0.042 C 
HETATM   34  C   UNL     1     -45.336  61.915 -50.943  1.00  0.00     0.010 C 
ENDBRANCH  28  33
ENDBRANCH   1  24
TORSDOF 5
ENDMDL
