MODEL 1
REMARK VINA RESULT:      -9.6      0.000      0.000
REMARK  7 active torsions:
REMARK  status: ('A' for Active; 'I' for Inactive)
REMARK    1  A    between atoms: C_4  and  C_5 
REMARK    2  A    between atoms: C_5  and  C_6 
REMARK    3  A    between atoms: C_6  and  N_7 
REMARK       I    between atoms: N_7  and  C_8 
REMARK    4  A    between atoms: C_8  and  C_9 
REMARK    5  A    between atoms: C_10  and  N_11 
REMARK    6  A    between atoms: N_12  and  N_13 
REMARK    7  A    between atoms: C_14  and  C_15 
ROOT
HETATM    1  C   UNL     1     -43.190  55.802 -55.820  1.00  0.00     0.110 A 
HETATM    2  C   UNL     1     -44.001  56.266 -54.791  1.00  0.00     0.143 A 
HETATM    3  N   UNL     1     -44.620  57.445 -55.216  1.00  0.00    -0.197 N 
HETATM    4  C   UNL     1     -44.083  57.793 -56.441  1.00  0.00     0.183 A 
HETATM    5  C   UNL     1     -43.216  56.782 -56.839  1.00  0.00     0.125 A 
HETATM    6  N   UNL     1     -42.519  56.868 -58.003  1.00  0.00    -0.242 NA
HETATM    7  C   UNL     1     -42.724  58.002 -58.698  1.00  0.00     0.086 A 
HETATM    8  C   UNL     1     -43.629  59.011 -58.274  1.00  0.00     0.088 A 
HETATM    9  N   UNL     1     -44.343  58.921 -57.144  1.00  0.00    -0.225 NA
HETATM   10  C   UNL     1     -42.008  58.200 -59.872  1.00  0.00     0.034 A 
HETATM   11  C   UNL     1     -42.157  59.359 -60.637  1.00  0.00     0.002 A 
HETATM   12  C   UNL     1     -43.051  60.338 -60.226  1.00  0.00     0.002 A 
HETATM   13  C   UNL     1     -43.778  60.153 -59.050  1.00  0.00     0.034 A 
ENDROOT
BRANCH   1  14
HETATM   14  C   UNL     1     -42.437  54.565 -55.766  1.00  0.00     0.257 C 
HETATM   15  N   UNL     1     -41.075  54.760 -55.933  1.00  0.00    -0.356 N 
HETATM   16  H   UNL     1     -40.836  55.730 -56.116  1.00  0.00     0.162 HD
HETATM   17  O   UNL     1     -42.953  53.496 -55.467  1.00  0.00    -0.267 OA
BRANCH  15  18
HETATM   18  C   UNL     1     -40.116  54.090 -55.076  1.00  0.00     0.127 C 
BRANCH  18  19
HETATM   19  C   UNL     1     -40.514  53.827 -53.624  1.00  0.00     0.058 C 
BRANCH  19  20
HETATM   20  C   UNL     1     -40.262  52.367 -53.310  1.00  0.00    -0.057 A 
HETATM   21  C   UNL     1     -39.850  51.991 -52.022  1.00  0.00     0.007 A 
HETATM   22  C   UNL     1     -39.508  50.668 -51.745  1.00  0.00     0.001 A 
HETATM   23  C   UNL     1     -39.583  49.705 -52.750  1.00  0.00     0.000 A 
HETATM   24  C   UNL     1     -40.005  50.066 -54.029  1.00  0.00     0.001 A 
HETATM   25  C   UNL     1     -40.341  51.391 -54.310  1.00  0.00     0.007 A 
ENDBRANCH  19  20
ENDBRANCH  18  19
ENDBRANCH  15  18
ENDBRANCH   1  14
BRANCH   2  26
HETATM   26  N   UNL     1     -44.204  55.737 -53.550  1.00  0.00    -0.383 N 
HETATM   27  H   UNL     1     -45.115  55.857 -53.112  1.00  0.00     0.157 HD
HETATM   28  H   UNL     1     -43.461  55.795 -52.858  1.00  0.00     0.157 HD
ENDBRANCH   2  26
BRANCH   3  29
HETATM   29  N   UNL     1     -45.437  58.252 -54.471  1.00  0.00    -0.176 NA
HETATM   30  C   UNL     1     -44.900  59.211 -53.781  1.00  0.00     0.153 C 
BRANCH  30  31
HETATM   31  C   UNL     1     -43.491  59.467 -53.564  1.00  0.00     0.011 A 
HETATM   32  C   UNL     1     -42.655  58.857 -52.574  1.00  0.00     0.004 A 
HETATM   33  C   UNL     1     -41.369  59.371 -52.741  1.00  0.00     0.043 A 
HETATM   34  C   UNL     1     -42.881  57.938 -51.528  1.00  0.00     0.014 A 
HETATM   35  C   UNL     1     -40.292  59.001 -51.926  1.00  0.00     0.030 A 
HETATM   36  N   UNL     1     -41.417  60.245 -53.805  1.00  0.00    -0.364 N 
HETATM   37  C   UNL     1     -40.544  58.093 -50.894  1.00  0.00     0.002 A 
HETATM   38  C   UNL     1     -41.820  57.569 -50.693  1.00  0.00     0.001 A 
HETATM   39  H   UNL     1     -40.622  60.761 -54.160  1.00  0.00     0.165 HD
HETATM   40  C   UNL     1     -42.691  60.315 -54.303  1.00  0.00     0.102 A 
ENDBRANCH  30  31
ENDBRANCH   3  29
TORSDOF 7
ENDMDL
MODEL 2
REMARK VINA RESULT:      -9.5      1.622      5.250
REMARK  7 active torsions:
REMARK  status: ('A' for Active; 'I' for Inactive)
REMARK    1  A    between atoms: C_4  and  C_5 
REMARK    2  A    between atoms: C_5  and  C_6 
REMARK    3  A    between atoms: C_6  and  N_7 
REMARK       I    between atoms: N_7  and  C_8 
REMARK    4  A    between atoms: C_8  and  C_9 
REMARK    5  A    between atoms: C_10  and  N_11 
REMARK    6  A    between atoms: N_12  and  N_13 
REMARK    7  A    between atoms: C_14  and  C_15 
ROOT
HETATM    1  C   UNL     1     -42.852  56.948 -55.570  1.00  0.00     0.110 A 
HETATM    2  C   UNL     1     -43.960  57.565 -56.137  1.00  0.00     0.143 A 
HETATM    3  N   UNL     1     -44.219  58.742 -55.429  1.00  0.00    -0.197 N 
HETATM    4  C   UNL     1     -43.373  58.779 -54.337  1.00  0.00     0.183 A 
HETATM    5  C   UNL     1     -42.509  57.694 -54.419  1.00  0.00     0.125 A 
HETATM    6  N   UNL     1     -41.577  57.460 -53.457  1.00  0.00    -0.242 NA
HETATM    7  C   UNL     1     -41.589  58.339 -52.438  1.00  0.00     0.086 A 
HETATM    8  C   UNL     1     -42.473  59.449 -52.389  1.00  0.00     0.088 A 
HETATM    9  N   UNL     1     -43.374  59.704 -53.348  1.00  0.00    -0.225 NA
HETATM   10  C   UNL     1     -40.708  58.142 -51.381  1.00  0.00     0.034 A 
HETATM   11  C   UNL     1     -40.674  59.004 -50.283  1.00  0.00     0.002 A 
HETATM   12  C   UNL     1     -41.532  60.094 -50.244  1.00  0.00     0.002 A 
HETATM   13  C   UNL     1     -42.421  60.306 -51.298  1.00  0.00     0.034 A 
ENDROOT
BRANCH   1  14
HETATM   14  C   UNL     1     -42.249  55.732 -56.080  1.00  0.00     0.257 C 
HETATM   15  N   UNL     1     -41.018  55.462 -55.501  1.00  0.00    -0.356 N 
HETATM   16  H   UNL     1     -40.720  56.186 -54.855  1.00  0.00     0.162 HD
HETATM   17  O   UNL     1     -42.842  54.974 -56.835  1.00  0.00    -0.267 OA
BRANCH  15  18
HETATM   18  C   UNL     1     -40.685  54.125 -55.052  1.00  0.00     0.127 C 
BRANCH  18  19
HETATM   19  C   UNL     1     -40.659  53.860 -53.547  1.00  0.00     0.058 C 
BRANCH  19  20
HETATM   20  C   UNL     1     -40.224  52.428 -53.315  1.00  0.00    -0.057 A 
HETATM   21  C   UNL     1     -40.372  51.480 -54.340  1.00  0.00     0.007 A 
HETATM   22  C   UNL     1     -40.079  50.136 -54.110  1.00  0.00     0.001 A 
HETATM   23  C   UNL     1     -39.628  49.728 -52.856  1.00  0.00     0.000 A 
HETATM   24  C   UNL     1     -39.464  50.664 -51.836  1.00  0.00     0.001 A 
HETATM   25  C   UNL     1     -39.762  52.009 -52.062  1.00  0.00     0.007 A 
ENDBRANCH  19  20
ENDBRANCH  18  19
ENDBRANCH  15  18
ENDBRANCH   1  14
BRANCH   2  26
HETATM   26  N   UNL     1     -44.728  57.158 -57.188  1.00  0.00    -0.383 N 
HETATM   27  H   UNL     1     -45.610  57.637 -57.363  1.00  0.00     0.157 HD
HETATM   28  H   UNL     1     -44.812  56.164 -57.386  1.00  0.00     0.157 HD
ENDBRANCH   2  26
BRANCH   3  29
HETATM   29  N   UNL     1     -45.269  59.598 -55.624  1.00  0.00    -0.176 NA
HETATM   30  C   UNL     1     -45.097  60.622 -56.403  1.00  0.00     0.153 C 
BRANCH  30  31
HETATM   31  C   UNL     1     -43.861  61.085 -57.001  1.00  0.00     0.011 A 
HETATM   32  C   UNL     1     -43.376  60.769 -58.312  1.00  0.00     0.004 A 
HETATM   33  C   UNL     1     -42.172  61.451 -58.486  1.00  0.00     0.043 A 
HETATM   34  C   UNL     1     -43.836  59.939 -59.356  1.00  0.00     0.014 A 
HETATM   35  C   UNL     1     -41.410  61.358 -59.656  1.00  0.00     0.030 A 
HETATM   36  N   UNL     1     -41.943  62.169 -57.332  1.00  0.00    -0.364 N 
HETATM   37  C   UNL     1     -41.884  60.524 -60.672  1.00  0.00     0.002 A 
HETATM   38  C   UNL     1     -43.078  59.821 -60.527  1.00  0.00     0.001 A 
HETATM   39  H   UNL     1     -41.142  62.768 -57.179  1.00  0.00     0.165 HD
HETATM   40  C   UNL     1     -42.950  61.951 -56.430  1.00  0.00     0.102 A 
ENDBRANCH  30  31
ENDBRANCH   3  29
TORSDOF 7
ENDMDL
MODEL 3
REMARK VINA RESULT:      -9.3      2.092      3.457
REMARK  7 active torsions:
REMARK  status: ('A' for Active; 'I' for Inactive)
REMARK    1  A    between atoms: C_4  and  C_5 
REMARK    2  A    between atoms: C_5  and  C_6 
REMARK    3  A    between atoms: C_6  and  N_7 
REMARK       I    between atoms: N_7  and  C_8 
REMARK    4  A    between atoms: C_8  and  C_9 
REMARK    5  A    between atoms: C_10  and  N_11 
REMARK    6  A    between atoms: N_12  and  N_13 
REMARK    7  A    between atoms: C_14  and  C_15 
ROOT
HETATM    1  C   UNL     1     -42.115  57.279 -54.417  1.00  0.00     0.110 A 
HETATM    2  C   UNL     1     -41.763  58.622 -54.337  1.00  0.00     0.143 A 
HETATM    3  N   UNL     1     -42.146  59.249 -55.525  1.00  0.00    -0.197 N 
HETATM    4  C   UNL     1     -42.595  58.276 -56.398  1.00  0.00     0.183 A 
HETATM    5  C   UNL     1     -42.603  57.059 -55.726  1.00  0.00     0.125 A 
HETATM    6  N   UNL     1     -42.976  55.911 -56.351  1.00  0.00    -0.242 NA
HETATM    7  C   UNL     1     -43.302  56.057 -57.647  1.00  0.00     0.086 A 
HETATM    8  C   UNL     1     -43.300  57.317 -58.304  1.00  0.00     0.088 A 
HETATM    9  N   UNL     1     -42.964  58.458 -57.688  1.00  0.00    -0.225 NA
HETATM   10  C   UNL     1     -43.640  54.925 -58.379  1.00  0.00     0.034 A 
HETATM   11  C   UNL     1     -43.975  54.999 -59.734  1.00  0.00     0.002 A 
HETATM   12  C   UNL     1     -43.983  56.233 -60.369  1.00  0.00     0.002 A 
HETATM   13  C   UNL     1     -43.648  57.378 -59.647  1.00  0.00     0.034 A 
ENDROOT
BRANCH   1  14
HETATM   14  C   UNL     1     -41.929  56.325 -53.342  1.00  0.00     0.257 C 
HETATM   15  N   UNL     1     -42.678  55.172 -53.516  1.00  0.00    -0.356 N 
HETATM   16  H   UNL     1     -43.270  55.207 -54.340  1.00  0.00     0.162 HD
HETATM   17  O   UNL     1     -41.095  56.484 -52.461  1.00  0.00    -0.267 OA
BRANCH  15  18
HETATM   18  C   UNL     1     -42.094  53.864 -53.292  1.00  0.00     0.127 C 
BRANCH  18  19
HETATM   19  C   UNL     1     -40.912  53.447 -54.167  1.00  0.00     0.058 C 
BRANCH  19  20
HETATM   20  C   UNL     1     -40.344  52.152 -53.627  1.00  0.00    -0.057 A 
HETATM   21  C   UNL     1     -40.310  51.011 -54.444  1.00  0.00     0.007 A 
HETATM   22  C   UNL     1     -39.893  49.783 -53.931  1.00  0.00     0.001 A 
HETATM   23  C   UNL     1     -39.497  49.685 -52.599  1.00  0.00     0.000 A 
HETATM   24  C   UNL     1     -39.513  50.815 -51.783  1.00  0.00     0.001 A 
HETATM   25  C   UNL     1     -39.937  52.044 -52.292  1.00  0.00     0.007 A 
ENDBRANCH  19  20
ENDBRANCH  18  19
ENDBRANCH  15  18
ENDBRANCH   1  14
BRANCH   2  26
HETATM   26  N   UNL     1     -41.139  59.288 -53.323  1.00  0.00    -0.383 N 
HETATM   27  H   UNL     1     -41.089  60.305 -53.366  1.00  0.00     0.157 HD
HETATM   28  H   UNL     1     -40.287  58.901 -52.925  1.00  0.00     0.157 HD
ENDBRANCH   2  26
BRANCH   3  29
HETATM   29  N   UNL     1     -41.912  60.552 -55.873  1.00  0.00    -0.176 NA
HETATM   30  C   UNL     1     -42.815  61.441 -55.590  1.00  0.00     0.153 C 
BRANCH  30  31
HETATM   31  C   UNL     1     -44.149  61.218 -55.071  1.00  0.00     0.011 A 
HETATM   32  C   UNL     1     -44.550  61.272 -53.697  1.00  0.00     0.004 A 
HETATM   33  C   UNL     1     -45.922  61.028 -53.654  1.00  0.00     0.043 A 
HETATM   34  C   UNL     1     -43.864  61.475 -52.480  1.00  0.00     0.014 A 
HETATM   35  C   UNL     1     -46.649  60.991 -52.458  1.00  0.00     0.030 A 
HETATM   36  N   UNL     1     -46.343  60.851 -54.954  1.00  0.00    -0.364 N 
HETATM   37  C   UNL     1     -45.945  61.189 -51.267  1.00  0.00     0.002 A 
HETATM   38  C   UNL     1     -44.572  61.425 -51.273  1.00  0.00     0.001 A 
HETATM   39  H   UNL     1     -47.300  60.666 -55.227  1.00  0.00     0.165 HD
HETATM   40  C   UNL     1     -45.283  60.958 -55.814  1.00  0.00     0.102 A 
ENDBRANCH  30  31
ENDBRANCH   3  29
TORSDOF 7
ENDMDL
MODEL 4
REMARK VINA RESULT:      -9.2      2.554      7.617
REMARK  7 active torsions:
REMARK  status: ('A' for Active; 'I' for Inactive)
REMARK    1  A    between atoms: C_4  and  C_5 
REMARK    2  A    between atoms: C_5  and  C_6 
REMARK    3  A    between atoms: C_6  and  N_7 
REMARK       I    between atoms: N_7  and  C_8 
REMARK    4  A    between atoms: C_8  and  C_9 
REMARK    5  A    between atoms: C_10  and  N_11 
REMARK    6  A    between atoms: N_12  and  N_13 
REMARK    7  A    between atoms: C_14  and  C_15 
ROOT
HETATM    1  C   UNL     1     -44.255  58.671 -55.848  1.00  0.00     0.110 A 
HETATM    2  C   UNL     1     -43.646  58.916 -57.073  1.00  0.00     0.143 A 
HETATM    3  N   UNL     1     -42.852  57.812 -57.398  1.00  0.00    -0.197 N 
HETATM    4  C   UNL     1     -42.849  56.953 -56.315  1.00  0.00     0.183 A 
HETATM    5  C   UNL     1     -43.724  57.456 -55.359  1.00  0.00     0.125 A 
HETATM    6  N   UNL     1     -43.903  56.826 -54.167  1.00  0.00    -0.242 NA
HETATM    7  C   UNL     1     -43.156  55.720 -53.998  1.00  0.00     0.086 A 
HETATM    8  C   UNL     1     -42.281  55.222 -55.000  1.00  0.00     0.088 A 
HETATM    9  N   UNL     1     -42.122  55.818 -56.189  1.00  0.00    -0.225 NA
HETATM   10  C   UNL     1     -43.233  55.046 -52.785  1.00  0.00     0.034 A 
HETATM   11  C   UNL     1     -42.475  53.900 -52.532  1.00  0.00     0.002 A 
HETATM   12  C   UNL     1     -41.630  53.409 -53.518  1.00  0.00     0.002 A 
HETATM   13  C   UNL     1     -41.544  54.074 -54.741  1.00  0.00     0.034 A 
ENDROOT
BRANCH   1  14
HETATM   14  C   UNL     1     -45.203  59.569 -55.219  1.00  0.00     0.257 C 
HETATM   15  N   UNL     1     -45.385  59.296 -53.872  1.00  0.00    -0.356 N 
HETATM   16  H   UNL     1     -44.864  58.482 -53.562  1.00  0.00     0.162 HD
HETATM   17  O   UNL     1     -45.672  60.539 -55.799  1.00  0.00    -0.267 OA
BRANCH  15  18
HETATM   18  C   UNL     1     -45.408  60.363 -52.892  1.00  0.00     0.127 C 
BRANCH  18  19
HETATM   19  C   UNL     1     -44.105  61.117 -52.622  1.00  0.00     0.058 C 
BRANCH  19  20
HETATM   20  C   UNL     1     -42.991  60.108 -52.441  1.00  0.00    -0.057 A 
HETATM   21  C   UNL     1     -41.953  60.038 -53.383  1.00  0.00     0.007 A 
HETATM   22  C   UNL     1     -40.978  59.045 -53.293  1.00  0.00     0.001 A 
HETATM   23  C   UNL     1     -41.027  58.116 -52.255  1.00  0.00     0.000 A 
HETATM   24  C   UNL     1     -42.046  58.185 -51.306  1.00  0.00     0.001 A 
HETATM   25  C   UNL     1     -43.026  59.175 -51.398  1.00  0.00     0.007 A 
ENDBRANCH  19  20
ENDBRANCH  18  19
ENDBRANCH  15  18
ENDBRANCH   1  14
BRANCH   2  26
HETATM   26  N   UNL     1     -43.738  60.015 -57.875  1.00  0.00    -0.383 N 
HETATM   27  H   UNL     1     -43.642  59.893 -58.882  1.00  0.00     0.157 HD
HETATM   28  H   UNL     1     -43.307  60.886 -57.575  1.00  0.00     0.157 HD
ENDBRANCH   2  26
BRANCH   3  29
HETATM   29  N   UNL     1     -42.031  57.689 -58.486  1.00  0.00    -0.176 NA
HETATM   30  C   UNL     1     -42.501  57.126 -59.557  1.00  0.00     0.153 C 
BRANCH  30  31
HETATM   31  C   UNL     1     -43.773  56.452 -59.721  1.00  0.00     0.011 A 
HETATM   32  C   UNL     1     -45.007  57.048 -60.139  1.00  0.00     0.004 A 
HETATM   33  C   UNL     1     -45.963  56.034 -60.191  1.00  0.00     0.043 A 
HETATM   34  C   UNL     1     -45.407  58.366 -60.447  1.00  0.00     0.014 A 
HETATM   35  C   UNL     1     -47.296  56.265 -60.550  1.00  0.00     0.030 A 
HETATM   36  N   UNL     1     -45.330  54.862 -59.836  1.00  0.00    -0.364 N 
HETATM   37  C   UNL     1     -47.668  57.580 -60.846  1.00  0.00     0.002 A 
HETATM   38  C   UNL     1     -46.740  58.618 -60.793  1.00  0.00     0.001 A 
HETATM   39  H   UNL     1     -45.780  53.957 -59.796  1.00  0.00     0.165 HD
HETATM   40  C   UNL     1     -44.014  55.104 -59.546  1.00  0.00     0.102 A 
ENDBRANCH  30  31
ENDBRANCH   3  29
TORSDOF 7
ENDMDL
MODEL 5
REMARK VINA RESULT:      -9.0      1.961      3.548
REMARK  7 active torsions:
REMARK  status: ('A' for Active; 'I' for Inactive)
REMARK    1  A    between atoms: C_4  and  C_5 
REMARK    2  A    between atoms: C_5  and  C_6 
REMARK    3  A    between atoms: C_6  and  N_7 
REMARK       I    between atoms: N_7  and  C_8 
REMARK    4  A    between atoms: C_8  and  C_9 
REMARK    5  A    between atoms: C_10  and  N_11 
REMARK    6  A    between atoms: N_12  and  N_13 
REMARK    7  A    between atoms: C_14  and  C_15 
ROOT
HETATM    1  C   UNL     1     -42.562  56.983 -54.996  1.00  0.00     0.110 A 
HETATM    2  C   UNL     1     -42.239  57.734 -53.872  1.00  0.00     0.143 A 
HETATM    3  N   UNL     1     -42.040  59.058 -54.269  1.00  0.00    -0.197 N 
HETATM    4  C   UNL     1     -42.091  59.103 -55.650  1.00  0.00     0.183 A 
HETATM    5  C   UNL     1     -42.432  57.839 -56.114  1.00  0.00     0.125 A 
HETATM    6  N   UNL     1     -42.529  57.579 -57.445  1.00  0.00    -0.242 NA
HETATM    7  C   UNL     1     -42.247  58.624 -58.244  1.00  0.00     0.086 A 
HETATM    8  C   UNL     1     -41.916  59.910 -57.740  1.00  0.00     0.088 A 
HETATM    9  N   UNL     1     -41.848  60.183 -56.430  1.00  0.00    -0.225 NA
HETATM   10  C   UNL     1     -42.265  58.432 -59.620  1.00  0.00     0.034 A 
HETATM   11  C   UNL     1     -41.967  59.467 -60.510  1.00  0.00     0.002 A 
HETATM   12  C   UNL     1     -41.655  60.725 -60.015  1.00  0.00     0.002 A 
HETATM   13  C   UNL     1     -41.635  60.934 -58.636  1.00  0.00     0.034 A 
ENDROOT
BRANCH   1  14
HETATM   14  C   UNL     1     -42.900  55.574 -54.963  1.00  0.00     0.257 C 
HETATM   15  N   UNL     1     -41.955  54.783 -55.599  1.00  0.00    -0.356 N 
HETATM   16  H   UNL     1     -41.211  55.325 -56.026  1.00  0.00     0.162 HD
HETATM   17  O   UNL     1     -43.847  55.142 -54.319  1.00  0.00    -0.267 OA
BRANCH  15  18
HETATM   18  C   UNL     1     -41.487  53.552 -54.994  1.00  0.00     0.127 C 
BRANCH  18  19
HETATM   19  C   UNL     1     -40.557  53.655 -53.785  1.00  0.00     0.058 C 
BRANCH  19  20
HETATM   20  C   UNL     1     -40.139  52.259 -53.375  1.00  0.00    -0.057 A 
HETATM   21  C   UNL     1     -40.205  51.209 -54.306  1.00  0.00     0.007 A 
HETATM   22  C   UNL     1     -39.930  49.899 -53.917  1.00  0.00     0.001 A 
HETATM   23  C   UNL     1     -39.577  49.625 -52.597  1.00  0.00     0.000 A 
HETATM   24  C   UNL     1     -39.494  50.662 -51.669  1.00  0.00     0.001 A 
HETATM   25  C   UNL     1     -39.776  51.974 -52.054  1.00  0.00     0.007 A 
ENDBRANCH  19  20
ENDBRANCH  18  19
ENDBRANCH  15  18
ENDBRANCH   1  14
BRANCH   2  26
HETATM   26  N   UNL     1     -42.103  57.328 -52.577  1.00  0.00    -0.383 N 
HETATM   27  H   UNL     1     -42.439  56.401 -52.318  1.00  0.00     0.157 HD
HETATM   28  H   UNL     1     -42.272  57.994 -51.827  1.00  0.00     0.157 HD
ENDBRANCH   2  26
BRANCH   3  29
HETATM   29  N   UNL     1     -41.635  60.097 -53.475  1.00  0.00    -0.176 NA
HETATM   30  C   UNL     1     -42.534  60.911 -53.013  1.00  0.00     0.153 C 
BRANCH  30  31
HETATM   31  C   UNL     1     -43.942  60.965 -53.351  1.00  0.00     0.011 A 
HETATM   32  C   UNL     1     -44.542  61.748 -54.389  1.00  0.00     0.004 A 
HETATM   33  C   UNL     1     -45.909  61.472 -54.381  1.00  0.00     0.043 A 
HETATM   34  C   UNL     1     -44.052  62.693 -55.315  1.00  0.00     0.014 A 
HETATM   35  C   UNL     1     -46.811  62.080 -55.263  1.00  0.00     0.030 A 
HETATM   36  N   UNL     1     -46.129  60.541 -53.389  1.00  0.00    -0.364 N 
HETATM   37  C   UNL     1     -46.301  63.017 -56.166  1.00  0.00     0.002 A 
HETATM   38  C   UNL     1     -44.942  63.323 -56.193  1.00  0.00     0.001 A 
HETATM   39  H   UNL     1     -47.033  60.148 -53.162  1.00  0.00     0.165 HD
HETATM   40  C   UNL     1     -44.953  60.234 -52.759  1.00  0.00     0.102 A 
ENDBRANCH  30  31
ENDBRANCH   3  29
TORSDOF 7
ENDMDL
MODEL 6
REMARK VINA RESULT:      -8.8      2.000      5.698
REMARK  7 active torsions:
REMARK  status: ('A' for Active; 'I' for Inactive)
REMARK    1  A    between atoms: C_4  and  C_5 
REMARK    2  A    between atoms: C_5  and  C_6 
REMARK    3  A    between atoms: C_6  and  N_7 
REMARK       I    between atoms: N_7  and  C_8 
REMARK    4  A    between atoms: C_8  and  C_9 
REMARK    5  A    between atoms: C_10  and  N_11 
REMARK    6  A    between atoms: N_12  and  N_13 
REMARK    7  A    between atoms: C_14  and  C_15 
ROOT
HETATM    1  C   UNL     1     -42.721  56.685 -55.568  1.00  0.00     0.110 A 
HETATM    2  C   UNL     1     -42.496  57.484 -56.682  1.00  0.00     0.143 A 
HETATM    3  N   UNL     1     -42.862  58.795 -56.365  1.00  0.00    -0.197 N 
HETATM    4  C   UNL     1     -43.451  58.785 -55.114  1.00  0.00     0.183 A 
HETATM    5  C   UNL     1     -43.354  57.497 -54.599  1.00  0.00     0.125 A 
HETATM    6  N   UNL     1     -43.877  57.184 -53.384  1.00  0.00    -0.242 NA
HETATM    7  C   UNL     1     -44.500  58.200 -52.761  1.00  0.00     0.086 A 
HETATM    8  C   UNL     1     -44.569  59.510 -53.306  1.00  0.00     0.088 A 
HETATM    9  N   UNL     1     -44.029  59.836 -54.488  1.00  0.00    -0.225 NA
HETATM   10  C   UNL     1     -45.114  57.954 -51.539  1.00  0.00     0.034 A 
HETATM   11  C   UNL     1     -45.792  58.957 -50.842  1.00  0.00     0.002 A 
HETATM   12  C   UNL     1     -45.848  60.238 -51.372  1.00  0.00     0.002 A 
HETATM   13  C   UNL     1     -45.234  60.502 -52.596  1.00  0.00     0.034 A 
ENDROOT
BRANCH   1  14
HETATM   14  C   UNL     1     -42.400  55.273 -55.502  1.00  0.00     0.257 C 
HETATM   15  N   UNL     1     -41.446  54.987 -54.537  1.00  0.00    -0.356 N 
HETATM   16  H   UNL     1     -41.095  55.818 -54.072  1.00  0.00     0.162 HD
HETATM   17  O   UNL     1     -43.014  54.430 -56.141  1.00  0.00    -0.267 OA
BRANCH  15  18
HETATM   18  C   UNL     1     -41.610  53.860 -53.640  1.00  0.00     0.127 C 
BRANCH  18  19
HETATM   19  C   UNL     1     -40.510  53.596 -52.611  1.00  0.00     0.058 C 
BRANCH  19  20
HETATM   20  C   UNL     1     -40.093  52.144 -52.711  1.00  0.00    -0.057 A 
HETATM   21  C   UNL     1     -40.146  51.487 -53.950  1.00  0.00     0.007 A 
HETATM   22  C   UNL     1     -39.870  50.123 -54.042  1.00  0.00     0.001 A 
HETATM   23  C   UNL     1     -39.531  49.404 -52.897  1.00  0.00     0.000 A 
HETATM   24  C   UNL     1     -39.462  50.051 -51.664  1.00  0.00     0.001 A 
HETATM   25  C   UNL     1     -39.744  51.415 -51.569  1.00  0.00     0.007 A 
ENDBRANCH  19  20
ENDBRANCH  18  19
ENDBRANCH  15  18
ENDBRANCH   1  14
BRANCH   2  26
HETATM   26  N   UNL     1     -42.021  57.132 -57.911  1.00  0.00    -0.383 N 
HETATM   27  H   UNL     1     -41.244  57.662 -58.304  1.00  0.00     0.157 HD
HETATM   28  H   UNL     1     -42.677  56.861 -58.639  1.00  0.00     0.157 HD
ENDBRANCH   2  26
BRANCH   3  29
HETATM   29  N   UNL     1     -42.862  59.870 -57.212  1.00  0.00    -0.176 NA
HETATM   30  C   UNL     1     -43.917  60.089 -57.936  1.00  0.00     0.153 C 
BRANCH  30  31
HETATM   31  C   UNL     1     -45.081  59.240 -58.088  1.00  0.00     0.011 A 
HETATM   32  C   UNL     1     -45.229  58.149 -59.003  1.00  0.00     0.004 A 
HETATM   33  C   UNL     1     -46.491  57.594 -58.789  1.00  0.00     0.043 A 
HETATM   34  C   UNL     1     -44.417  57.601 -60.019  1.00  0.00     0.014 A 
HETATM   35  C   UNL     1     -46.977  56.509 -59.527  1.00  0.00     0.030 A 
HETATM   36  N   UNL     1     -47.080  58.308 -57.769  1.00  0.00    -0.364 N 
HETATM   37  C   UNL     1     -46.156  55.988 -60.531  1.00  0.00     0.002 A 
HETATM   38  C   UNL     1     -44.895  56.526 -60.778  1.00  0.00     0.001 A 
HETATM   39  H   UNL     1     -48.001  58.120 -57.394  1.00  0.00     0.165 HD
HETATM   40  C   UNL     1     -46.243  59.305 -57.344  1.00  0.00     0.102 A 
ENDBRANCH  30  31
ENDBRANCH   3  29
TORSDOF 7
ENDMDL
MODEL 7
REMARK VINA RESULT:      -8.8      2.211      6.332
REMARK  7 active torsions:
REMARK  status: ('A' for Active; 'I' for Inactive)
REMARK    1  A    between atoms: C_4  and  C_5 
REMARK    2  A    between atoms: C_5  and  C_6 
REMARK    3  A    between atoms: C_6  and  N_7 
REMARK       I    between atoms: N_7  and  C_8 
REMARK    4  A    between atoms: C_8  and  C_9 
REMARK    5  A    between atoms: C_10  and  N_11 
REMARK    6  A    between atoms: N_12  and  N_13 
REMARK    7  A    between atoms: C_14  and  C_15 
ROOT
HETATM    1  C   UNL     1     -43.081  57.773 -55.962  1.00  0.00     0.110 A 
HETATM    2  C   UNL     1     -44.167  58.173 -55.193  1.00  0.00     0.143 A 
HETATM    3  N   UNL     1     -44.185  57.407 -54.024  1.00  0.00    -0.197 N 
HETATM    4  C   UNL     1     -43.208  56.435 -54.134  1.00  0.00     0.183 A 
HETATM    5  C   UNL     1     -42.503  56.658 -55.311  1.00  0.00     0.125 A 
HETATM    6  N   UNL     1     -41.493  55.834 -55.695  1.00  0.00    -0.242 NA
HETATM    7  C   UNL     1     -41.265  54.800 -54.864  1.00  0.00     0.086 A 
HETATM    8  C   UNL     1     -41.992  54.607 -53.659  1.00  0.00     0.088 A 
HETATM    9  N   UNL     1     -42.968  55.432 -53.258  1.00  0.00    -0.225 NA
HETATM   10  C   UNL     1     -40.288  53.874 -55.209  1.00  0.00     0.034 A 
HETATM   11  C   UNL     1     -40.008  52.768 -54.403  1.00  0.00     0.002 A 
HETATM   12  C   UNL     1     -40.711  52.588 -53.221  1.00  0.00     0.002 A 
HETATM   13  C   UNL     1     -41.694  53.510 -52.860  1.00  0.00     0.034 A 
ENDROOT
BRANCH   1  14
HETATM   14  C   UNL     1     -42.704  58.389 -57.219  1.00  0.00     0.257 C 
HETATM   15  N   UNL     1     -41.972  57.538 -58.033  1.00  0.00    -0.356 N 
HETATM   16  H   UNL     1     -41.778  56.644 -57.594  1.00  0.00     0.162 HD
HETATM   17  O   UNL     1     -43.115  59.490 -57.558  1.00  0.00    -0.267 OA
BRANCH  15  18
HETATM   18  C   UNL     1     -42.267  57.426 -59.447  1.00  0.00     0.127 C 
BRANCH  18  19
HETATM   19  C   UNL     1     -43.096  56.228 -59.914  1.00  0.00     0.058 C 
BRANCH  19  20
HETATM   20  C   UNL     1     -44.514  56.693 -60.174  1.00  0.00    -0.057 A 
HETATM   21  C   UNL     1     -44.794  58.066 -60.253  1.00  0.00     0.007 A 
HETATM   22  C   UNL     1     -46.108  58.515 -60.382  1.00  0.00     0.001 A 
HETATM   23  C   UNL     1     -47.154  57.596 -60.441  1.00  0.00     0.000 A 
HETATM   24  C   UNL     1     -46.884  56.229 -60.378  1.00  0.00     0.001 A 
HETATM   25  C   UNL     1     -45.570  55.778 -60.242  1.00  0.00     0.007 A 
ENDBRANCH  19  20
ENDBRANCH  18  19
ENDBRANCH  15  18
ENDBRANCH   1  14
BRANCH   2  26
HETATM   26  N   UNL     1     -45.107  59.124 -55.461  1.00  0.00    -0.383 N 
HETATM   27  H   UNL     1     -46.054  58.824 -55.687  1.00  0.00     0.157 HD
HETATM   28  H   UNL     1     -44.846  59.939 -56.011  1.00  0.00     0.157 HD
ENDBRANCH   2  26
BRANCH   3  29
HETATM   29  N   UNL     1     -45.137  57.441 -53.041  1.00  0.00    -0.176 NA
HETATM   30  C   UNL     1     -45.001  58.298 -52.076  1.00  0.00     0.153 C 
BRANCH  30  31
HETATM   31  C   UNL     1     -43.867  59.157 -51.805  1.00  0.00     0.011 A 
HETATM   32  C   UNL     1     -42.583  58.749 -51.317  1.00  0.00     0.004 A 
HETATM   33  C   UNL     1     -41.787  59.891 -51.231  1.00  0.00     0.043 A 
HETATM   34  C   UNL     1     -42.034  57.515 -50.909  1.00  0.00     0.014 A 
HETATM   35  C   UNL     1     -40.465  59.862 -50.774  1.00  0.00     0.030 A 
HETATM   36  N   UNL     1     -42.552  60.951 -51.669  1.00  0.00    -0.364 N 
HETATM   37  C   UNL     1     -39.947  58.628 -50.370  1.00  0.00     0.002 A 
HETATM   38  C   UNL     1     -40.718  57.470 -50.432  1.00  0.00     0.001 A 
HETATM   39  H   UNL     1     -42.227  61.908 -51.724  1.00  0.00     0.165 HD
HETATM   40  C   UNL     1     -43.807  60.521 -52.010  1.00  0.00     0.102 A 
ENDBRANCH  30  31
ENDBRANCH   3  29
TORSDOF 7
ENDMDL
MODEL 8
REMARK VINA RESULT:      -8.7      2.632      7.443
REMARK  7 active torsions:
REMARK  status: ('A' for Active; 'I' for Inactive)
REMARK    1  A    between atoms: C_4  and  C_5 
REMARK    2  A    between atoms: C_5  and  C_6 
REMARK    3  A    between atoms: C_6  and  N_7 
REMARK       I    between atoms: N_7  and  C_8 
REMARK    4  A    between atoms: C_8  and  C_9 
REMARK    5  A    between atoms: C_10  and  N_11 
REMARK    6  A    between atoms: N_12  and  N_13 
REMARK    7  A    between atoms: C_14  and  C_15 
ROOT
HETATM    1  C   UNL     1     -44.002  59.672 -55.654  1.00  0.00     0.110 A 
HETATM    2  C   UNL     1     -43.303  60.144 -56.759  1.00  0.00     0.143 A 
HETATM    3  N   UNL     1     -42.593  59.079 -57.318  1.00  0.00    -0.197 N 
HETATM    4  C   UNL     1     -42.727  57.987 -56.481  1.00  0.00     0.183 A 
HETATM    5  C   UNL     1     -43.609  58.327 -55.462  1.00  0.00     0.125 A 
HETATM    6  N   UNL     1     -43.911  57.449 -54.469  1.00  0.00    -0.242 NA
HETATM    7  C   UNL     1     -43.275  56.266 -54.552  1.00  0.00     0.086 A 
HETATM    8  C   UNL     1     -42.391  55.941 -55.616  1.00  0.00     0.088 A 
HETATM    9  N   UNL     1     -42.111  56.789 -56.615  1.00  0.00    -0.225 NA
HETATM   10  C   UNL     1     -43.481  55.329 -53.547  1.00  0.00     0.034 A 
HETATM   11  C   UNL     1     -42.843  54.086 -53.559  1.00  0.00     0.002 A 
HETATM   12  C   UNL     1     -41.989  53.768 -54.605  1.00  0.00     0.002 A 
HETATM   13  C   UNL     1     -41.774  54.697 -55.623  1.00  0.00     0.034 A 
ENDROOT
BRANCH   1  14
HETATM   14  C   UNL     1     -44.902  60.480 -54.855  1.00  0.00     0.257 C 
HETATM   15  N   UNL     1     -45.671  59.722 -53.986  1.00  0.00    -0.356 N 
HETATM   16  H   UNL     1     -45.514  58.725 -54.089  1.00  0.00     0.162 HD
HETATM   17  O   UNL     1     -44.869  61.703 -54.867  1.00  0.00    -0.267 OA
BRANCH  15  18
HETATM   18  C   UNL     1     -45.857  60.131 -52.608  1.00  0.00     0.127 C 
BRANCH  18  19
HETATM   19  C   UNL     1     -45.423  59.161 -51.508  1.00  0.00     0.058 C 
BRANCH  19  20
HETATM   20  C   UNL     1     -43.944  59.353 -51.248  1.00  0.00    -0.057 A 
HETATM   21  C   UNL     1     -43.074  58.254 -51.320  1.00  0.00     0.007 A 
HETATM   22  C   UNL     1     -41.729  58.390 -50.978  1.00  0.00     0.001 A 
HETATM   23  C   UNL     1     -41.238  59.628 -50.569  1.00  0.00     0.000 A 
HETATM   24  C   UNL     1     -42.091  60.729 -50.507  1.00  0.00     0.001 A 
HETATM   25  C   UNL     1     -43.439  60.594 -50.843  1.00  0.00     0.007 A 
ENDBRANCH  19  20
ENDBRANCH  18  19
ENDBRANCH  15  18
ENDBRANCH   1  14
BRANCH   2  26
HETATM   26  N   UNL     1     -43.251  61.408 -57.268  1.00  0.00    -0.383 N 
HETATM   27  H   UNL     1     -43.115  61.526 -58.270  1.00  0.00     0.157 HD
HETATM   28  H   UNL     1     -42.759  62.133 -56.750  1.00  0.00     0.157 HD
ENDBRANCH   2  26
BRANCH   3  29
HETATM   29  N   UNL     1     -41.724  59.142 -58.375  1.00  0.00    -0.176 NA
HETATM   30  C   UNL     1     -42.181  58.913 -59.567  1.00  0.00     0.153 C 
BRANCH  30  31
HETATM   31  C   UNL     1     -43.498  58.439 -59.938  1.00  0.00     0.011 A 
HETATM   32  C   UNL     1     -43.948  57.079 -59.938  1.00  0.00     0.004 A 
HETATM   33  C   UNL     1     -45.287  57.083 -60.332  1.00  0.00     0.043 A 
HETATM   34  C   UNL     1     -43.330  55.840 -59.669  1.00  0.00     0.014 A 
HETATM   35  C   UNL     1     -46.044  55.913 -60.456  1.00  0.00     0.030 A 
HETATM   36  N   UNL     1     -45.642  58.397 -60.545  1.00  0.00    -0.364 N 
HETATM   37  C   UNL     1     -45.406  54.698 -60.189  1.00  0.00     0.002 A 
HETATM   38  C   UNL     1     -44.068  54.658 -59.804  1.00  0.00     0.001 A 
HETATM   39  H   UNL     1     -46.563  58.703 -60.832  1.00  0.00     0.165 HD
HETATM   40  C   UNL     1     -44.572  59.221 -60.317  1.00  0.00     0.102 A 
ENDBRANCH  30  31
ENDBRANCH   3  29
TORSDOF 7
ENDMDL
MODEL 9
REMARK VINA RESULT:      -8.6      2.249      5.952
REMARK  7 active torsions:
REMARK  status: ('A' for Active; 'I' for Inactive)
REMARK    1  A    between atoms: C_4  and  C_5 
REMARK    2  A    between atoms: C_5  and  C_6 
REMARK    3  A    between atoms: C_6  and  N_7 
REMARK       I    between atoms: N_7  and  C_8 
REMARK    4  A    between atoms: C_8  and  C_9 
REMARK    5  A    between atoms: C_10  and  N_11 
REMARK    6  A    between atoms: N_12  and  N_13 
REMARK    7  A    between atoms: C_14  and  C_15 
ROOT
HETATM    1  C   UNL     1     -42.836  56.115 -55.484  1.00  0.00     0.110 A 
HETATM    2  C   UNL     1     -42.513  56.894 -56.589  1.00  0.00     0.143 A 
HETATM    3  N   UNL     1     -42.681  58.238 -56.245  1.00  0.00    -0.197 N 
HETATM    4  C   UNL     1     -43.249  58.289 -54.986  1.00  0.00     0.183 A 
HETATM    5  C   UNL     1     -43.332  56.992 -54.493  1.00  0.00     0.125 A 
HETATM    6  N   UNL     1     -43.879  56.735 -53.275  1.00  0.00    -0.242 NA
HETATM    7  C   UNL     1     -44.340  57.819 -52.625  1.00  0.00     0.086 A 
HETATM    8  C   UNL     1     -44.226  59.135 -53.148  1.00  0.00     0.088 A 
HETATM    9  N   UNL     1     -43.661  59.401 -54.333  1.00  0.00    -0.225 NA
HETATM   10  C   UNL     1     -44.967  57.641 -51.398  1.00  0.00     0.034 A 
HETATM   11  C   UNL     1     -45.484  58.718 -50.674  1.00  0.00     0.002 A 
HETATM   12  C   UNL     1     -45.362  60.004 -51.182  1.00  0.00     0.002 A 
HETATM   13  C   UNL     1     -44.732  60.198 -52.412  1.00  0.00     0.034 A 
ENDROOT
BRANCH   1  14
HETATM   14  C   UNL     1     -42.720  54.671 -55.447  1.00  0.00     0.257 C 
HETATM   15  N   UNL     1     -41.582  54.243 -54.780  1.00  0.00    -0.356 N 
HETATM   16  H   UNL     1     -40.993  55.011 -54.474  1.00  0.00     0.162 HD
HETATM   17  O   UNL     1     -43.610  53.931 -55.845  1.00  0.00    -0.267 OA
BRANCH  15  18
HETATM   18  C   UNL     1     -41.645  53.158 -53.822  1.00  0.00     0.127 C 
BRANCH  18  19
HETATM   19  C   UNL     1     -40.446  52.948 -52.896  1.00  0.00     0.058 C 
BRANCH  19  20
HETATM   20  C   UNL     1     -40.711  53.671 -51.591  1.00  0.00    -0.057 A 
HETATM   21  C   UNL     1     -39.743  53.652 -50.575  1.00  0.00     0.007 A 
HETATM   22  C   UNL     1     -40.012  54.218 -49.329  1.00  0.00     0.001 A 
HETATM   23  C   UNL     1     -41.248  54.814 -49.089  1.00  0.00     0.000 A 
HETATM   24  C   UNL     1     -42.211  54.850 -50.096  1.00  0.00     0.001 A 
HETATM   25  C   UNL     1     -41.946  54.279 -51.342  1.00  0.00     0.007 A 
ENDBRANCH  19  20
ENDBRANCH  18  19
ENDBRANCH  15  18
ENDBRANCH   1  14
BRANCH   2  26
HETATM   26  N   UNL     1     -42.109  56.500 -57.831  1.00  0.00    -0.383 N 
HETATM   27  H   UNL     1     -42.531  55.667 -58.240  1.00  0.00     0.157 HD
HETATM   28  H   UNL     1     -41.124  56.563 -58.077  1.00  0.00     0.157 HD
ENDBRANCH   2  26
BRANCH   3  29
HETATM   29  N   UNL     1     -42.538  59.317 -57.074  1.00  0.00    -0.176 NA
HETATM   30  C   UNL     1     -43.544  59.668 -57.815  1.00  0.00     0.153 C 
BRANCH  30  31
HETATM   31  C   UNL     1     -44.797  58.965 -58.002  1.00  0.00     0.011 A 
HETATM   32  C   UNL     1     -45.064  57.939 -58.966  1.00  0.00     0.004 A 
HETATM   33  C   UNL     1     -46.381  57.521 -58.775  1.00  0.00     0.043 A 
HETATM   34  C   UNL     1     -44.316  57.349 -60.006  1.00  0.00     0.014 A 
HETATM   35  C   UNL     1     -46.985  56.532 -59.560  1.00  0.00     0.030 A 
HETATM   36  N   UNL     1     -46.889  58.252 -57.723  1.00  0.00    -0.364 N 
HETATM   37  C   UNL     1     -46.224  55.968 -60.588  1.00  0.00     0.002 A 
HETATM   38  C   UNL     1     -44.909  56.370 -60.812  1.00  0.00     0.001 A 
HETATM   39  H   UNL     1     -47.827  58.152 -57.355  1.00  0.00     0.165 HD
HETATM   40  C   UNL     1     -45.946  59.127 -57.255  1.00  0.00     0.102 A 
ENDBRANCH  30  31
ENDBRANCH   3  29
TORSDOF 7
ENDMDL
MODEL 10
REMARK VINA RESULT:      -8.5      2.222      5.048
REMARK  7 active torsions:
REMARK  status: ('A' for Active; 'I' for Inactive)
REMARK    1  A    between atoms: C_4  and  C_5 
REMARK    2  A    between atoms: C_5  and  C_6 
REMARK    3  A    between atoms: C_6  and  N_7 
REMARK       I    between atoms: N_7  and  C_8 
REMARK    4  A    between atoms: C_8  and  C_9 
REMARK    5  A    between atoms: C_10  and  N_11 
REMARK    6  A    between atoms: N_12  and  N_13 
REMARK    7  A    between atoms: C_14  and  C_15 
ROOT
HETATM    1  C   UNL     1     -42.772  58.341 -56.070  1.00  0.00     0.110 A 
HETATM    2  C   UNL     1     -43.014  59.626 -56.543  1.00  0.00     0.143 A 
HETATM    3  N   UNL     1     -42.528  60.539 -55.604  1.00  0.00    -0.197 N 
HETATM    4  C   UNL     1     -42.125  59.832 -54.487  1.00  0.00     0.183 A 
HETATM    5  C   UNL     1     -42.248  58.475 -54.763  1.00  0.00     0.125 A 
HETATM    6  N   UNL     1     -41.945  57.535 -53.829  1.00  0.00    -0.242 NA
HETATM    7  C   UNL     1     -41.552  58.030 -52.641  1.00  0.00     0.086 A 
HETATM    8  C   UNL     1     -41.420  59.422 -52.393  1.00  0.00     0.088 A 
HETATM    9  N   UNL     1     -41.686  60.355 -53.317  1.00  0.00    -0.225 NA
HETATM   10  C   UNL     1     -41.279  57.140 -51.610  1.00  0.00     0.034 A 
HETATM   11  C   UNL     1     -40.881  57.581 -50.345  1.00  0.00     0.002 A 
HETATM   12  C   UNL     1     -40.742  58.942 -50.109  1.00  0.00     0.002 A 
HETATM   13  C   UNL     1     -41.011  59.847 -51.136  1.00  0.00     0.034 A 
ENDROOT
BRANCH   1  14
HETATM   14  C   UNL     1     -43.083  57.132 -56.806  1.00  0.00     0.257 C 
HETATM   15  N   UNL     1     -42.246  56.077 -56.478  1.00  0.00    -0.356 N 
HETATM   16  H   UNL     1     -41.524  56.339 -55.815  1.00  0.00     0.162 HD
HETATM   17  O   UNL     1     -44.066  57.040 -57.529  1.00  0.00    -0.267 OA
BRANCH  15  18
HETATM   18  C   UNL     1     -42.780  54.750 -56.243  1.00  0.00     0.127 C 
BRANCH  18  19
HETATM   19  C   UNL     1     -43.401  54.458 -54.877  1.00  0.00     0.058 C 
BRANCH  19  20
HETATM   20  C   UNL     1     -42.341  53.846 -53.984  1.00  0.00    -0.057 A 
HETATM   21  C   UNL     1     -42.452  53.962 -52.590  1.00  0.00     0.007 A 
HETATM   22  C   UNL     1     -41.433  53.501 -51.756  1.00  0.00     0.001 A 
HETATM   23  C   UNL     1     -40.297  52.913 -52.308  1.00  0.00     0.000 A 
HETATM   24  C   UNL     1     -40.184  52.780 -53.692  1.00  0.00     0.001 A 
HETATM   25  C   UNL     1     -41.200  53.246 -54.528  1.00  0.00     0.007 A 
ENDBRANCH  19  20
ENDBRANCH  18  19
ENDBRANCH  15  18
ENDBRANCH   1  14
BRANCH   2  26
HETATM   26  N   UNL     1     -43.623  60.016 -57.699  1.00  0.00    -0.383 N 
HETATM   27  H   UNL     1     -43.164  59.812 -58.586  1.00  0.00     0.157 HD
HETATM   28  H   UNL     1     -44.090  60.919 -57.735  1.00  0.00     0.157 HD
ENDBRANCH   2  26
BRANCH   3  29
HETATM   29  N   UNL     1     -42.637  61.903 -55.659  1.00  0.00    -0.176 NA
HETATM   30  C   UNL     1     -43.570  62.479 -54.965  1.00  0.00     0.153 C 
BRANCH  30  31
HETATM   31  C   UNL     1     -44.645  61.848 -54.226  1.00  0.00     0.011 A 
HETATM   32  C   UNL     1     -44.794  61.809 -52.801  1.00  0.00     0.004 A 
HETATM   33  C   UNL     1     -45.981  61.131 -52.525  1.00  0.00     0.043 A 
HETATM   34  C   UNL     1     -44.010  62.262 -51.719  1.00  0.00     0.014 A 
HETATM   35  C   UNL     1     -46.434  60.895 -51.222  1.00  0.00     0.030 A 
HETATM   36  N   UNL     1     -46.542  60.787 -53.736  1.00  0.00    -0.364 N 
HETATM   37  C   UNL     1     -45.636  61.348 -50.168  1.00  0.00     0.002 A 
HETATM   38  C   UNL     1     -44.440  62.019 -50.409  1.00  0.00     0.001 A 
HETATM   39  H   UNL     1     -47.418  60.292 -53.842  1.00  0.00     0.165 HD
HETATM   40  C   UNL     1     -45.743  61.208 -54.765  1.00  0.00     0.102 A 
ENDBRANCH  30  31
ENDBRANCH   3  29
TORSDOF 7
ENDMDL
