MODEL 1
REMARK VINA RESULT:      -8.2      0.000      0.000
REMARK  5 active torsions:
REMARK  status: ('A' for Active; 'I' for Inactive)
REMARK    1  A    between atoms: C_4  and  N_5 
REMARK    2  A    between atoms: N_8  and  C_10 
REMARK    3  A    between atoms: N_13  and  C_15 
REMARK    4  A    between atoms: C_15  and  C_16 
REMARK    5  A    between atoms: C_17  and  O_18 
ROOT
HETATM    1  C   UNL     1     -42.640  56.405 -55.603  1.00  0.00     0.191 C 
HETATM    2  C   UNL     1     -41.390  56.639 -54.745  1.00  0.00     0.061 C 
HETATM    3  C   UNL     1     -40.474  55.430 -54.552  1.00  0.00     0.237 C 
HETATM    4  N   UNL     1     -41.223  54.153 -54.301  1.00  0.00    -0.067 N 
HETATM    5  H   UNL     1     -41.544  54.134 -53.312  1.00  0.00     0.280 HD
HETATM    6  C   UNL     1     -42.425  53.910 -55.170  1.00  0.00     0.237 C 
HETATM    7  C   UNL     1     -43.332  55.121 -55.146  1.00  0.00     0.061 C 
ENDROOT
BRANCH   1   8
HETATM    8  N   UNL     1     -42.408  56.526 -57.121  1.00  0.00    -0.064 N 
HETATM    9  C   UNL     1     -43.157  55.566 -58.068  1.00  0.00     0.255 C 
HETATM   10  C   UNL     1     -42.804  55.811 -59.552  1.00  0.00     0.150 C 
HETATM   11  N   UNL     1     -43.080  57.218 -59.885  1.00  0.00    -0.378 N 
HETATM   12  C   UNL     1     -42.172  58.120 -59.151  1.00  0.00     0.150 C 
HETATM   13  C   UNL     1     -42.435  58.006 -57.633  1.00  0.00     0.255 C 
HETATM   14  H   UNL     1     -41.419  56.264 -57.264  1.00  0.00     0.280 HD
BRANCH  11  15
HETATM   15  C   UNL     1     -44.420  57.584 -60.101  1.00  0.00     0.030 A 
HETATM   16  C   UNL     1     -44.825  58.910 -60.337  1.00  0.00     0.029 A 
HETATM   17  C   UNL     1     -46.174  59.263 -60.497  1.00  0.00     0.002 A 
HETATM   18  C   UNL     1     -47.161  58.289 -60.460  1.00  0.00     0.000 A 
HETATM   19  C   UNL     1     -46.795  56.961 -60.294  1.00  0.00     0.002 A 
HETATM   20  C   UNL     1     -45.445  56.620 -60.130  1.00  0.00     0.029 A 
ENDBRANCH  11  15
ENDBRANCH   1   8
BRANCH   4  21
HETATM   21  C   UNL     1     -40.254  52.959 -54.326  1.00  0.00     0.276 C 
BRANCH  21  22
HETATM   22  C   UNL     1     -40.132  52.249 -53.010  1.00  0.00     0.002 A 
HETATM   23  C   UNL     1     -39.715  50.915 -52.953  1.00  0.00     0.073 A 
HETATM   24  C   UNL     1     -39.584  50.250 -51.736  1.00  0.00     0.038 A 
HETATM   25  C   UNL     1     -39.860  50.930 -50.549  1.00  0.00     0.022 A 
HETATM   26  C   UNL     1     -40.266  52.262 -50.590  1.00  0.00     0.011 A 
HETATM   27 BR   UNL     1     -40.603  53.198 -48.984  1.00  0.00    -0.051 Br
HETATM   28  C   UNL     1     -40.411  52.922 -51.810  1.00  0.00     0.030 A 
BRANCH  23  29
HETATM   29  O   UNL     1     -39.393  50.293 -54.129  1.00  0.00    -0.360 OA
HETATM   30  H   UNL     1     -38.754  49.578 -53.919  1.00  0.00     0.217 HD
ENDBRANCH  23  29
ENDBRANCH  21  22
ENDBRANCH   4  21
TORSDOF 5
ENDMDL
MODEL 2
REMARK VINA RESULT:      -8.1      3.825      8.844
REMARK  5 active torsions:
REMARK  status: ('A' for Active; 'I' for Inactive)
REMARK    1  A    between atoms: C_4  and  N_5 
REMARK    2  A    between atoms: N_8  and  C_10 
REMARK    3  A    between atoms: N_13  and  C_15 
REMARK    4  A    between atoms: C_15  and  C_16 
REMARK    5  A    between atoms: C_17  and  O_18 
ROOT
HETATM    1  C   UNL     1     -43.084  58.099 -51.962  1.00  0.00     0.191 C 
HETATM    2  C   UNL     1     -44.211  57.920 -52.986  1.00  0.00     0.061 C 
HETATM    3  C   UNL     1     -43.849  57.138 -54.250  1.00  0.00     0.237 C 
HETATM    4  N   UNL     1     -42.500  57.495 -54.803  1.00  0.00    -0.067 N 
HETATM    5  H   UNL     1     -42.569  58.397 -55.317  1.00  0.00     0.280 HD
HETATM    6  C   UNL     1     -41.390  57.633 -53.798  1.00  0.00     0.237 C 
HETATM    7  C   UNL     1     -41.817  58.561 -52.681  1.00  0.00     0.061 C 
ENDROOT
BRANCH   1   8
HETATM    8  N   UNL     1     -42.901  56.913 -50.996  1.00  0.00    -0.064 N 
HETATM    9  C   UNL     1     -43.595  55.573 -51.321  1.00  0.00     0.255 C 
HETATM   10  C   UNL     1     -43.320  54.495 -50.249  1.00  0.00     0.150 C 
HETATM   11  N   UNL     1     -41.866  54.325 -50.101  1.00  0.00    -0.378 N 
HETATM   12  C   UNL     1     -41.247  55.543 -49.545  1.00  0.00     0.150 C 
HETATM   13  C   UNL     1     -41.417  56.716 -50.537  1.00  0.00     0.255 C 
HETATM   14  H   UNL     1     -43.364  57.205 -50.121  1.00  0.00     0.280 HD
BRANCH  11  15
HETATM   15  C   UNL     1     -41.196  53.576 -51.084  1.00  0.00     0.030 A 
HETATM   16  C   UNL     1     -41.355  53.802 -52.463  1.00  0.00     0.029 A 
HETATM   17  C   UNL     1     -40.718  53.009 -53.430  1.00  0.00     0.002 A 
HETATM   18  C   UNL     1     -39.869  51.982 -53.044  1.00  0.00     0.000 A 
HETATM   19  C   UNL     1     -39.636  51.769 -51.693  1.00  0.00     0.002 A 
HETATM   20  C   UNL     1     -40.281  52.564 -50.735  1.00  0.00     0.029 A 
ENDBRANCH  11  15
ENDBRANCH   1   8
BRANCH   4  21
HETATM   21  C   UNL     1     -42.122  56.530 -55.938  1.00  0.00     0.276 C 
BRANCH  21  22
HETATM   22  C   UNL     1     -42.741  56.876 -57.260  1.00  0.00     0.002 A 
HETATM   23  C   UNL     1     -42.666  58.177 -57.767  1.00  0.00     0.073 A 
HETATM   24  C   UNL     1     -43.226  58.506 -59.000  1.00  0.00     0.038 A 
HETATM   25  C   UNL     1     -43.859  57.516 -59.752  1.00  0.00     0.022 A 
HETATM   26  C   UNL     1     -43.932  56.214 -59.264  1.00  0.00     0.011 A 
HETATM   27 BR   UNL     1     -44.755  54.862 -60.297  1.00  0.00    -0.051 Br
HETATM   28  C   UNL     1     -43.385  55.889 -58.023  1.00  0.00     0.030 A 
BRANCH  23  29
HETATM   29  O   UNL     1     -41.986  59.112 -57.035  1.00  0.00    -0.360 OA
HETATM   30  H   UNL     1     -41.093  59.207 -57.434  1.00  0.00     0.217 HD
ENDBRANCH  23  29
ENDBRANCH  21  22
ENDBRANCH   4  21
TORSDOF 5
ENDMDL
MODEL 3
REMARK VINA RESULT:      -8.1      2.231      2.736
REMARK  5 active torsions:
REMARK  status: ('A' for Active; 'I' for Inactive)
REMARK    1  A    between atoms: C_4  and  N_5 
REMARK    2  A    between atoms: N_8  and  C_10 
REMARK    3  A    between atoms: N_13  and  C_15 
REMARK    4  A    between atoms: C_15  and  C_16 
REMARK    5  A    between atoms: C_17  and  O_18 
ROOT
HETATM    1  C   UNL     1     -44.264  56.299 -54.222  1.00  0.00     0.191 C 
HETATM    2  C   UNL     1     -43.773  56.837 -52.873  1.00  0.00     0.061 C 
HETATM    3  C   UNL     1     -42.366  56.409 -52.454  1.00  0.00     0.237 C 
HETATM    4  N   UNL     1     -42.075  54.964 -52.738  1.00  0.00    -0.067 N 
HETATM    5  H   UNL     1     -42.528  54.375 -52.010  1.00  0.00     0.280 HD
HETATM    6  C   UNL     1     -42.526  54.451 -54.078  1.00  0.00     0.237 C 
HETATM    7  C   UNL     1     -43.981  54.799 -54.301  1.00  0.00     0.061 C 
ENDROOT
BRANCH   1   8
HETATM    8  N   UNL     1     -43.812  57.121 -55.444  1.00  0.00    -0.064 N 
HETATM    9  C   UNL     1     -43.014  56.417 -56.561  1.00  0.00     0.255 C 
HETATM   10  C   UNL     1     -42.628  57.382 -57.704  1.00  0.00     0.150 C 
HETATM   11  N   UNL     1     -43.848  58.014 -58.231  1.00  0.00    -0.378 N 
HETATM   12  C   UNL     1     -44.466  58.892 -57.219  1.00  0.00     0.150 C 
HETATM   13  C   UNL     1     -44.937  58.049 -56.013  1.00  0.00     0.255 C 
HETATM   14  H   UNL     1     -43.132  57.804 -55.072  1.00  0.00     0.280 HD
BRANCH  11  15
HETATM   15  C   UNL     1     -44.655  57.251 -59.093  1.00  0.00     0.030 A 
HETATM   16  C   UNL     1     -44.139  56.276 -59.965  1.00  0.00     0.029 A 
HETATM   17  C   UNL     1     -44.955  55.562 -60.856  1.00  0.00     0.002 A 
HETATM   18  C   UNL     1     -46.325  55.778 -60.877  1.00  0.00     0.000 A 
HETATM   19  C   UNL     1     -46.880  56.686 -59.987  1.00  0.00     0.002 A 
HETATM   20  C   UNL     1     -46.055  57.397 -59.104  1.00  0.00     0.029 A 
ENDBRANCH  11  15
ENDBRANCH   1   8
BRANCH   4  21
HETATM   21  C   UNL     1     -40.588  54.664 -52.486  1.00  0.00     0.276 C 
BRANCH  21  22
HETATM   22  C   UNL     1     -40.303  53.224 -52.180  1.00  0.00     0.002 A 
HETATM   23  C   UNL     1     -40.354  52.748 -50.866  1.00  0.00     0.073 A 
HETATM   24  C   UNL     1     -40.104  51.409 -50.571  1.00  0.00     0.038 A 
HETATM   25  C   UNL     1     -39.812  50.521 -51.608  1.00  0.00     0.022 A 
HETATM   26  C   UNL     1     -39.768  50.980 -52.923  1.00  0.00     0.011 A 
HETATM   27 BR   UNL     1     -39.411  49.774 -54.333  1.00  0.00    -0.051 Br
HETATM   28  C   UNL     1     -40.003  52.323 -53.214  1.00  0.00     0.030 A 
BRANCH  23  29
HETATM   29  O   UNL     1     -40.703  53.629 -49.878  1.00  0.00    -0.360 OA
HETATM   30  H   UNL     1     -39.958  53.665 -49.239  1.00  0.00     0.217 HD
ENDBRANCH  23  29
ENDBRANCH  21  22
ENDBRANCH   4  21
TORSDOF 5
ENDMDL
MODEL 4
REMARK VINA RESULT:      -7.8      1.564      2.326
REMARK  5 active torsions:
REMARK  status: ('A' for Active; 'I' for Inactive)
REMARK    1  A    between atoms: C_4  and  N_5 
REMARK    2  A    between atoms: N_8  and  C_10 
REMARK    3  A    between atoms: N_13  and  C_15 
REMARK    4  A    between atoms: C_15  and  C_16 
REMARK    5  A    between atoms: C_17  and  O_18 
ROOT
HETATM    1  C   UNL     1     -43.699  58.016 -54.362  1.00  0.00     0.191 C 
HETATM    2  C   UNL     1     -42.418  58.185 -53.536  1.00  0.00     0.061 C 
HETATM    3  C   UNL     1     -41.383  57.068 -53.671  1.00  0.00     0.237 C 
HETATM    4  N   UNL     1     -41.988  55.695 -53.684  1.00  0.00    -0.067 N 
HETATM    5  H   UNL     1     -42.234  55.421 -52.711  1.00  0.00     0.280 HD
HETATM    6  C   UNL     1     -43.223  55.525 -54.525  1.00  0.00     0.237 C 
HETATM    7  C   UNL     1     -44.235  56.596 -54.179  1.00  0.00     0.061 C 
ENDROOT
BRANCH   1   8
HETATM    8  N   UNL     1     -43.590  58.497 -55.821  1.00  0.00    -0.064 N 
HETATM    9  C   UNL     1     -42.567  57.818 -56.756  1.00  0.00     0.255 C 
HETATM   10  C   UNL     1     -42.575  58.425 -58.176  1.00  0.00     0.150 C 
HETATM   11  N   UNL     1     -43.939  58.345 -58.724  1.00  0.00    -0.378 N 
HETATM   12  C   UNL     1     -44.863  59.209 -57.964  1.00  0.00     0.150 C 
HETATM   13  C   UNL     1     -44.981  58.697 -56.511  1.00  0.00     0.255 C 
HETATM   14  H   UNL     1     -43.236  59.466 -55.759  1.00  0.00     0.280 HD
BRANCH  11  15
HETATM   15  C   UNL     1     -44.373  57.099 -59.210  1.00  0.00     0.030 A 
HETATM   16  C   UNL     1     -43.618  55.920 -59.082  1.00  0.00     0.029 A 
HETATM   17  C   UNL     1     -44.045  54.696 -59.620  1.00  0.00     0.002 A 
HETATM   18  C   UNL     1     -45.263  54.608 -60.277  1.00  0.00     0.000 A 
HETATM   19  C   UNL     1     -46.066  55.735 -60.367  1.00  0.00     0.002 A 
HETATM   20  C   UNL     1     -45.629  56.954 -59.830  1.00  0.00     0.029 A 
ENDBRANCH  11  15
ENDBRANCH   1   8
BRANCH   4  21
HETATM   21  C   UNL     1     -40.917  54.648 -54.030  1.00  0.00     0.276 C 
BRANCH  21  22
HETATM   22  C   UNL     1     -40.605  53.704 -52.906  1.00  0.00     0.002 A 
HETATM   23  C   UNL     1     -40.173  52.400 -53.166  1.00  0.00     0.073 A 
HETATM   24  C   UNL     1     -39.867  51.519 -52.131  1.00  0.00     0.038 A 
HETATM   25  C   UNL     1     -39.979  51.950 -50.808  1.00  0.00     0.022 A 
HETATM   26  C   UNL     1     -40.399  53.249 -50.534  1.00  0.00     0.011 A 
HETATM   27 BR   UNL     1     -40.514  53.849 -48.746  1.00  0.00    -0.051 Br
HETATM   28  C   UNL     1     -40.719  54.125 -51.572  1.00  0.00     0.030 A 
BRANCH  23  29
HETATM   29  O   UNL     1     -40.014  52.026 -54.474  1.00  0.00    -0.360 OA
HETATM   30  H   UNL     1     -40.585  52.611 -55.018  1.00  0.00     0.217 HD
ENDBRANCH  23  29
ENDBRANCH  21  22
ENDBRANCH   4  21
TORSDOF 5
ENDMDL
MODEL 5
REMARK VINA RESULT:      -7.7      2.435      3.277
REMARK  5 active torsions:
REMARK  status: ('A' for Active; 'I' for Inactive)
REMARK    1  A    between atoms: C_4  and  N_5 
REMARK    2  A    between atoms: N_8  and  C_10 
REMARK    3  A    between atoms: N_13  and  C_15 
REMARK    4  A    between atoms: C_15  and  C_16 
REMARK    5  A    between atoms: C_17  and  O_18 
ROOT
HETATM    1  C   UNL     1     -43.123  59.281 -55.437  1.00  0.00     0.191 C 
HETATM    2  C   UNL     1     -42.040  58.605 -54.588  1.00  0.00     0.061 C 
HETATM    3  C   UNL     1     -42.144  57.085 -54.456  1.00  0.00     0.237 C 
HETATM    4  N   UNL     1     -43.550  56.602 -54.247  1.00  0.00    -0.067 N 
HETATM    5  H   UNL     1     -43.821  56.759 -53.255  1.00  0.00     0.280 HD
HETATM    6  C   UNL     1     -44.604  57.242 -55.108  1.00  0.00     0.237 C 
HETATM    7  C   UNL     1     -44.495  58.749 -55.023  1.00  0.00     0.061 C 
ENDROOT
BRANCH   1   8
HETATM    8  N   UNL     1     -42.844  59.280 -56.952  1.00  0.00    -0.064 N 
HETATM    9  C   UNL     1     -42.237  58.017 -57.597  1.00  0.00     0.255 C 
HETATM   10  C   UNL     1     -42.009  58.185 -59.116  1.00  0.00     0.150 C 
HETATM   11  N   UNL     1     -43.282  58.555 -59.754  1.00  0.00    -0.378 N 
HETATM   12  C   UNL     1     -43.723  59.892 -59.312  1.00  0.00     0.150 C 
HETATM   13  C   UNL     1     -44.024  59.868 -57.797  1.00  0.00     0.255 C 
HETATM   14  H   UNL     1     -42.103  59.987 -57.089  1.00  0.00     0.280 HD
BRANCH  11  15
HETATM   15  C   UNL     1     -44.224  57.533 -59.967  1.00  0.00     0.030 A 
HETATM   16  C   UNL     1     -45.611  57.735 -59.867  1.00  0.00     0.029 A 
HETATM   17  C   UNL     1     -46.533  56.689 -60.031  1.00  0.00     0.002 A 
HETATM   18  C   UNL     1     -46.093  55.410 -60.337  1.00  0.00     0.000 A 
HETATM   19  C   UNL     1     -44.735  55.185 -60.508  1.00  0.00     0.002 A 
HETATM   20  C   UNL     1     -43.822  56.235 -60.337  1.00  0.00     0.029 A 
ENDBRANCH  11  15
ENDBRANCH   1   8
BRANCH   4  21
HETATM   21  C   UNL     1     -43.602  55.068 -54.333  1.00  0.00     0.276 C 
BRANCH  21  22
HETATM   22  C   UNL     1     -42.682  54.375 -53.371  1.00  0.00     0.002 A 
HETATM   23  C   UNL     1     -42.822  54.556 -51.991  1.00  0.00     0.073 A 
HETATM   24  C   UNL     1     -41.982  53.907 -51.089  1.00  0.00     0.038 A 
HETATM   25  C   UNL     1     -40.992  53.047 -51.568  1.00  0.00     0.022 A 
HETATM   26  C   UNL     1     -40.849  52.850 -52.939  1.00  0.00     0.011 A 
HETATM   27 BR   UNL     1     -39.536  51.657 -53.590  1.00  0.00    -0.051 Br
HETATM   28  C   UNL     1     -41.680  53.512 -53.842  1.00  0.00     0.030 A 
BRANCH  23  29
HETATM   29  O   UNL     1     -43.840  55.357 -51.550  1.00  0.00    -0.360 OA
HETATM   30  H   UNL     1     -43.563  56.289 -51.690  1.00  0.00     0.217 HD
ENDBRANCH  23  29
ENDBRANCH  21  22
ENDBRANCH   4  21
TORSDOF 5
ENDMDL
MODEL 6
REMARK VINA RESULT:      -7.6      6.560     10.136
REMARK  5 active torsions:
REMARK  status: ('A' for Active; 'I' for Inactive)
REMARK    1  A    between atoms: C_4  and  N_5 
REMARK    2  A    between atoms: N_8  and  C_10 
REMARK    3  A    between atoms: N_13  and  C_15 
REMARK    4  A    between atoms: C_15  and  C_16 
REMARK    5  A    between atoms: C_17  and  O_18 
ROOT
HETATM    1  C   UNL     1     -41.324  58.484 -51.763  1.00  0.00     0.191 C 
HETATM    2  C   UNL     1     -41.072  59.519 -50.660  1.00  0.00     0.061 C 
HETATM    3  C   UNL     1     -42.258  60.414 -50.298  1.00  0.00     0.237 C 
HETATM    4  N   UNL     1     -43.027  60.893 -51.495  1.00  0.00    -0.067 N 
HETATM    5  H   UNL     1     -42.508  61.674 -51.944  1.00  0.00     0.280 HD
HETATM    6  C   UNL     1     -43.304  59.865 -52.557  1.00  0.00     0.237 C 
HETATM    7  C   UNL     1     -42.021  59.163 -52.943  1.00  0.00     0.061 C 
ENDROOT
BRANCH   1   8
HETATM    8  N   UNL     1     -41.973  57.174 -51.278  1.00  0.00    -0.064 N 
HETATM    9  C   UNL     1     -42.746  56.305 -52.293  1.00  0.00     0.255 C 
HETATM   10  C   UNL     1     -43.344  55.037 -51.644  1.00  0.00     0.150 C 
HETATM   11  N   UNL     1     -42.264  54.274 -50.997  1.00  0.00    -0.378 N 
HETATM   12  C   UNL     1     -41.700  55.024 -49.858  1.00  0.00     0.150 C 
HETATM   13  C   UNL     1     -41.031  56.320 -50.364  1.00  0.00     0.255 C 
HETATM   14  H   UNL     1     -42.711  57.468 -50.618  1.00  0.00     0.280 HD
BRANCH  11  15
HETATM   15  C   UNL     1     -41.425  53.507 -51.824  1.00  0.00     0.030 A 
HETATM   16  C   UNL     1     -40.451  52.625 -51.323  1.00  0.00     0.029 A 
HETATM   17  C   UNL     1     -39.587  51.907 -52.165  1.00  0.00     0.002 A 
HETATM   18  C   UNL     1     -39.696  52.024 -53.543  1.00  0.00     0.000 A 
HETATM   19  C   UNL     1     -40.687  52.835 -54.076  1.00  0.00     0.002 A 
HETATM   20  C   UNL     1     -41.542  53.551 -53.227  1.00  0.00     0.029 A 
ENDBRANCH  11  15
ENDBRANCH   1   8
BRANCH   4  21
HETATM   21  C   UNL     1     -44.313  61.606 -51.046  1.00  0.00     0.276 C 
BRANCH  21  22
HETATM   22  C   UNL     1     -44.087  62.680 -50.024  1.00  0.00     0.002 A 
HETATM   23  C   UNL     1     -43.256  63.771 -50.304  1.00  0.00     0.073 A 
HETATM   24  C   UNL     1     -43.049  64.781 -49.367  1.00  0.00     0.038 A 
HETATM   25  C   UNL     1     -43.695  64.714 -48.131  1.00  0.00     0.022 A 
HETATM   26  C   UNL     1     -44.533  63.639 -47.843  1.00  0.00     0.011 A 
HETATM   27 BR   UNL     1     -45.438  63.564 -46.186  1.00  0.00    -0.051 Br
HETATM   28  C   UNL     1     -44.726  62.621 -48.776  1.00  0.00     0.030 A 
BRANCH  23  29
HETATM   29  O   UNL     1     -42.686  63.839 -51.546  1.00  0.00    -0.360 OA
HETATM   30  H   UNL     1     -43.383  64.131 -52.174  1.00  0.00     0.217 HD
ENDBRANCH  23  29
ENDBRANCH  21  22
ENDBRANCH   4  21
TORSDOF 5
ENDMDL
MODEL 7
REMARK VINA RESULT:      -7.6      2.608      3.706
REMARK  5 active torsions:
REMARK  status: ('A' for Active; 'I' for Inactive)
REMARK    1  A    between atoms: C_4  and  N_5 
REMARK    2  A    between atoms: N_8  and  C_10 
REMARK    3  A    between atoms: N_13  and  C_15 
REMARK    4  A    between atoms: C_15  and  C_16 
REMARK    5  A    between atoms: C_17  and  O_18 
ROOT
HETATM    1  C   UNL     1     -42.225  58.905 -53.406  1.00  0.00     0.191 C 
HETATM    2  C   UNL     1     -40.973  58.099 -53.776  1.00  0.00     0.061 C 
HETATM    3  C   UNL     1     -41.182  56.599 -53.987  1.00  0.00     0.237 C 
HETATM    4  N   UNL     1     -42.095  55.977 -52.971  1.00  0.00    -0.067 N 
HETATM    5  H   UNL     1     -41.572  55.833 -52.084  1.00  0.00     0.280 HD
HETATM    6  C   UNL     1     -43.339  56.754 -52.639  1.00  0.00     0.237 C 
HETATM    7  C   UNL     1     -42.979  58.182 -52.291  1.00  0.00     0.061 C 
ENDROOT
BRANCH   1   8
HETATM    8  N   UNL     1     -43.083  59.344 -54.607  1.00  0.00    -0.064 N 
HETATM    9  C   UNL     1     -42.376  59.815 -55.896  1.00  0.00     0.255 C 
HETATM   10  C   UNL     1     -43.377  60.231 -56.996  1.00  0.00     0.150 C 
HETATM   11  N   UNL     1     -44.291  59.109 -57.264  1.00  0.00    -0.378 N 
HETATM   12  C   UNL     1     -45.145  58.834 -56.092  1.00  0.00     0.150 C 
HETATM   13  C   UNL     1     -44.272  58.370 -54.905  1.00  0.00     0.255 C 
HETATM   14  H   UNL     1     -43.573  60.196 -54.290  1.00  0.00     0.280 HD
BRANCH  11  15
HETATM   15  C   UNL     1     -43.805  58.049 -58.049  1.00  0.00     0.030 A 
HETATM   16  C   UNL     1     -43.596  56.753 -57.546  1.00  0.00     0.029 A 
HETATM   17  C   UNL     1     -43.060  55.722 -58.333  1.00  0.00     0.002 A 
HETATM   18  C   UNL     1     -42.748  55.949 -59.666  1.00  0.00     0.000 A 
HETATM   19  C   UNL     1     -43.001  57.196 -60.216  1.00  0.00     0.002 A 
HETATM   20  C   UNL     1     -43.532  58.221 -59.420  1.00  0.00     0.029 A 
ENDBRANCH  11  15
ENDBRANCH   1   8
BRANCH   4  21
HETATM   21  C   UNL     1     -42.419  54.528 -53.367  1.00  0.00     0.276 C 
BRANCH  21  22
HETATM   22  C   UNL     1     -41.396  53.530 -52.912  1.00  0.00     0.002 A 
HETATM   23  C   UNL     1     -40.871  53.584 -51.616  1.00  0.00     0.073 A 
HETATM   24  C   UNL     1     -39.930  52.655 -51.178  1.00  0.00     0.038 A 
HETATM   25  C   UNL     1     -39.513  51.641 -52.042  1.00  0.00     0.022 A 
HETATM   26  C   UNL     1     -40.035  51.569 -53.331  1.00  0.00     0.011 A 
HETATM   27 BR   UNL     1     -39.503  50.174 -54.490  1.00  0.00    -0.051 Br
HETATM   28  C   UNL     1     -40.966  52.509 -53.773  1.00  0.00     0.030 A 
BRANCH  23  29
HETATM   29  O   UNL     1     -41.344  54.553 -50.773  1.00  0.00    -0.360 OA
HETATM   30  H   UNL     1     -41.211  55.420 -51.216  1.00  0.00     0.217 HD
ENDBRANCH  23  29
ENDBRANCH  21  22
ENDBRANCH   4  21
TORSDOF 5
ENDMDL
MODEL 8
REMARK VINA RESULT:      -7.5      2.687      3.442
REMARK  5 active torsions:
REMARK  status: ('A' for Active; 'I' for Inactive)
REMARK    1  A    between atoms: C_4  and  N_5 
REMARK    2  A    between atoms: N_8  and  C_10 
REMARK    3  A    between atoms: N_13  and  C_15 
REMARK    4  A    between atoms: C_15  and  C_16 
REMARK    5  A    between atoms: C_17  and  O_18 
ROOT
HETATM    1  C   UNL     1     -44.716  57.265 -54.283  1.00  0.00     0.191 C 
HETATM    2  C   UNL     1     -44.335  58.029 -53.009  1.00  0.00     0.061 C 
HETATM    3  C   UNL     1     -42.945  57.736 -52.443  1.00  0.00     0.237 C 
HETATM    4  N   UNL     1     -42.586  56.279 -52.476  1.00  0.00    -0.067 N 
HETATM    5  H   UNL     1     -43.066  55.791 -51.693  1.00  0.00     0.280 HD
HETATM    6  C   UNL     1     -42.928  55.543 -53.742  1.00  0.00     0.237 C 
HETATM    7  C   UNL     1     -44.377  55.785 -54.105  1.00  0.00     0.061 C 
ENDROOT
BRANCH   1   8
HETATM    8  N   UNL     1     -44.213  57.906 -55.591  1.00  0.00    -0.064 N 
HETATM    9  C   UNL     1     -43.113  57.185 -56.398  1.00  0.00     0.255 C 
HETATM   10  C   UNL     1     -42.713  57.963 -57.671  1.00  0.00     0.150 C 
HETATM   11  N   UNL     1     -43.915  58.196 -58.488  1.00  0.00    -0.378 N 
HETATM   12  C   UNL     1     -44.853  59.102 -57.798  1.00  0.00     0.150 C 
HETATM   13  C   UNL     1     -45.369  58.434 -56.504  1.00  0.00     0.255 C 
HETATM   14  H   UNL     1     -43.747  58.781 -55.299  1.00  0.00     0.280 HD
BRANCH  11  15
HETATM   15  C   UNL     1     -44.402  57.119 -59.250  1.00  0.00     0.030 A 
HETATM   16  C   UNL     1     -45.646  57.141 -59.903  1.00  0.00     0.029 A 
HETATM   17  C   UNL     1     -46.137  56.035 -60.615  1.00  0.00     0.002 A 
HETATM   18  C   UNL     1     -45.377  54.880 -60.724  1.00  0.00     0.000 A 
HETATM   19  C   UNL     1     -44.117  54.843 -60.148  1.00  0.00     0.002 A 
HETATM   20  C   UNL     1     -43.637  55.951 -59.435  1.00  0.00     0.029 A 
ENDBRANCH  11  15
ENDBRANCH   1   8
BRANCH   4  21
HETATM   21  C   UNL     1     -41.110  56.089 -52.090  1.00  0.00     0.276 C 
BRANCH  21  22
HETATM   22  C   UNL     1     -40.891  55.073 -51.009  1.00  0.00     0.002 A 
HETATM   23  C   UNL     1     -41.040  55.418 -49.662  1.00  0.00     0.073 A 
HETATM   24  C   UNL     1     -40.852  54.480 -48.650  1.00  0.00     0.038 A 
HETATM   25  C   UNL     1     -40.525  53.165 -48.985  1.00  0.00     0.022 A 
HETATM   26  C   UNL     1     -40.383  52.804 -50.323  1.00  0.00     0.011 A 
HETATM   27 BR   UNL     1     -39.979  51.017 -50.783  1.00  0.00    -0.051 Br
HETATM   28  C   UNL     1     -40.557  53.749 -51.334  1.00  0.00     0.030 A 
BRANCH  23  29
HETATM   29  O   UNL     1     -41.421  56.700 -49.367  1.00  0.00    -0.360 OA
HETATM   30  H   UNL     1     -40.650  57.283 -49.539  1.00  0.00     0.217 HD
ENDBRANCH  23  29
ENDBRANCH  21  22
ENDBRANCH   4  21
TORSDOF 5
ENDMDL
MODEL 9
REMARK VINA RESULT:      -7.5      2.673      3.573
REMARK  5 active torsions:
REMARK  status: ('A' for Active; 'I' for Inactive)
REMARK    1  A    between atoms: C_4  and  N_5 
REMARK    2  A    between atoms: N_8  and  C_10 
REMARK    3  A    between atoms: N_13  and  C_15 
REMARK    4  A    between atoms: C_15  and  C_16 
REMARK    5  A    between atoms: C_17  and  O_18 
ROOT
HETATM    1  C   UNL     1     -43.177  58.422 -55.106  1.00  0.00     0.191 C 
HETATM    2  C   UNL     1     -41.850  57.821 -54.626  1.00  0.00     0.061 C 
HETATM    3  C   UNL     1     -41.958  56.570 -53.754  1.00  0.00     0.237 C 
HETATM    4  N   UNL     1     -43.058  56.649 -52.735  1.00  0.00    -0.067 N 
HETATM    5  H   UNL     1     -42.745  57.241 -51.940  1.00  0.00     0.280 HD
HETATM    6  C   UNL     1     -44.369  57.205 -53.221  1.00  0.00     0.237 C 
HETATM    7  C   UNL     1     -44.141  58.525 -53.924  1.00  0.00     0.061 C 
ENDROOT
BRANCH   1   8
HETATM    8  N   UNL     1     -43.755  57.769 -56.376  1.00  0.00    -0.064 N 
HETATM    9  C   UNL     1     -44.871  58.503 -57.148  1.00  0.00     0.255 C 
HETATM   10  C   UNL     1     -45.347  57.710 -58.386  1.00  0.00     0.150 C 
HETATM   11  N   UNL     1     -44.189  57.429 -59.251  1.00  0.00    -0.378 N 
HETATM   12  C   UNL     1     -43.244  56.513 -58.584  1.00  0.00     0.150 C 
HETATM   13  C   UNL     1     -42.654  57.193 -57.328  1.00  0.00     0.255 C 
HETATM   14  H   UNL     1     -44.229  56.913 -56.045  1.00  0.00     0.280 HD
BRANCH  11  15
HETATM   15  C   UNL     1     -43.710  58.478 -60.056  1.00  0.00     0.030 A 
HETATM   16  C   UNL     1     -44.544  59.468 -60.603  1.00  0.00     0.029 A 
HETATM   17  C   UNL     1     -44.053  60.476 -61.448  1.00  0.00     0.002 A 
HETATM   18  C   UNL     1     -42.700  60.544 -61.744  1.00  0.00     0.000 A 
HETATM   19  C   UNL     1     -41.836  59.623 -61.172  1.00  0.00     0.002 A 
HETATM   20  C   UNL     1     -42.336  58.617 -60.332  1.00  0.00     0.029 A 
ENDBRANCH  11  15
ENDBRANCH   1   8
BRANCH   4  21
HETATM   21  C   UNL     1     -43.239  55.287 -52.045  1.00  0.00     0.276 C 
BRANCH  21  22
HETATM   22  C   UNL     1     -41.982  54.745 -51.432  1.00  0.00     0.002 A 
HETATM   23  C   UNL     1     -41.378  55.392 -50.349  1.00  0.00     0.073 A 
HETATM   24  C   UNL     1     -40.218  54.890 -49.763  1.00  0.00     0.038 A 
HETATM   25  C   UNL     1     -39.655  53.711 -50.255  1.00  0.00     0.022 A 
HETATM   26  C   UNL     1     -40.252  53.052 -51.327  1.00  0.00     0.011 A 
HETATM   27 BR   UNL     1     -39.515  51.436 -51.970  1.00  0.00    -0.051 Br
HETATM   28  C   UNL     1     -41.404  53.564 -51.922  1.00  0.00     0.030 A 
BRANCH  23  29
HETATM   29  O   UNL     1     -41.987  56.512 -49.850  1.00  0.00    -0.360 OA
HETATM   30  H   UNL     1     -42.461  56.945 -50.593  1.00  0.00     0.217 HD
ENDBRANCH  23  29
ENDBRANCH  21  22
ENDBRANCH   4  21
TORSDOF 5
ENDMDL
MODEL 10
REMARK VINA RESULT:      -7.5      2.339      3.568
REMARK  5 active torsions:
REMARK  status: ('A' for Active; 'I' for Inactive)
REMARK    1  A    between atoms: C_4  and  N_5 
REMARK    2  A    between atoms: N_8  and  C_10 
REMARK    3  A    between atoms: N_13  and  C_15 
REMARK    4  A    between atoms: C_15  and  C_16 
REMARK    5  A    between atoms: C_17  and  O_18 
ROOT
HETATM    1  C   UNL     1     -44.700  58.718 -54.014  1.00  0.00     0.191 C 
HETATM    2  C   UNL     1     -43.466  59.244 -53.271  1.00  0.00     0.061 C 
HETATM    3  C   UNL     1     -42.146  58.535 -53.579  1.00  0.00     0.237 C 
HETATM    4  N   UNL     1     -42.281  57.042 -53.667  1.00  0.00    -0.067 N 
HETATM    5  H   UNL     1     -42.331  56.647 -52.707  1.00  0.00     0.280 HD
HETATM    6  C   UNL     1     -43.473  56.531 -54.428  1.00  0.00     0.237 C 
HETATM    7  C   UNL     1     -44.735  57.192 -53.917  1.00  0.00     0.061 C 
ENDROOT
BRANCH   1   8
HETATM    8  N   UNL     1     -44.892  59.294 -55.429  1.00  0.00    -0.064 N 
HETATM    9  C   UNL     1     -43.660  59.828 -56.189  1.00  0.00     0.255 C 
HETATM   10  C   UNL     1     -44.025  60.381 -57.585  1.00  0.00     0.150 C 
HETATM   11  N   UNL     1     -44.716  59.332 -58.351  1.00  0.00    -0.378 N 
HETATM   12  C   UNL     1     -46.022  59.010 -57.744  1.00  0.00     0.150 C 
HETATM   13  C   UNL     1     -45.810  58.409 -56.337  1.00  0.00     0.255 C 
HETATM   14  H   UNL     1     -45.466  60.143 -55.298  1.00  0.00     0.280 HD
BRANCH  11  15
HETATM   15  C   UNL     1     -43.928  58.314 -58.916  1.00  0.00     0.030 A 
HETATM   16  C   UNL     1     -44.341  56.972 -58.985  1.00  0.00     0.029 A 
HETATM   17  C   UNL     1     -43.518  55.961 -59.505  1.00  0.00     0.002 A 
HETATM   18  C   UNL     1     -42.262  56.270 -60.006  1.00  0.00     0.000 A 
HETATM   19  C   UNL     1     -41.844  57.593 -60.014  1.00  0.00     0.002 A 
HETATM   20  C   UNL     1     -42.673  58.595 -59.488  1.00  0.00     0.029 A 
ENDBRANCH  11  15
ENDBRANCH   1   8
BRANCH   4  21
HETATM   21  C   UNL     1     -40.972  56.422 -54.180  1.00  0.00     0.276 C 
BRANCH  21  22
HETATM   22  C   UNL     1     -40.729  55.025 -53.692  1.00  0.00     0.002 A 
HETATM   23  C   UNL     1     -40.439  53.993 -54.592  1.00  0.00     0.073 A 
HETATM   24  C   UNL     1     -40.199  52.694 -54.149  1.00  0.00     0.038 A 
HETATM   25  C   UNL     1     -40.233  52.418 -52.781  1.00  0.00     0.022 A 
HETATM   26  C   UNL     1     -40.510  53.437 -51.874  1.00  0.00     0.011 A 
HETATM   27 BR   UNL     1     -40.519  53.076 -50.019  1.00  0.00    -0.051 Br
HETATM   28  C   UNL     1     -40.766  54.734 -52.320  1.00  0.00     0.030 A 
BRANCH  23  29
HETATM   29  O   UNL     1     -40.353  54.307 -55.921  1.00  0.00    -0.360 OA
HETATM   30  H   UNL     1     -39.870  55.160 -55.992  1.00  0.00     0.217 HD
ENDBRANCH  23  29
ENDBRANCH  21  22
ENDBRANCH   4  21
TORSDOF 5
ENDMDL
