MODEL 1
REMARK VINA RESULT:      -8.9      0.000      0.000
REMARK  7 active torsions:
REMARK  status: ('A' for Active; 'I' for Inactive)
REMARK    1  A    between atoms: C_2  and  C_3 
REMARK    2  A    between atoms: C_6  and  C_7 
REMARK    3  A    between atoms: C_10  and  C_11 
REMARK       I    between atoms: C_11  and  N_12 
REMARK    4  A    between atoms: N_12  and  C_13 
REMARK    5  A    between atoms: C_25  and  C_26 
REMARK       I    between atoms: C_26  and  N_27 
REMARK    6  A    between atoms: N_27  and  C_28 
REMARK    7  A    between atoms: C_31  and  O_32 
ROOT
HETATM    1  C   UNL     1     -43.427  58.044 -53.329  1.00  0.00     0.185 C 
HETATM    2  N   UNL     1     -44.208  59.104 -52.668  1.00  0.00    -0.239 N 
HETATM    3  C   UNL     1     -43.823  59.737 -51.509  1.00  0.00     0.142 C 
HETATM    4  C   UNL     1     -44.823  60.645 -51.220  1.00  0.00     0.097 C 
HETATM    5  C   UNL     1     -45.824  60.363 -52.186  1.00  0.00     0.160 C 
HETATM    6  N   UNL     1     -45.470  59.403 -53.047  1.00  0.00    -0.181 NA
HETATM    7  N   UNL     1     -42.670  59.360 -50.901  1.00  0.00    -0.343 N 
HETATM    8  C   UNL     1     -41.911  58.271 -51.339  1.00  0.00     0.021 C 
HETATM    9  C   UNL     1     -40.749  57.882 -50.454  1.00  0.00     0.069 C 
HETATM   10  C   UNL     1     -42.246  57.614 -52.475  1.00  0.00     0.061 C 
HETATM   11  H   UNL     1     -42.461  59.663 -49.949  1.00  0.00     0.167 HD
ENDROOT
BRANCH  10  12
HETATM   12  C   UNL     1     -41.414  56.486 -52.980  1.00  0.00     0.256 C 
HETATM   13  N   UNL     1     -41.769  55.267 -52.440  1.00  0.00    -0.323 N 
HETATM   14  H   UNL     1     -42.509  55.251 -51.752  1.00  0.00     0.169 HD
HETATM   15  O   UNL     1     -40.513  56.712 -53.779  1.00  0.00    -0.267 OA
BRANCH  13  16
HETATM   16  C   UNL     1     -41.179  54.012 -52.704  1.00  0.00     0.035 A 
HETATM   17  C   UNL     1     -41.345  53.303 -53.893  1.00  0.00     0.032 A 
HETATM   18  C   UNL     1     -40.694  52.076 -54.080  1.00  0.00     0.039 A 
HETATM   19  C   UNL     1     -39.870  51.544 -53.088  1.00  0.00     0.068 A 
HETATM   20  C   UNL     1     -39.723  52.234 -51.888  1.00  0.00     0.039 A 
HETATM   21  C   UNL     1     -40.371  53.462 -51.701  1.00  0.00     0.032 A 
BRANCH  19  22
HETATM   22  O   UNL     1     -39.279  50.353 -53.405  1.00  0.00    -0.356 OA
HETATM   23  C   UNL     1     -39.658  49.766 -54.644  1.00  0.00     0.210 C 
ENDBRANCH  19  22
ENDBRANCH  13  16
ENDBRANCH  10  12
BRANCH   1  24
HETATM   24  C   UNL     1     -43.058  58.472 -54.746  1.00  0.00    -0.029 A 
HETATM   25  C   UNL     1     -42.389  59.677 -55.016  1.00  0.00     0.010 A 
HETATM   26  C   UNL     1     -42.065  60.035 -56.327  1.00  0.00     0.007 A 
HETATM   27  C   UNL     1     -42.422  59.211 -57.400  1.00  0.00    -0.059 A 
HETATM   28  C   UNL     1     -43.102  58.017 -57.140  1.00  0.00     0.007 A 
HETATM   29  C   UNL     1     -43.421  57.654 -55.829  1.00  0.00     0.010 A 
BRANCH  27  30
HETATM   30  C   UNL     1     -42.056  59.589 -58.813  1.00  0.00     0.034 C 
HETATM   31  C   UNL     1     -42.071  58.384 -59.740  1.00  0.00     0.010 C 
ENDBRANCH  27  30
ENDBRANCH   1  24
BRANCH   4  32
HETATM   32  C   UNL     1     -44.911  61.626 -50.153  1.00  0.00     0.261 C 
HETATM   33  N   UNL     1     -45.696  61.215 -49.092  1.00  0.00    -0.323 N 
HETATM   34  H   UNL     1     -46.007  60.251 -49.123  1.00  0.00     0.169 HD
HETATM   35  O   UNL     1     -44.290  62.679 -50.227  1.00  0.00    -0.267 OA
BRANCH  33  36
HETATM   36  C   UNL     1     -46.003  61.933 -47.919  1.00  0.00     0.035 A 
HETATM   37  C   UNL     1     -47.150  62.712 -47.757  1.00  0.00     0.029 A 
HETATM   38  C   UNL     1     -47.381  63.398 -46.560  1.00  0.00     0.002 A 
HETATM   39  C   UNL     1     -46.469  63.306 -45.511  1.00  0.00     0.000 A 
HETATM   40  C   UNL     1     -45.325  62.526 -45.659  1.00  0.00     0.002 A 
HETATM   41  C   UNL     1     -45.094  61.842 -46.855  1.00  0.00     0.029 A 
ENDBRANCH  33  36
ENDBRANCH   4  32
TORSDOF 7
ENDMDL
MODEL 2
REMARK VINA RESULT:      -8.8      5.150      9.696
REMARK  7 active torsions:
REMARK  status: ('A' for Active; 'I' for Inactive)
REMARK    1  A    between atoms: C_2  and  C_3 
REMARK    2  A    between atoms: C_6  and  C_7 
REMARK    3  A    between atoms: C_10  and  C_11 
REMARK       I    between atoms: C_11  and  N_12 
REMARK    4  A    between atoms: N_12  and  C_13 
REMARK    5  A    between atoms: C_25  and  C_26 
REMARK       I    between atoms: C_26  and  N_27 
REMARK    6  A    between atoms: N_27  and  C_28 
REMARK    7  A    between atoms: C_31  and  O_32 
ROOT
HETATM    1  C   UNL     1     -43.728  58.310 -57.066  1.00  0.00     0.185 C 
HETATM    2  N   UNL     1     -42.944  57.650 -56.007  1.00  0.00    -0.239 N 
HETATM    3  C   UNL     1     -42.257  56.470 -56.179  1.00  0.00     0.142 C 
HETATM    4  C   UNL     1     -41.670  56.190 -54.961  1.00  0.00     0.097 C 
HETATM    5  C   UNL     1     -42.194  57.186 -54.097  1.00  0.00     0.160 C 
HETATM    6  N   UNL     1     -42.996  58.056 -54.720  1.00  0.00    -0.181 NA
HETATM    7  N   UNL     1     -42.315  55.840 -57.379  1.00  0.00    -0.343 N 
HETATM    8  C   UNL     1     -43.139  56.277 -58.419  1.00  0.00     0.021 C 
HETATM    9  C   UNL     1     -43.213  55.370 -59.626  1.00  0.00     0.069 C 
HETATM   10  C   UNL     1     -43.835  57.434 -58.302  1.00  0.00     0.061 C 
HETATM   11  H   UNL     1     -41.990  54.877 -57.477  1.00  0.00     0.167 HD
ENDROOT
BRANCH  10  12
HETATM   12  C   UNL     1     -44.675  57.938 -59.425  1.00  0.00     0.256 C 
HETATM   13  N   UNL     1     -45.942  57.393 -59.440  1.00  0.00    -0.323 N 
HETATM   14  H   UNL     1     -46.170  56.704 -58.738  1.00  0.00     0.169 HD
HETATM   15  O   UNL     1     -44.200  58.740 -60.220  1.00  0.00    -0.267 OA
BRANCH  13  16
HETATM   16  C   UNL     1     -46.973  57.656 -60.368  1.00  0.00     0.035 A 
HETATM   17  C   UNL     1     -47.570  58.903 -60.545  1.00  0.00     0.032 A 
HETATM   18  C   UNL     1     -48.566  59.079 -61.514  1.00  0.00     0.039 A 
HETATM   19  C   UNL     1     -48.977  58.016 -62.318  1.00  0.00     0.068 A 
HETATM   20  C   UNL     1     -48.406  56.761 -62.127  1.00  0.00     0.039 A 
HETATM   21  C   UNL     1     -47.407  56.586 -61.160  1.00  0.00     0.032 A 
BRANCH  19  22
HETATM   22  O   UNL     1     -49.941  58.325 -63.237  1.00  0.00    -0.356 OA
HETATM   23  C   UNL     1     -50.960  59.222 -62.811  1.00  0.00     0.210 C 
ENDBRANCH  19  22
ENDBRANCH  13  16
ENDBRANCH  10  12
BRANCH   1  24
HETATM   24  C   UNL     1     -43.179  59.709 -57.329  1.00  0.00    -0.029 A 
HETATM   25  C   UNL     1     -43.950  60.866 -57.136  1.00  0.00     0.010 A 
HETATM   26  C   UNL     1     -43.413  62.131 -57.384  1.00  0.00     0.007 A 
HETATM   27  C   UNL     1     -42.101  62.270 -57.852  1.00  0.00    -0.059 A 
HETATM   28  C   UNL     1     -41.332  61.121 -58.061  1.00  0.00     0.007 A 
HETATM   29  C   UNL     1     -41.866  59.855 -57.806  1.00  0.00     0.010 A 
BRANCH  27  30
HETATM   30  C   UNL     1     -41.516  63.636 -58.102  1.00  0.00     0.034 C 
HETATM   31  C   UNL     1     -40.149  63.551 -58.764  1.00  0.00     0.010 C 
ENDBRANCH  27  30
ENDBRANCH   1  24
BRANCH   4  32
HETATM   32  C   UNL     1     -40.779  55.108 -54.582  1.00  0.00     0.261 C 
HETATM   33  N   UNL     1     -41.335  54.232 -53.667  1.00  0.00    -0.323 N 
HETATM   34  H   UNL     1     -42.319  54.371 -53.469  1.00  0.00     0.169 HD
HETATM   35  O   UNL     1     -39.670  55.010 -55.094  1.00  0.00    -0.267 OA
BRANCH  33  36
HETATM   36  C   UNL     1     -40.732  53.100 -53.083  1.00  0.00     0.035 A 
HETATM   37  C   UNL     1     -40.292  51.990 -53.804  1.00  0.00     0.029 A 
HETATM   38  C   UNL     1     -39.705  50.903 -53.148  1.00  0.00     0.002 A 
HETATM   39  C   UNL     1     -39.548  50.920 -51.764  1.00  0.00     0.000 A 
HETATM   40  C   UNL     1     -39.976  52.026 -51.036  1.00  0.00     0.002 A 
HETATM   41  C   UNL     1     -40.564  53.111 -51.691  1.00  0.00     0.029 A 
ENDBRANCH  33  36
ENDBRANCH   4  32
TORSDOF 7
ENDMDL
MODEL 3
REMARK VINA RESULT:      -8.6      5.010      9.806
REMARK  7 active torsions:
REMARK  status: ('A' for Active; 'I' for Inactive)
REMARK    1  A    between atoms: C_2  and  C_3 
REMARK    2  A    between atoms: C_6  and  C_7 
REMARK    3  A    between atoms: C_10  and  C_11 
REMARK       I    between atoms: C_11  and  N_12 
REMARK    4  A    between atoms: N_12  and  C_13 
REMARK    5  A    between atoms: C_25  and  C_26 
REMARK       I    between atoms: C_26  and  N_27 
REMARK    6  A    between atoms: N_27  and  C_28 
REMARK    7  A    between atoms: C_31  and  O_32 
ROOT
HETATM    1  C   UNL     1     -44.531  58.062 -57.009  1.00  0.00     0.185 C 
HETATM    2  N   UNL     1     -43.778  57.430 -55.912  1.00  0.00    -0.239 N 
HETATM    3  C   UNL     1     -42.798  56.482 -56.096  1.00  0.00     0.142 C 
HETATM    4  C   UNL     1     -42.353  56.143 -54.833  1.00  0.00     0.097 C 
HETATM    5  C   UNL     1     -43.237  56.837 -53.967  1.00  0.00     0.160 C 
HETATM    6  N   UNL     1     -44.128  57.593 -54.617  1.00  0.00    -0.181 NA
HETATM    7  N   UNL     1     -42.510  56.063 -57.354  1.00  0.00    -0.343 N 
HETATM    8  C   UNL     1     -43.248  56.469 -58.468  1.00  0.00     0.021 C 
HETATM    9  C   UNL     1     -42.904  55.783 -59.770  1.00  0.00     0.069 C 
HETATM   10  C   UNL     1     -44.223  57.402 -58.342  1.00  0.00     0.061 C 
HETATM   11  H   UNL     1     -41.941  55.230 -57.507  1.00  0.00     0.167 HD
ENDROOT
BRANCH  10  12
HETATM   12  C   UNL     1     -44.980  57.882 -59.532  1.00  0.00     0.256 C 
HETATM   13  N   UNL     1     -46.245  57.338 -59.625  1.00  0.00    -0.323 N 
HETATM   14  H   UNL     1     -46.523  56.665 -58.925  1.00  0.00     0.169 HD
HETATM   15  O   UNL     1     -44.449  58.666 -60.309  1.00  0.00    -0.267 OA
BRANCH  13  16
HETATM   16  C   UNL     1     -47.207  57.581 -60.629  1.00  0.00     0.035 A 
HETATM   17  C   UNL     1     -47.739  58.837 -60.917  1.00  0.00     0.032 A 
HETATM   18  C   UNL     1     -48.668  58.989 -61.955  1.00  0.00     0.039 A 
HETATM   19  C   UNL     1     -49.076  57.895 -62.717  1.00  0.00     0.068 A 
HETATM   20  C   UNL     1     -48.571  56.633 -62.415  1.00  0.00     0.039 A 
HETATM   21  C   UNL     1     -47.639  56.481 -61.379  1.00  0.00     0.032 A 
BRANCH  19  22
HETATM   22  O   UNL     1     -49.970  58.182 -63.710  1.00  0.00    -0.356 OA
HETATM   23  C   UNL     1     -51.025  59.076 -63.375  1.00  0.00     0.210 C 
ENDBRANCH  19  22
ENDBRANCH  13  16
ENDBRANCH  10  12
BRANCH   1  24
HETATM   24  C   UNL     1     -44.320  59.572 -56.987  1.00  0.00    -0.029 A 
HETATM   25  C   UNL     1     -45.385  60.477 -56.851  1.00  0.00     0.010 A 
HETATM   26  C   UNL     1     -45.152  61.854 -56.832  1.00  0.00     0.007 A 
HETATM   27  C   UNL     1     -43.856  62.361 -56.972  1.00  0.00    -0.059 A 
HETATM   28  C   UNL     1     -42.792  61.466 -57.124  1.00  0.00     0.007 A 
HETATM   29  C   UNL     1     -43.022  60.088 -57.136  1.00  0.00     0.010 A 
BRANCH  27  30
HETATM   30  C   UNL     1     -43.603  63.847 -56.934  1.00  0.00     0.034 C 
HETATM   31  C   UNL     1     -42.409  64.238 -57.789  1.00  0.00     0.010 C 
ENDBRANCH  27  30
ENDBRANCH   1  24
BRANCH   4  32
HETATM   32  C   UNL     1     -41.286  55.244 -54.430  1.00  0.00     0.261 C 
HETATM   33  N   UNL     1     -41.738  54.116 -53.769  1.00  0.00    -0.323 N 
HETATM   34  H   UNL     1     -42.743  53.988 -53.756  1.00  0.00     0.169 HD
HETATM   35  O   UNL     1     -40.122  55.495 -54.717  1.00  0.00    -0.267 OA
BRANCH  33  36
HETATM   36  C   UNL     1     -40.967  53.067 -53.231  1.00  0.00     0.035 A 
HETATM   37  C   UNL     1     -40.598  52.977 -51.888  1.00  0.00     0.029 A 
HETATM   38  C   UNL     1     -39.828  51.902 -51.433  1.00  0.00     0.002 A 
HETATM   39  C   UNL     1     -39.424  50.903 -52.317  1.00  0.00     0.000 A 
HETATM   40  C   UNL     1     -39.793  50.979 -53.657  1.00  0.00     0.002 A 
HETATM   41  C   UNL     1     -40.561  52.054 -54.111  1.00  0.00     0.029 A 
ENDBRANCH  33  36
ENDBRANCH   4  32
TORSDOF 7
ENDMDL
MODEL 4
REMARK VINA RESULT:      -8.5      2.521      5.441
REMARK  7 active torsions:
REMARK  status: ('A' for Active; 'I' for Inactive)
REMARK    1  A    between atoms: C_2  and  C_3 
REMARK    2  A    between atoms: C_6  and  C_7 
REMARK    3  A    between atoms: C_10  and  C_11 
REMARK       I    between atoms: C_11  and  N_12 
REMARK    4  A    between atoms: N_12  and  C_13 
REMARK    5  A    between atoms: C_25  and  C_26 
REMARK       I    between atoms: C_26  and  N_27 
REMARK    6  A    between atoms: N_27  and  C_28 
REMARK    7  A    between atoms: C_31  and  O_32 
ROOT
HETATM    1  C   UNL     1     -41.591  59.029 -53.594  1.00  0.00     0.185 C 
HETATM    2  N   UNL     1     -41.741  59.633 -52.258  1.00  0.00    -0.239 N 
HETATM    3  C   UNL     1     -42.747  60.507 -51.916  1.00  0.00     0.142 C 
HETATM    4  C   UNL     1     -42.527  60.844 -50.595  1.00  0.00     0.097 C 
HETATM    5  C   UNL     1     -41.281  60.233 -50.295  1.00  0.00     0.160 C 
HETATM    6  N   UNL     1     -40.782  59.525 -51.313  1.00  0.00    -0.181 NA
HETATM    7  N   UNL     1     -43.653  60.874 -52.857  1.00  0.00    -0.343 N 
HETATM    8  C   UNL     1     -43.541  60.494 -54.197  1.00  0.00     0.021 C 
HETATM    9  C   UNL     1     -44.536  61.123 -55.144  1.00  0.00     0.069 C 
HETATM   10  C   UNL     1     -42.569  59.633 -54.587  1.00  0.00     0.061 C 
HETATM   11  H   UNL     1     -44.281  61.663 -52.695  1.00  0.00     0.167 HD
ENDROOT
BRANCH  10  12
HETATM   12  C   UNL     1     -42.473  59.179 -56.002  1.00  0.00     0.256 C 
HETATM   13  N   UNL     1     -43.334  58.142 -56.297  1.00  0.00    -0.323 N 
HETATM   14  H   UNL     1     -43.907  57.775 -55.551  1.00  0.00     0.169 HD
HETATM   15  O   UNL     1     -41.669  59.715 -56.754  1.00  0.00    -0.267 OA
BRANCH  13  16
HETATM   16  C   UNL     1     -43.486  57.485 -57.538  1.00  0.00     0.035 A 
HETATM   17  C   UNL     1     -42.839  56.299 -57.881  1.00  0.00     0.032 A 
HETATM   18  C   UNL     1     -43.075  55.700 -59.125  1.00  0.00     0.039 A 
HETATM   19  C   UNL     1     -43.956  56.275 -60.041  1.00  0.00     0.068 A 
HETATM   20  C   UNL     1     -44.582  57.475 -59.716  1.00  0.00     0.039 A 
HETATM   21  C   UNL     1     -44.350  58.073 -58.470  1.00  0.00     0.032 A 
BRANCH  19  22
HETATM   22  O   UNL     1     -44.112  55.580 -61.208  1.00  0.00    -0.356 OA
HETATM   23  C   UNL     1     -45.432  55.152 -61.521  1.00  0.00     0.210 C 
ENDBRANCH  19  22
ENDBRANCH  13  16
ENDBRANCH  10  12
BRANCH   1  24
HETATM   24  C   UNL     1     -41.655  57.508 -53.491  1.00  0.00    -0.029 A 
HETATM   25  C   UNL     1     -42.686  56.846 -52.806  1.00  0.00     0.010 A 
HETATM   26  C   UNL     1     -42.713  55.451 -52.735  1.00  0.00     0.007 A 
HETATM   27  C   UNL     1     -41.701  54.686 -53.325  1.00  0.00    -0.059 A 
HETATM   28  C   UNL     1     -40.662  55.341 -53.996  1.00  0.00     0.007 A 
HETATM   29  C   UNL     1     -40.637  56.735 -54.074  1.00  0.00     0.010 A 
BRANCH  27  30
HETATM   30  C   UNL     1     -41.740  53.181 -53.264  1.00  0.00     0.034 C 
HETATM   31  C   UNL     1     -40.503  52.558 -53.892  1.00  0.00     0.010 C 
ENDBRANCH  27  30
ENDBRANCH   1  24
BRANCH   4  32
HETATM   32  C   UNL     1     -43.312  61.676 -49.702  1.00  0.00     0.261 C 
HETATM   33  N   UNL     1     -44.168  60.955 -48.889  1.00  0.00    -0.323 N 
HETATM   34  H   UNL     1     -44.060  59.948 -48.921  1.00  0.00     0.169 HD
HETATM   35  O   UNL     1     -43.152  62.890 -49.685  1.00  0.00    -0.267 OA
BRANCH  33  36
HETATM   36  C   UNL     1     -45.076  61.457 -47.935  1.00  0.00     0.035 A 
HETATM   37  C   UNL     1     -44.863  61.413 -46.556  1.00  0.00     0.029 A 
HETATM   38  C   UNL     1     -45.817  61.932 -45.673  1.00  0.00     0.002 A 
HETATM   39  C   UNL     1     -46.989  62.504 -46.163  1.00  0.00     0.000 A 
HETATM   40  C   UNL     1     -47.207  62.560 -47.536  1.00  0.00     0.002 A 
HETATM   41  C   UNL     1     -46.256  62.040 -48.418  1.00  0.00     0.029 A 
ENDBRANCH  33  36
ENDBRANCH   4  32
TORSDOF 7
ENDMDL
MODEL 5
REMARK VINA RESULT:      -8.2      3.995      8.534
REMARK  7 active torsions:
REMARK  status: ('A' for Active; 'I' for Inactive)
REMARK    1  A    between atoms: C_2  and  C_3 
REMARK    2  A    between atoms: C_6  and  C_7 
REMARK    3  A    between atoms: C_10  and  C_11 
REMARK       I    between atoms: C_11  and  N_12 
REMARK    4  A    between atoms: N_12  and  C_13 
REMARK    5  A    between atoms: C_25  and  C_26 
REMARK       I    between atoms: C_26  and  N_27 
REMARK    6  A    between atoms: N_27  and  C_28 
REMARK    7  A    between atoms: C_31  and  O_32 
ROOT
HETATM    1  C   UNL     1     -42.104  57.792 -55.894  1.00  0.00     0.185 C 
HETATM    2  N   UNL     1     -42.774  58.093 -57.171  1.00  0.00    -0.239 N 
HETATM    3  C   UNL     1     -43.566  57.201 -57.855  1.00  0.00     0.142 C 
HETATM    4  C   UNL     1     -43.990  57.860 -58.993  1.00  0.00     0.097 C 
HETATM    5  C   UNL     1     -43.271  59.083 -58.960  1.00  0.00     0.160 C 
HETATM    6  N   UNL     1     -42.504  59.216 -57.873  1.00  0.00    -0.181 NA
HETATM    7  N   UNL     1     -43.733  55.948 -57.359  1.00  0.00    -0.343 N 
HETATM    8  C   UNL     1     -43.038  55.485 -56.239  1.00  0.00     0.021 C 
HETATM    9  C   UNL     1     -43.210  54.019 -55.919  1.00  0.00     0.069 C 
HETATM   10  C   UNL     1     -42.246  56.324 -55.528  1.00  0.00     0.061 C 
HETATM   11  H   UNL     1     -44.142  55.211 -57.935  1.00  0.00     0.167 HD
ENDROOT
BRANCH  10  12
HETATM   12  C   UNL     1     -41.543  55.856 -54.302  1.00  0.00     0.256 C 
HETATM   13  N   UNL     1     -42.334  55.903 -53.173  1.00  0.00    -0.323 N 
HETATM   14  H   UNL     1     -43.271  56.267 -53.266  1.00  0.00     0.169 HD
HETATM   15  O   UNL     1     -40.373  55.501 -54.376  1.00  0.00    -0.267 OA
BRANCH  13  16
HETATM   16  C   UNL     1     -41.970  55.535 -51.859  1.00  0.00     0.035 A 
HETATM   17  C   UNL     1     -41.657  56.443 -50.849  1.00  0.00     0.032 A 
HETATM   18  C   UNL     1     -41.337  55.987 -49.563  1.00  0.00     0.039 A 
HETATM   19  C   UNL     1     -41.326  54.624 -49.269  1.00  0.00     0.068 A 
HETATM   20  C   UNL     1     -41.609  53.711 -50.281  1.00  0.00     0.039 A 
HETATM   21  C   UNL     1     -41.932  54.166 -51.566  1.00  0.00     0.032 A 
BRANCH  19  22
HETATM   22  O   UNL     1     -41.017  54.314 -47.974  1.00  0.00    -0.356 OA
HETATM   23  C   UNL     1     -39.713  53.797 -47.739  1.00  0.00     0.210 C 
ENDBRANCH  19  22
ENDBRANCH  13  16
ENDBRANCH  10  12
BRANCH   1  24
HETATM   24  C   UNL     1     -42.577  58.760 -54.813  1.00  0.00    -0.029 A 
HETATM   25  C   UNL     1     -41.687  59.570 -54.091  1.00  0.00     0.010 A 
HETATM   26  C   UNL     1     -42.157  60.447 -53.110  1.00  0.00     0.007 A 
HETATM   27  C   UNL     1     -43.522  60.521 -52.813  1.00  0.00    -0.059 A 
HETATM   28  C   UNL     1     -44.413  59.705 -53.519  1.00  0.00     0.007 A 
HETATM   29  C   UNL     1     -43.945  58.832 -54.504  1.00  0.00     0.010 A 
BRANCH  27  30
HETATM   30  C   UNL     1     -44.030  61.480 -51.768  1.00  0.00     0.034 C 
HETATM   31  C   UNL     1     -43.298  61.313 -50.446  1.00  0.00     0.010 C 
ENDBRANCH  27  30
ENDBRANCH   1  24
BRANCH   4  32
HETATM   32  C   UNL     1     -44.896  57.425 -60.040  1.00  0.00     0.261 C 
HETATM   33  N   UNL     1     -46.079  58.143 -60.076  1.00  0.00    -0.323 N 
HETATM   34  H   UNL     1     -46.121  58.951 -59.466  1.00  0.00     0.169 HD
HETATM   35  O   UNL     1     -44.569  56.533 -60.813  1.00  0.00    -0.267 OA
BRANCH  33  36
HETATM   36  C   UNL     1     -47.170  57.959 -60.948  1.00  0.00     0.035 A 
HETATM   37  C   UNL     1     -47.619  56.713 -61.387  1.00  0.00     0.029 A 
HETATM   38  C   UNL     1     -48.710  56.616 -62.257  1.00  0.00     0.002 A 
HETATM   39  C   UNL     1     -49.367  57.766 -62.690  1.00  0.00     0.000 A 
HETATM   40  C   UNL     1     -48.932  59.013 -62.252  1.00  0.00     0.002 A 
HETATM   41  C   UNL     1     -47.841  59.110 -61.385  1.00  0.00     0.029 A 
ENDBRANCH  33  36
ENDBRANCH   4  32
TORSDOF 7
ENDMDL
MODEL 6
REMARK VINA RESULT:      -8.2      3.224      8.451
REMARK  7 active torsions:
REMARK  status: ('A' for Active; 'I' for Inactive)
REMARK    1  A    between atoms: C_2  and  C_3 
REMARK    2  A    between atoms: C_6  and  C_7 
REMARK    3  A    between atoms: C_10  and  C_11 
REMARK       I    between atoms: C_11  and  N_12 
REMARK    4  A    between atoms: N_12  and  C_13 
REMARK    5  A    between atoms: C_25  and  C_26 
REMARK       I    between atoms: C_26  and  N_27 
REMARK    6  A    between atoms: N_27  and  C_28 
REMARK    7  A    between atoms: C_31  and  O_32 
ROOT
HETATM    1  C   UNL     1     -42.152  58.030 -55.100  1.00  0.00     0.185 C 
HETATM    2  N   UNL     1     -42.185  59.077 -56.137  1.00  0.00    -0.239 N 
HETATM    3  C   UNL     1     -42.582  58.862 -57.437  1.00  0.00     0.142 C 
HETATM    4  C   UNL     1     -42.460  60.078 -58.079  1.00  0.00     0.097 C 
HETATM    5  C   UNL     1     -41.841  60.910 -57.109  1.00  0.00     0.160 C 
HETATM    6  N   UNL     1     -41.640  60.297 -55.939  1.00  0.00    -0.181 NA
HETATM    7  N   UNL     1     -42.941  57.611 -57.820  1.00  0.00    -0.343 N 
HETATM    8  C   UNL     1     -42.814  56.502 -56.981  1.00  0.00     0.021 C 
HETATM    9  C   UNL     1     -43.099  55.160 -57.616  1.00  0.00     0.069 C 
HETATM   10  C   UNL     1     -42.429  56.658 -55.691  1.00  0.00     0.061 C 
HETATM   11  H   UNL     1     -43.045  57.380 -58.809  1.00  0.00     0.167 HD
ENDROOT
BRANCH  10  12
HETATM   12  C   UNL     1     -42.342  55.489 -54.772  1.00  0.00     0.256 C 
HETATM   13  N   UNL     1     -41.046  55.072 -54.547  1.00  0.00    -0.323 N 
HETATM   14  H   UNL     1     -40.303  55.555 -55.031  1.00  0.00     0.169 HD
HETATM   15  O   UNL     1     -43.370  54.998 -54.322  1.00  0.00    -0.267 OA
BRANCH  13  16
HETATM   16  C   UNL     1     -40.625  53.997 -53.735  1.00  0.00     0.035 A 
HETATM   17  C   UNL     1     -40.568  54.041 -52.343  1.00  0.00     0.032 A 
HETATM   18  C   UNL     1     -40.166  52.912 -51.616  1.00  0.00     0.039 A 
HETATM   19  C   UNL     1     -39.818  51.729 -52.267  1.00  0.00     0.068 A 
HETATM   20  C   UNL     1     -39.844  51.688 -53.658  1.00  0.00     0.039 A 
HETATM   21  C   UNL     1     -40.249  52.815 -54.385  1.00  0.00     0.032 A 
BRANCH  19  22
HETATM   22  O   UNL     1     -39.464  50.698 -51.442  1.00  0.00    -0.356 OA
HETATM   23  C   UNL     1     -39.561  49.387 -51.986  1.00  0.00     0.210 C 
ENDBRANCH  19  22
ENDBRANCH  13  16
ENDBRANCH  10  12
BRANCH   1  24
HETATM   24  C   UNL     1     -43.065  58.414 -53.939  1.00  0.00    -0.029 A 
HETATM   25  C   UNL     1     -42.644  58.350 -52.602  1.00  0.00     0.010 A 
HETATM   26  C   UNL     1     -43.507  58.713 -51.565  1.00  0.00     0.007 A 
HETATM   27  C   UNL     1     -44.816  59.125 -51.837  1.00  0.00    -0.059 A 
HETATM   28  C   UNL     1     -45.246  59.176 -53.166  1.00  0.00     0.007 A 
HETATM   29  C   UNL     1     -44.383  58.821 -54.205  1.00  0.00     0.010 A 
BRANCH  27  30
HETATM   30  C   UNL     1     -45.740  59.533 -50.719  1.00  0.00     0.034 C 
HETATM   31  C   UNL     1     -45.141  60.641 -49.867  1.00  0.00     0.010 C 
ENDBRANCH  27  30
ENDBRANCH   1  24
BRANCH   4  32
HETATM   32  C   UNL     1     -42.801  60.453 -59.439  1.00  0.00     0.261 C 
HETATM   33  N   UNL     1     -41.735  60.973 -60.150  1.00  0.00    -0.323 N 
HETATM   34  H   UNL     1     -40.832  60.915 -59.693  1.00  0.00     0.169 HD
HETATM   35  O   UNL     1     -43.932  60.261 -59.870  1.00  0.00    -0.267 OA
BRANCH  33  36
HETATM   36  C   UNL     1     -41.735  61.450 -61.476  1.00  0.00     0.035 A 
HETATM   37  C   UNL     1     -42.585  60.976 -62.477  1.00  0.00     0.029 A 
HETATM   38  C   UNL     1     -42.521  61.501 -63.772  1.00  0.00     0.002 A 
HETATM   39  C   UNL     1     -41.609  62.510 -64.076  1.00  0.00     0.000 A 
HETATM   40  C   UNL     1     -40.762  62.995 -63.083  1.00  0.00     0.002 A 
HETATM   41  C   UNL     1     -40.826  62.469 -61.790  1.00  0.00     0.029 A 
ENDBRANCH  33  36
ENDBRANCH   4  32
TORSDOF 7
ENDMDL
MODEL 7
REMARK VINA RESULT:      -7.8      3.083      9.668
REMARK  7 active torsions:
REMARK  status: ('A' for Active; 'I' for Inactive)
REMARK    1  A    between atoms: C_2  and  C_3 
REMARK    2  A    between atoms: C_6  and  C_7 
REMARK    3  A    between atoms: C_10  and  C_11 
REMARK       I    between atoms: C_11  and  N_12 
REMARK    4  A    between atoms: N_12  and  C_13 
REMARK    5  A    between atoms: C_25  and  C_26 
REMARK       I    between atoms: C_26  and  N_27 
REMARK    6  A    between atoms: N_27  and  C_28 
REMARK    7  A    between atoms: C_31  and  O_32 
ROOT
HETATM    1  C   UNL     1     -43.170  58.721 -54.467  1.00  0.00     0.185 C 
HETATM    2  N   UNL     1     -42.532  57.392 -54.482  1.00  0.00    -0.239 N 
HETATM    3  C   UNL     1     -42.734  56.429 -53.521  1.00  0.00     0.142 C 
HETATM    4  C   UNL     1     -41.958  55.350 -53.894  1.00  0.00     0.097 C 
HETATM    5  C   UNL     1     -41.222  55.833 -55.008  1.00  0.00     0.160 C 
HETATM    6  N   UNL     1     -41.542  57.086 -55.348  1.00  0.00    -0.181 NA
HETATM    7  N   UNL     1     -43.542  56.706 -52.467  1.00  0.00    -0.343 N 
HETATM    8  C   UNL     1     -44.089  57.973 -52.251  1.00  0.00     0.021 C 
HETATM    9  C   UNL     1     -44.827  58.158 -50.945  1.00  0.00     0.069 C 
HETATM   10  C   UNL     1     -43.922  58.957 -53.168  1.00  0.00     0.061 C 
HETATM   11  H   UNL     1     -43.553  56.098 -51.646  1.00  0.00     0.167 HD
ENDROOT
BRANCH  10  12
HETATM   12  C   UNL     1     -44.546  60.296 -52.975  1.00  0.00     0.256 C 
HETATM   13  N   UNL     1     -45.862  60.345 -53.386  1.00  0.00    -0.323 N 
HETATM   14  H   UNL     1     -46.261  59.512 -53.796  1.00  0.00     0.169 HD
HETATM   15  O   UNL     1     -43.878  61.211 -52.509  1.00  0.00    -0.267 OA
BRANCH  13  16
HETATM   16  C   UNL     1     -46.729  61.458 -53.343  1.00  0.00     0.035 A 
HETATM   17  C   UNL     1     -47.003  62.282 -54.434  1.00  0.00     0.032 A 
HETATM   18  C   UNL     1     -47.903  63.347 -54.307  1.00  0.00     0.039 A 
HETATM   19  C   UNL     1     -48.542  63.603 -53.094  1.00  0.00     0.068 A 
HETATM   20  C   UNL     1     -48.251  62.802 -51.993  1.00  0.00     0.039 A 
HETATM   21  C   UNL     1     -47.353  61.734 -52.120  1.00  0.00     0.032 A 
BRANCH  19  22
HETATM   22  O   UNL     1     -49.411  64.659 -53.109  1.00  0.00    -0.356 OA
HETATM   23  C   UNL     1     -50.722  64.395 -53.594  1.00  0.00     0.210 C 
ENDBRANCH  19  22
ENDBRANCH  13  16
ENDBRANCH  10  12
BRANCH   1  24
HETATM   24  C   UNL     1     -44.008  58.915 -55.727  1.00  0.00    -0.029 A 
HETATM   25  C   UNL     1     -45.148  58.141 -55.995  1.00  0.00     0.010 A 
HETATM   26  C   UNL     1     -45.893  58.349 -57.159  1.00  0.00     0.007 A 
HETATM   27  C   UNL     1     -45.505  59.318 -58.091  1.00  0.00    -0.059 A 
HETATM   28  C   UNL     1     -44.361  60.082 -57.836  1.00  0.00     0.007 A 
HETATM   29  C   UNL     1     -43.619  59.880 -56.671  1.00  0.00     0.010 A 
BRANCH  27  30
HETATM   30  C   UNL     1     -46.319  59.554 -59.337  1.00  0.00     0.034 C 
HETATM   31  C   UNL     1     -46.982  58.277 -59.828  1.00  0.00     0.010 C 
ENDBRANCH  27  30
ENDBRANCH   1  24
BRANCH   4  32
HETATM   32  C   UNL     1     -41.833  54.037 -53.287  1.00  0.00     0.261 C 
HETATM   33  N   UNL     1     -40.674  53.373 -53.647  1.00  0.00    -0.323 N 
HETATM   34  H   UNL     1     -40.003  53.917 -54.177  1.00  0.00     0.169 HD
HETATM   35  O   UNL     1     -42.685  53.632 -52.505  1.00  0.00    -0.267 OA
BRANCH  33  36
HETATM   36  C   UNL     1     -40.264  52.083 -53.255  1.00  0.00     0.035 A 
HETATM   37  C   UNL     1     -39.882  51.746 -51.956  1.00  0.00     0.029 A 
HETATM   38  C   UNL     1     -39.485  50.440 -51.648  1.00  0.00     0.002 A 
HETATM   39  C   UNL     1     -39.473  49.458 -52.636  1.00  0.00     0.000 A 
HETATM   40  C   UNL     1     -39.860  49.782 -53.933  1.00  0.00     0.002 A 
HETATM   41  C   UNL     1     -40.255  51.086 -54.241  1.00  0.00     0.029 A 
ENDBRANCH  33  36
ENDBRANCH   4  32
TORSDOF 7
ENDMDL
MODEL 8
REMARK VINA RESULT:      -7.8      3.586      8.020
REMARK  7 active torsions:
REMARK  status: ('A' for Active; 'I' for Inactive)
REMARK    1  A    between atoms: C_2  and  C_3 
REMARK    2  A    between atoms: C_6  and  C_7 
REMARK    3  A    between atoms: C_10  and  C_11 
REMARK       I    between atoms: C_11  and  N_12 
REMARK    4  A    between atoms: N_12  and  C_13 
REMARK    5  A    between atoms: C_25  and  C_26 
REMARK       I    between atoms: C_26  and  N_27 
REMARK    6  A    between atoms: N_27  and  C_28 
REMARK    7  A    between atoms: C_31  and  O_32 
ROOT
HETATM    1  C   UNL     1     -42.021  57.891 -55.537  1.00  0.00     0.185 C 
HETATM    2  N   UNL     1     -43.046  58.552 -56.364  1.00  0.00    -0.239 N 
HETATM    3  C   UNL     1     -44.088  57.893 -56.973  1.00  0.00     0.142 C 
HETATM    4  C   UNL     1     -44.807  58.858 -57.652  1.00  0.00     0.097 C 
HETATM    5  C   UNL     1     -44.020  60.030 -57.503  1.00  0.00     0.160 C 
HETATM    6  N   UNL     1     -42.930  59.842 -56.751  1.00  0.00    -0.181 NA
HETATM    7  N   UNL     1     -44.184  56.545 -56.844  1.00  0.00    -0.343 N 
HETATM    8  C   UNL     1     -43.200  55.779 -56.215  1.00  0.00     0.021 C 
HETATM    9  C   UNL     1     -43.377  54.281 -56.304  1.00  0.00     0.069 C 
HETATM   10  C   UNL     1     -42.153  56.379 -55.598  1.00  0.00     0.061 C 
HETATM   11  H   UNL     1     -44.818  56.010 -57.439  1.00  0.00     0.167 HD
ENDROOT
BRANCH  10  12
HETATM   12  C   UNL     1     -41.127  55.575 -54.877  1.00  0.00     0.256 C 
HETATM   13  N   UNL     1     -41.661  54.499 -54.199  1.00  0.00    -0.323 N 
HETATM   14  H   UNL     1     -42.663  54.375 -54.221  1.00  0.00     0.169 HD
HETATM   15  O   UNL     1     -39.952  55.919 -54.920  1.00  0.00    -0.267 OA
BRANCH  13  16
HETATM   16  C   UNL     1     -40.964  53.550 -53.420  1.00  0.00     0.035 A 
HETATM   17  C   UNL     1     -40.723  53.682 -52.053  1.00  0.00     0.032 A 
HETATM   18  C   UNL     1     -40.049  52.673 -51.353  1.00  0.00     0.039 A 
HETATM   19  C   UNL     1     -39.608  51.521 -52.006  1.00  0.00     0.068 A 
HETATM   20  C   UNL     1     -39.819  51.397 -53.376  1.00  0.00     0.039 A 
HETATM   21  C   UNL     1     -40.497  52.405 -54.076  1.00  0.00     0.032 A 
BRANCH  19  22
HETATM   22  O   UNL     1     -38.983  50.607 -51.205  1.00  0.00    -0.356 OA
HETATM   23  C   UNL     1     -39.805  49.596 -50.634  1.00  0.00     0.210 C 
ENDBRANCH  19  22
ENDBRANCH  13  16
ENDBRANCH  10  12
BRANCH   1  24
HETATM   24  C   UNL     1     -42.033  58.471 -54.126  1.00  0.00    -0.029 A 
HETATM   25  C   UNL     1     -43.223  58.694 -53.417  1.00  0.00     0.010 A 
HETATM   26  C   UNL     1     -43.195  59.223 -52.125  1.00  0.00     0.007 A 
HETATM   27  C   UNL     1     -41.980  59.564 -51.519  1.00  0.00    -0.059 A 
HETATM   28  C   UNL     1     -40.791  59.359 -52.227  1.00  0.00     0.007 A 
HETATM   29  C   UNL     1     -40.817  58.823 -53.516  1.00  0.00     0.010 A 
BRANCH  27  30
HETATM   30  C   UNL     1     -41.949  60.119 -50.119  1.00  0.00     0.034 C 
HETATM   31  C   UNL     1     -43.166  60.984 -49.828  1.00  0.00     0.010 C 
ENDBRANCH  27  30
ENDBRANCH   1  24
BRANCH   4  32
HETATM   32  C   UNL     1     -46.039  58.742 -58.410  1.00  0.00     0.261 C 
HETATM   33  N   UNL     1     -45.851  58.262 -59.694  1.00  0.00    -0.323 N 
HETATM   34  H   UNL     1     -44.916  57.934 -59.908  1.00  0.00     0.169 HD
HETATM   35  O   UNL     1     -47.114  59.016 -57.892  1.00  0.00    -0.267 OA
BRANCH  33  36
HETATM   36  C   UNL     1     -46.828  58.055 -60.688  1.00  0.00     0.035 A 
HETATM   37  C   UNL     1     -47.353  56.805 -61.020  1.00  0.00     0.029 A 
HETATM   38  C   UNL     1     -48.321  56.684 -62.022  1.00  0.00     0.002 A 
HETATM   39  C   UNL     1     -48.778  57.814 -62.697  1.00  0.00     0.000 A 
HETATM   40  C   UNL     1     -48.267  59.066 -62.368  1.00  0.00     0.002 A 
HETATM   41  C   UNL     1     -47.299  59.187 -61.368  1.00  0.00     0.029 A 
ENDBRANCH  33  36
ENDBRANCH   4  32
TORSDOF 7
ENDMDL
MODEL 9
REMARK VINA RESULT:      -7.8      3.351      8.048
REMARK  7 active torsions:
REMARK  status: ('A' for Active; 'I' for Inactive)
REMARK    1  A    between atoms: C_2  and  C_3 
REMARK    2  A    between atoms: C_6  and  C_7 
REMARK    3  A    between atoms: C_10  and  C_11 
REMARK       I    between atoms: C_11  and  N_12 
REMARK    4  A    between atoms: N_12  and  C_13 
REMARK    5  A    between atoms: C_25  and  C_26 
REMARK       I    between atoms: C_26  and  N_27 
REMARK    6  A    between atoms: N_27  and  C_28 
REMARK    7  A    between atoms: C_31  and  O_32 
ROOT
HETATM    1  C   UNL     1     -42.191  58.074 -55.351  1.00  0.00     0.185 C 
HETATM    2  N   UNL     1     -42.226  59.157 -56.350  1.00  0.00    -0.239 N 
HETATM    3  C   UNL     1     -42.629  58.990 -57.654  1.00  0.00     0.142 C 
HETATM    4  C   UNL     1     -42.507  60.229 -58.253  1.00  0.00     0.097 C 
HETATM    5  C   UNL     1     -41.881  61.024 -57.257  1.00  0.00     0.160 C 
HETATM    6  N   UNL     1     -41.677  60.368 -56.110  1.00  0.00    -0.181 NA
HETATM    7  N   UNL     1     -42.993  57.755 -58.082  1.00  0.00    -0.343 N 
HETATM    8  C   UNL     1     -42.865  56.616 -57.283  1.00  0.00     0.021 C 
HETATM    9  C   UNL     1     -43.157  55.299 -57.965  1.00  0.00     0.069 C 
HETATM   10  C   UNL     1     -42.474  56.725 -55.990  1.00  0.00     0.061 C 
HETATM   11  H   UNL     1     -43.101  57.560 -59.078  1.00  0.00     0.167 HD
ENDROOT
BRANCH  10  12
HETATM   12  C   UNL     1     -42.386  55.523 -55.114  1.00  0.00     0.256 C 
HETATM   13  N   UNL     1     -41.093  55.211 -54.751  1.00  0.00    -0.323 N 
HETATM   14  H   UNL     1     -40.346  55.782 -55.122  1.00  0.00     0.169 HD
HETATM   15  O   UNL     1     -43.409  54.921 -54.813  1.00  0.00    -0.267 OA
BRANCH  13  16
HETATM   16  C   UNL     1     -40.670  54.138 -53.937  1.00  0.00     0.035 A 
HETATM   17  C   UNL     1     -40.625  54.180 -52.544  1.00  0.00     0.032 A 
HETATM   18  C   UNL     1     -40.221  53.054 -51.816  1.00  0.00     0.039 A 
HETATM   19  C   UNL     1     -39.859  51.874 -52.465  1.00  0.00     0.068 A 
HETATM   20  C   UNL     1     -39.873  51.834 -53.856  1.00  0.00     0.039 A 
HETATM   21  C   UNL     1     -40.280  52.960 -54.586  1.00  0.00     0.032 A 
BRANCH  19  22
HETATM   22  O   UNL     1     -39.504  50.844 -51.638  1.00  0.00    -0.356 OA
HETATM   23  C   UNL     1     -39.572  49.535 -52.190  1.00  0.00     0.210 C 
ENDBRANCH  19  22
ENDBRANCH  13  16
ENDBRANCH  10  12
BRANCH   1  24
HETATM   24  C   UNL     1     -43.098  58.417 -54.173  1.00  0.00    -0.029 A 
HETATM   25  C   UNL     1     -42.660  58.336 -52.842  1.00  0.00     0.010 A 
HETATM   26  C   UNL     1     -43.518  58.662 -51.789  1.00  0.00     0.007 A 
HETATM   27  C   UNL     1     -44.838  59.054 -52.038  1.00  0.00    -0.059 A 
HETATM   28  C   UNL     1     -45.285  59.122 -53.362  1.00  0.00     0.007 A 
HETATM   29  C   UNL     1     -44.426  58.803 -54.417  1.00  0.00     0.010 A 
BRANCH  27  30
HETATM   30  C   UNL     1     -45.758  59.423 -50.903  1.00  0.00     0.034 C 
HETATM   31  C   UNL     1     -45.178  60.538 -50.047  1.00  0.00     0.010 C 
ENDBRANCH  27  30
ENDBRANCH   1  24
BRANCH   4  32
HETATM   32  C   UNL     1     -42.853  60.654 -59.597  1.00  0.00     0.261 C 
HETATM   33  N   UNL     1     -44.132  61.170 -59.698  1.00  0.00    -0.323 N 
HETATM   34  H   UNL     1     -44.621  61.307 -58.821  1.00  0.00     0.169 HD
HETATM   35  O   UNL     1     -42.031  60.578 -60.502  1.00  0.00    -0.267 OA
BRANCH  33  36
HETATM   36  C   UNL     1     -44.780  61.646 -60.856  1.00  0.00     0.035 A 
HETATM   37  C   UNL     1     -44.920  62.998 -61.173  1.00  0.00     0.029 A 
HETATM   38  C   UNL     1     -45.580  63.389 -62.343  1.00  0.00     0.002 A 
HETATM   39  C   UNL     1     -46.100  62.430 -63.209  1.00  0.00     0.000 A 
HETATM   40  C   UNL     1     -45.959  61.079 -62.906  1.00  0.00     0.002 A 
HETATM   41  C   UNL     1     -45.301  60.689 -61.737  1.00  0.00     0.029 A 
ENDBRANCH  33  36
ENDBRANCH   4  32
TORSDOF 7
ENDMDL
MODEL 10
REMARK VINA RESULT:      -7.6      5.193      9.931
REMARK  7 active torsions:
REMARK  status: ('A' for Active; 'I' for Inactive)
REMARK    1  A    between atoms: C_2  and  C_3 
REMARK    2  A    between atoms: C_6  and  C_7 
REMARK    3  A    between atoms: C_10  and  C_11 
REMARK       I    between atoms: C_11  and  N_12 
REMARK    4  A    between atoms: N_12  and  C_13 
REMARK    5  A    between atoms: C_25  and  C_26 
REMARK       I    between atoms: C_26  and  N_27 
REMARK    6  A    between atoms: N_27  and  C_28 
REMARK    7  A    between atoms: C_31  and  O_32 
ROOT
HETATM    1  C   UNL     1     -43.701  58.368 -56.844  1.00  0.00     0.185 C 
HETATM    2  N   UNL     1     -42.837  57.675 -55.871  1.00  0.00    -0.239 N 
HETATM    3  C   UNL     1     -42.259  56.447 -56.091  1.00  0.00     0.142 C 
HETATM    4  C   UNL     1     -41.544  56.151 -54.947  1.00  0.00     0.097 C 
HETATM    5  C   UNL     1     -41.889  57.199 -54.054  1.00  0.00     0.160 C 
HETATM    6  N   UNL     1     -42.702  58.110 -54.599  1.00  0.00    -0.181 NA
HETATM    7  N   UNL     1     -42.507  55.798 -57.257  1.00  0.00    -0.343 N 
HETATM    8  C   UNL     1     -43.423  56.272 -58.200  1.00  0.00     0.021 C 
HETATM    9  C   UNL     1     -43.707  55.348 -59.362  1.00  0.00     0.069 C 
HETATM   10  C   UNL     1     -44.020  57.477 -58.032  1.00  0.00     0.061 C 
HETATM   11  H   UNL     1     -42.262  54.814 -57.366  1.00  0.00     0.167 HD
ENDROOT
BRANCH  10  12
HETATM   12  C   UNL     1     -44.957  58.015 -59.057  1.00  0.00     0.256 C 
HETATM   13  N   UNL     1     -44.421  59.056 -59.787  1.00  0.00    -0.323 N 
HETATM   14  H   UNL     1     -43.491  59.371 -59.550  1.00  0.00     0.169 HD
HETATM   15  O   UNL     1     -46.079  57.535 -59.159  1.00  0.00    -0.267 OA
BRANCH  13  16
HETATM   16  C   UNL     1     -45.046  59.783 -60.823  1.00  0.00     0.035 A 
HETATM   17  C   UNL     1     -46.423  59.978 -60.924  1.00  0.00     0.032 A 
HETATM   18  C   UNL     1     -46.954  60.741 -61.972  1.00  0.00     0.039 A 
HETATM   19  C   UNL     1     -46.121  61.320 -62.929  1.00  0.00     0.068 A 
HETATM   20  C   UNL     1     -44.747  61.105 -62.850  1.00  0.00     0.039 A 
HETATM   21  C   UNL     1     -44.215  60.344 -61.801  1.00  0.00     0.032 A 
BRANCH  19  22
HETATM   22  O   UNL     1     -46.762  62.057 -63.885  1.00  0.00    -0.356 OA
HETATM   23  C   UNL     1     -48.143  61.776 -64.082  1.00  0.00     0.210 C 
ENDBRANCH  19  22
ENDBRANCH  13  16
ENDBRANCH  10  12
BRANCH   1  24
HETATM   24  C   UNL     1     -43.097  59.719 -57.212  1.00  0.00    -0.029 A 
HETATM   25  C   UNL     1     -43.782  60.927 -57.009  1.00  0.00     0.010 A 
HETATM   26  C   UNL     1     -43.195  62.147 -57.356  1.00  0.00     0.007 A 
HETATM   27  C   UNL     1     -41.921  62.187 -57.933  1.00  0.00    -0.059 A 
HETATM   28  C   UNL     1     -41.239  60.986 -58.152  1.00  0.00     0.007 A 
HETATM   29  C   UNL     1     -41.822  59.766 -57.800  1.00  0.00     0.010 A 
BRANCH  27  30
HETATM   30  C   UNL     1     -41.281  63.504 -58.291  1.00  0.00     0.034 C 
HETATM   31  C   UNL     1     -39.966  63.310 -59.029  1.00  0.00     0.010 C 
ENDBRANCH  27  30
ENDBRANCH   1  24
BRANCH   4  32
HETATM   32  C   UNL     1     -40.688  55.018 -54.650  1.00  0.00     0.261 C 
HETATM   33  N   UNL     1     -41.233  54.143 -53.727  1.00  0.00    -0.323 N 
HETATM   34  H   UNL     1     -42.197  54.322 -53.469  1.00  0.00     0.169 HD
HETATM   35  O   UNL     1     -39.616  54.882 -55.227  1.00  0.00    -0.267 OA
BRANCH  33  36
HETATM   36  C   UNL     1     -40.655  52.967 -53.210  1.00  0.00     0.035 A 
HETATM   37  C   UNL     1     -40.326  51.852 -53.983  1.00  0.00     0.029 A 
HETATM   38  C   UNL     1     -39.756  50.720 -53.391  1.00  0.00     0.002 A 
HETATM   39  C   UNL     1     -39.504  50.695 -52.021  1.00  0.00     0.000 A 
HETATM   40  C   UNL     1     -39.822  51.805 -51.242  1.00  0.00     0.002 A 
HETATM   41  C   UNL     1     -40.392  52.934 -51.833  1.00  0.00     0.029 A 
ENDBRANCH  33  36
ENDBRANCH   4  32
TORSDOF 7
ENDMDL
