MODEL 1
REMARK VINA RESULT:      -7.7      0.000      0.000
REMARK  8 active torsions:
REMARK  status: ('A' for Active; 'I' for Inactive)
REMARK    1  A    between atoms: O_2  and  C_3 
REMARK    2  A    between atoms: C_4  and  O_5 
REMARK    3  A    between atoms: N_12  and  N_13 
REMARK    4  A    between atoms: N_13  and  C_14 
REMARK    5  A    between atoms: C_14  and  N_15 
REMARK    6  A    between atoms: N_15  and  C_16 
REMARK    7  A    between atoms: C_16  and  C_17 
REMARK    8  A    between atoms: C_17  and  C_18 
ROOT
HETATM    1  C   UNL     1     -40.284  51.997 -53.672  1.00  0.00     0.102 A 
HETATM    2  C   UNL     1     -40.060  52.246 -52.300  1.00  0.00     0.103 A 
HETATM    3  C   UNL     1     -40.819  53.216 -51.635  1.00  0.00     0.070 A 
HETATM    4  C   UNL     1     -41.792  53.934 -52.332  1.00  0.00     0.053 A 
HETATM    5  C   UNL     1     -42.027  53.674 -53.678  1.00  0.00     0.063 A 
HETATM    6  C   UNL     1     -43.078  54.439 -54.378  1.00  0.00     0.281 C 
HETATM    7  O   UNL     1     -43.428  54.114 -55.512  1.00  0.00    -0.265 OA
HETATM    8  N   UNL     1     -43.643  55.494 -53.653  1.00  0.00    -0.190 N 
HETATM    9  C   UNL     1     -43.448  55.728 -52.290  1.00  0.00     0.201 C 
HETATM   10  S   UNL     1     -44.228  56.879 -51.350  1.00  0.00    -0.039 SA
HETATM   11  N   UNL     1     -42.529  54.919 -51.668  1.00  0.00    -0.331 N 
HETATM   12  C   UNL     1     -41.280  52.704 -54.353  1.00  0.00     0.059 A 
HETATM   13  H   UNL     1     -42.363  55.103 -50.685  1.00  0.00     0.168 HD
ENDROOT
BRANCH   8  14
HETATM   14  N   UNL     1     -44.540  56.331 -54.371  1.00  0.00    -0.264 N 
HETATM   15  H   UNL     1     -45.225  55.810 -54.908  1.00  0.00     0.190 HD
BRANCH  14  16
HETATM   16  C   UNL     1     -44.082  57.491 -54.954  1.00  0.00     0.187 C 
HETATM   17  S   UNL     1     -44.790  59.005 -54.881  1.00  0.00    -0.040 SA
BRANCH  16  18
HETATM   18  N   UNL     1     -42.944  57.360 -55.707  1.00  0.00    -0.366 N 
HETATM   19  H   UNL     1     -42.121  57.575 -55.152  1.00  0.00     0.161 HD
BRANCH  18  20
HETATM   20  C   UNL     1     -42.842  57.711 -57.121  1.00  0.00     0.126 C 
BRANCH  20  21
HETATM   21  C   UNL     1     -42.680  56.471 -58.000  1.00  0.00     0.058 C 
BRANCH  21  22
HETATM   22  C   UNL     1     -43.892  56.234 -58.863  1.00  0.00    -0.057 A 
HETATM   23  C   UNL     1     -44.936  57.171 -58.881  1.00  0.00     0.007 A 
HETATM   24  C   UNL     1     -46.075  56.950 -59.654  1.00  0.00     0.001 A 
HETATM   25  C   UNL     1     -46.187  55.787 -60.413  1.00  0.00     0.000 A 
HETATM   26  C   UNL     1     -45.159  54.846 -60.399  1.00  0.00     0.001 A 
HETATM   27  C   UNL     1     -44.016  55.066 -59.626  1.00  0.00     0.007 A 
ENDBRANCH  21  22
ENDBRANCH  20  21
ENDBRANCH  18  20
ENDBRANCH  16  18
ENDBRANCH  14  16
ENDBRANCH   8  14
BRANCH   1  28
HETATM   28  O   UNL     1     -39.494  51.035 -54.251  1.00  0.00    -0.353 OA
HETATM   29  C   UNL     1     -40.110  49.795 -54.573  1.00  0.00     0.210 C 
ENDBRANCH   1  28
BRANCH   2  30
HETATM   30  O   UNL     1     -39.073  51.495 -51.708  1.00  0.00    -0.353 OA
HETATM   31  C   UNL     1     -39.463  50.352 -50.962  1.00  0.00     0.210 C 
ENDBRANCH   2  30
TORSDOF 8
ENDMDL
MODEL 2
REMARK VINA RESULT:      -7.6      2.318      7.647
REMARK  8 active torsions:
REMARK  status: ('A' for Active; 'I' for Inactive)
REMARK    1  A    between atoms: O_2  and  C_3 
REMARK    2  A    between atoms: C_4  and  O_5 
REMARK    3  A    between atoms: N_12  and  N_13 
REMARK    4  A    between atoms: N_13  and  C_14 
REMARK    5  A    between atoms: C_14  and  N_15 
REMARK    6  A    between atoms: N_15  and  C_16 
REMARK    7  A    between atoms: C_16  and  C_17 
REMARK    8  A    between atoms: C_17  and  C_18 
ROOT
HETATM    1  C   UNL     1     -43.032  56.568 -59.235  1.00  0.00     0.102 A 
HETATM    2  C   UNL     1     -42.481  57.849 -59.457  1.00  0.00     0.103 A 
HETATM    3  C   UNL     1     -42.137  58.658 -58.367  1.00  0.00     0.070 A 
HETATM    4  C   UNL     1     -42.343  58.194 -57.067  1.00  0.00     0.053 A 
HETATM    5  C   UNL     1     -42.865  56.924 -56.849  1.00  0.00     0.063 A 
HETATM    6  C   UNL     1     -43.051  56.459 -55.459  1.00  0.00     0.281 C 
HETATM    7  O   UNL     1     -43.344  55.286 -55.234  1.00  0.00    -0.265 OA
HETATM    8  N   UNL     1     -42.833  57.421 -54.466  1.00  0.00    -0.190 N 
HETATM    9  C   UNL     1     -42.262  58.677 -54.675  1.00  0.00     0.201 C 
HETATM   10  S   UNL     1     -41.837  59.793 -53.494  1.00  0.00    -0.039 SA
HETATM   11  N   UNL     1     -42.020  59.016 -55.983  1.00  0.00    -0.331 N 
HETATM   12  C   UNL     1     -43.209  56.104 -57.928  1.00  0.00     0.059 A 
HETATM   13  H   UNL     1     -41.631  59.940 -56.143  1.00  0.00     0.168 HD
ENDROOT
BRANCH   8  14
HETATM   14  N   UNL     1     -43.161  57.027 -53.140  1.00  0.00    -0.264 N 
HETATM   15  H   UNL     1     -43.800  57.668 -52.682  1.00  0.00     0.190 HD
BRANCH  14  16
HETATM   16  C   UNL     1     -42.199  56.465 -52.331  1.00  0.00     0.187 C 
HETATM   17  S   UNL     1     -41.961  56.748 -50.699  1.00  0.00    -0.040 SA
BRANCH  16  18
HETATM   18  N   UNL     1     -41.324  55.617 -52.961  1.00  0.00    -0.366 N 
HETATM   19  H   UNL     1     -41.155  55.922 -53.915  1.00  0.00     0.161 HD
BRANCH  18  20
HETATM   20  C   UNL     1     -41.283  54.172 -52.759  1.00  0.00     0.126 C 
BRANCH  20  21
HETATM   21  C   UNL     1     -40.326  53.492 -53.739  1.00  0.00     0.058 C 
BRANCH  21  22
HETATM   22  C   UNL     1     -40.073  52.054 -53.368  1.00  0.00    -0.057 A 
HETATM   23  C   UNL     1     -39.728  51.719 -52.050  1.00  0.00     0.007 A 
HETATM   24  C   UNL     1     -39.465  50.394 -51.701  1.00  0.00     0.001 A 
HETATM   25  C   UNL     1     -39.538  49.392 -52.665  1.00  0.00     0.000 A 
HETATM   26  C   UNL     1     -39.875  49.714 -53.978  1.00  0.00     0.001 A 
HETATM   27  C   UNL     1     -40.140  51.039 -54.331  1.00  0.00     0.007 A 
ENDBRANCH  21  22
ENDBRANCH  20  21
ENDBRANCH  18  20
ENDBRANCH  16  18
ENDBRANCH  14  16
ENDBRANCH   8  14
BRANCH   1  28
HETATM   28  O   UNL     1     -43.348  55.842 -60.357  1.00  0.00    -0.353 OA
HETATM   29  C   UNL     1     -44.727  55.688 -60.665  1.00  0.00     0.210 C 
ENDBRANCH   1  28
BRANCH   2  30
HETATM   30  O   UNL     1     -42.329  58.217 -60.772  1.00  0.00    -0.353 OA
HETATM   31  C   UNL     1     -41.967  59.562 -61.050  1.00  0.00     0.210 C 
ENDBRANCH   2  30
TORSDOF 8
ENDMDL
MODEL 3
REMARK VINA RESULT:      -7.4      1.715      2.482
REMARK  8 active torsions:
REMARK  status: ('A' for Active; 'I' for Inactive)
REMARK    1  A    between atoms: O_2  and  C_3 
REMARK    2  A    between atoms: C_4  and  O_5 
REMARK    3  A    between atoms: N_12  and  N_13 
REMARK    4  A    between atoms: N_13  and  C_14 
REMARK    5  A    between atoms: C_14  and  N_15 
REMARK    6  A    between atoms: N_15  and  C_16 
REMARK    7  A    between atoms: C_16  and  C_17 
REMARK    8  A    between atoms: C_17  and  C_18 
ROOT
HETATM    1  C   UNL     1     -40.286  53.374 -51.652  1.00  0.00     0.102 A 
HETATM    2  C   UNL     1     -40.483  54.327 -50.629  1.00  0.00     0.103 A 
HETATM    3  C   UNL     1     -41.350  55.406 -50.840  1.00  0.00     0.070 A 
HETATM    4  C   UNL     1     -42.014  55.534 -52.061  1.00  0.00     0.053 A 
HETATM    5  C   UNL     1     -41.837  54.584 -53.060  1.00  0.00     0.063 A 
HETATM    6  C   UNL     1     -42.570  54.741 -54.332  1.00  0.00     0.281 C 
HETATM    7  O   UNL     1     -42.571  53.833 -55.162  1.00  0.00    -0.265 OA
HETATM    8  N   UNL     1     -43.267  55.946 -54.483  1.00  0.00    -0.190 N 
HETATM    9  C   UNL     1     -43.490  56.878 -53.468  1.00  0.00     0.201 C 
HETATM   10  S   UNL     1     -44.451  58.251 -53.563  1.00  0.00    -0.039 SA
HETATM   11  N   UNL     1     -42.860  56.627 -52.274  1.00  0.00    -0.331 N 
HETATM   12  C   UNL     1     -40.978  53.498 -52.861  1.00  0.00     0.059 A 
HETATM   13  H   UNL     1     -42.995  57.316 -51.542  1.00  0.00     0.168 HD
ENDROOT
BRANCH   8  14
HETATM   14  N   UNL     1     -43.844  56.172 -55.762  1.00  0.00    -0.264 N 
HETATM   15  H   UNL     1     -44.523  55.465 -56.022  1.00  0.00     0.190 HD
BRANCH  14  16
HETATM   16  C   UNL     1     -43.071  56.663 -56.789  1.00  0.00     0.187 C 
HETATM   17  S   UNL     1     -42.572  58.245 -57.010  1.00  0.00    -0.040 SA
BRANCH  16  18
HETATM   18  N   UNL     1     -42.718  55.749 -57.748  1.00  0.00    -0.366 N 
HETATM   19  H   UNL     1     -41.904  55.218 -57.452  1.00  0.00     0.161 HD
BRANCH  18  20
HETATM   20  C   UNL     1     -42.816  55.978 -59.186  1.00  0.00     0.126 C 
BRANCH  20  21
HETATM   21  C   UNL     1     -44.019  55.256 -59.793  1.00  0.00     0.058 C 
BRANCH  21  22
HETATM   22  C   UNL     1     -45.142  56.209 -60.112  1.00  0.00    -0.057 A 
HETATM   23  C   UNL     1     -46.350  55.722 -60.632  1.00  0.00     0.007 A 
HETATM   24  C   UNL     1     -47.387  56.598 -60.957  1.00  0.00     0.001 A 
HETATM   25  C   UNL     1     -47.225  57.968 -60.771  1.00  0.00     0.000 A 
HETATM   26  C   UNL     1     -46.027  58.464 -60.259  1.00  0.00     0.001 A 
HETATM   27  C   UNL     1     -44.988  57.589 -59.932  1.00  0.00     0.007 A 
ENDBRANCH  21  22
ENDBRANCH  20  21
ENDBRANCH  18  20
ENDBRANCH  16  18
ENDBRANCH  14  16
ENDBRANCH   8  14
BRANCH   1  28
HETATM   28  O   UNL     1     -39.416  52.351 -51.367  1.00  0.00    -0.353 OA
HETATM   29  C   UNL     1     -39.519  51.172 -52.155  1.00  0.00     0.210 C 
ENDBRANCH   1  28
BRANCH   2  30
HETATM   30  O   UNL     1     -39.777  54.118 -49.470  1.00  0.00    -0.353 OA
HETATM   31  C   UNL     1     -40.505  53.995 -48.257  1.00  0.00     0.210 C 
ENDBRANCH   2  30
TORSDOF 8
ENDMDL
MODEL 4
REMARK VINA RESULT:      -7.4      2.985      5.265
REMARK  8 active torsions:
REMARK  status: ('A' for Active; 'I' for Inactive)
REMARK    1  A    between atoms: O_2  and  C_3 
REMARK    2  A    between atoms: C_4  and  O_5 
REMARK    3  A    between atoms: N_12  and  N_13 
REMARK    4  A    between atoms: N_13  and  C_14 
REMARK    5  A    between atoms: C_14  and  N_15 
REMARK    6  A    between atoms: N_15  and  C_16 
REMARK    7  A    between atoms: C_16  and  C_17 
REMARK    8  A    between atoms: C_17  and  C_18 
ROOT
HETATM    1  C   UNL     1     -40.496  53.889 -51.193  1.00  0.00     0.102 A 
HETATM    2  C   UNL     1     -40.571  54.590 -49.969  1.00  0.00     0.103 A 
HETATM    3  C   UNL     1     -41.536  55.590 -49.798  1.00  0.00     0.070 A 
HETATM    4  C   UNL     1     -42.418  55.888 -50.837  1.00  0.00     0.053 A 
HETATM    5  C   UNL     1     -42.358  55.183 -52.033  1.00  0.00     0.063 A 
HETATM    6  C   UNL     1     -43.321  55.513 -53.104  1.00  0.00     0.281 C 
HETATM    7  O   UNL     1     -43.408  54.795 -54.100  1.00  0.00    -0.265 OA
HETATM    8  N   UNL     1     -44.117  56.641 -52.875  1.00  0.00    -0.190 N 
HETATM    9  C   UNL     1     -44.217  57.320 -51.660  1.00  0.00     0.201 C 
HETATM   10  S   UNL     1     -45.274  58.573 -51.297  1.00  0.00    -0.039 SA
HETATM   11  N   UNL     1     -43.364  56.905 -50.668  1.00  0.00    -0.331 N 
HETATM   12  C   UNL     1     -41.403  54.179 -52.217  1.00  0.00     0.059 A 
HETATM   13  H   UNL     1     -43.412  57.413 -49.792  1.00  0.00     0.168 HD
ENDROOT
BRANCH   8  14
HETATM   14  N   UNL     1     -44.932  57.056 -53.963  1.00  0.00    -0.264 N 
HETATM   15  H   UNL     1     -45.579  56.338 -54.271  1.00  0.00     0.190 HD
BRANCH  14  16
HETATM   16  C   UNL     1     -44.402  57.848 -54.957  1.00  0.00     0.187 C 
HETATM   17  S   UNL     1     -45.243  58.819 -56.029  1.00  0.00    -0.040 SA
BRANCH  16  18
HETATM   18  N   UNL     1     -43.040  57.785 -55.095  1.00  0.00    -0.366 N 
HETATM   19  H   UNL     1     -42.673  56.952 -54.644  1.00  0.00     0.161 HD
BRANCH  18  20
HETATM   20  C   UNL     1     -42.151  58.944 -55.066  1.00  0.00     0.126 C 
BRANCH  20  21
HETATM   21  C   UNL     1     -42.571  59.951 -53.996  1.00  0.00     0.058 C 
BRANCH  21  22
HETATM   22  C   UNL     1     -41.807  59.754 -52.712  1.00  0.00    -0.057 A 
HETATM   23  C   UNL     1     -40.699  58.895 -52.678  1.00  0.00     0.007 A 
HETATM   24  C   UNL     1     -40.001  58.684 -51.489  1.00  0.00     0.001 A 
HETATM   25  C   UNL     1     -40.405  59.324 -50.321  1.00  0.00     0.000 A 
HETATM   26  C   UNL     1     -41.508  60.177 -50.341  1.00  0.00     0.001 A 
HETATM   27  C   UNL     1     -42.208  60.390 -51.531  1.00  0.00     0.007 A 
ENDBRANCH  21  22
ENDBRANCH  20  21
ENDBRANCH  18  20
ENDBRANCH  16  18
ENDBRANCH  14  16
ENDBRANCH   8  14
BRANCH   1  28
HETATM   28  O   UNL     1     -39.518  52.929 -51.282  1.00  0.00    -0.353 OA
HETATM   29  C   UNL     1     -39.708  51.895 -52.238  1.00  0.00     0.210 C 
ENDBRANCH   1  28
BRANCH   2  30
HETATM   30  O   UNL     1     -39.652  54.230 -49.014  1.00  0.00    -0.353 OA
HETATM   31  C   UNL     1     -40.132  53.884 -47.724  1.00  0.00     0.210 C 
ENDBRANCH   2  30
TORSDOF 8
ENDMDL
MODEL 5
REMARK VINA RESULT:      -7.3      4.691      8.885
REMARK  8 active torsions:
REMARK  status: ('A' for Active; 'I' for Inactive)
REMARK    1  A    between atoms: O_2  and  C_3 
REMARK    2  A    between atoms: C_4  and  O_5 
REMARK    3  A    between atoms: N_12  and  N_13 
REMARK    4  A    between atoms: N_13  and  C_14 
REMARK    5  A    between atoms: C_14  and  N_15 
REMARK    6  A    between atoms: N_15  and  C_16 
REMARK    7  A    between atoms: C_16  and  C_17 
REMARK    8  A    between atoms: C_17  and  C_18 
ROOT
HETATM    1  C   UNL     1     -45.956  60.996 -49.669  1.00  0.00     0.102 A 
HETATM    2  C   UNL     1     -46.288  61.867 -50.729  1.00  0.00     0.103 A 
HETATM    3  C   UNL     1     -46.166  61.429 -52.054  1.00  0.00     0.070 A 
HETATM    4  C   UNL     1     -45.715  60.136 -52.319  1.00  0.00     0.053 A 
HETATM    5  C   UNL     1     -45.408  59.271 -51.274  1.00  0.00     0.063 A 
HETATM    6  C   UNL     1     -44.952  57.903 -51.592  1.00  0.00     0.281 C 
HETATM    7  O   UNL     1     -44.842  57.065 -50.698  1.00  0.00    -0.265 OA
HETATM    8  N   UNL     1     -44.708  57.646 -52.946  1.00  0.00    -0.190 N 
HETATM    9  C   UNL     1     -45.061  58.490 -54.000  1.00  0.00     0.201 C 
HETATM   10  S   UNL     1     -44.932  58.152 -55.640  1.00  0.00    -0.039 SA
HETATM   11  N   UNL     1     -45.572  59.714 -53.644  1.00  0.00    -0.331 N 
HETATM   12  C   UNL     1     -45.530  59.692 -49.947  1.00  0.00     0.059 A 
HETATM   13  H   UNL     1     -45.803  60.342 -54.406  1.00  0.00     0.168 HD
ENDROOT
BRANCH   8  14
HETATM   14  N   UNL     1     -44.121  56.386 -53.242  1.00  0.00    -0.264 N 
HETATM   15  H   UNL     1     -44.643  55.605 -52.859  1.00  0.00     0.190 HD
BRANCH  14  16
HETATM   16  C   UNL     1     -42.752  56.247 -53.240  1.00  0.00     0.187 C 
HETATM   17  S   UNL     1     -41.613  57.465 -53.374  1.00  0.00    -0.040 SA
BRANCH  16  18
HETATM   18  N   UNL     1     -42.292  54.957 -53.163  1.00  0.00    -0.366 N 
HETATM   19  H   UNL     1     -42.882  54.404 -52.548  1.00  0.00     0.161 HD
BRANCH  18  20
HETATM   20  C   UNL     1     -40.882  54.579 -53.169  1.00  0.00     0.126 C 
BRANCH  20  21
HETATM   21  C   UNL     1     -40.591  53.499 -54.211  1.00  0.00     0.058 C 
BRANCH  21  22
HETATM   22  C   UNL     1     -40.233  52.184 -53.568  1.00  0.00    -0.057 A 
HETATM   23  C   UNL     1     -39.932  52.130 -52.199  1.00  0.00     0.007 A 
HETATM   24  C   UNL     1     -39.573  50.923 -51.599  1.00  0.00     0.001 A 
HETATM   25  C   UNL     1     -39.506  49.759 -52.361  1.00  0.00     0.000 A 
HETATM   26  C   UNL     1     -39.798  49.801 -53.723  1.00  0.00     0.001 A 
HETATM   27  C   UNL     1     -40.159  51.009 -54.326  1.00  0.00     0.007 A 
ENDBRANCH  21  22
ENDBRANCH  20  21
ENDBRANCH  18  20
ENDBRANCH  16  18
ENDBRANCH  14  16
ENDBRANCH   8  14
BRANCH   1  28
HETATM   28  O   UNL     1     -46.097  61.503 -48.401  1.00  0.00    -0.353 OA
HETATM   29  C   UNL     1     -44.979  61.395 -47.529  1.00  0.00     0.210 C 
ENDBRANCH   1  28
BRANCH   2  30
HETATM   30  O   UNL     1     -46.711  63.121 -50.365  1.00  0.00    -0.353 OA
HETATM   31  C   UNL     1     -48.066  63.466 -50.613  1.00  0.00     0.210 C 
ENDBRANCH   2  30
TORSDOF 8
ENDMDL
MODEL 6
REMARK VINA RESULT:      -7.2      2.301      7.623
REMARK  8 active torsions:
REMARK  status: ('A' for Active; 'I' for Inactive)
REMARK    1  A    between atoms: O_2  and  C_3 
REMARK    2  A    between atoms: C_4  and  O_5 
REMARK    3  A    between atoms: N_12  and  N_13 
REMARK    4  A    between atoms: N_13  and  C_14 
REMARK    5  A    between atoms: C_14  and  N_15 
REMARK    6  A    between atoms: N_15  and  C_16 
REMARK    7  A    between atoms: C_16  and  C_17 
REMARK    8  A    between atoms: C_17  and  C_18 
ROOT
HETATM    1  C   UNL     1     -44.083  57.242 -57.895  1.00  0.00     0.102 A 
HETATM    2  C   UNL     1     -45.020  58.273 -57.665  1.00  0.00     0.103 A 
HETATM    3  C   UNL     1     -45.318  58.664 -56.353  1.00  0.00     0.070 A 
HETATM    4  C   UNL     1     -44.688  58.030 -55.281  1.00  0.00     0.053 A 
HETATM    5  C   UNL     1     -43.749  57.030 -55.509  1.00  0.00     0.063 A 
HETATM    6  C   UNL     1     -43.088  56.396 -54.351  1.00  0.00     0.281 C 
HETATM    7  O   UNL     1     -42.135  55.637 -54.522  1.00  0.00    -0.265 OA
HETATM    8  N   UNL     1     -43.596  56.751 -53.096  1.00  0.00    -0.190 N 
HETATM    9  C   UNL     1     -44.499  57.788 -52.859  1.00  0.00     0.201 C 
HETATM   10  S   UNL     1     -45.008  58.350 -51.360  1.00  0.00    -0.039 SA
HETATM   11  N   UNL     1     -45.008  58.408 -53.973  1.00  0.00    -0.331 N 
HETATM   12  C   UNL     1     -43.439  56.634 -56.813  1.00  0.00     0.059 A 
HETATM   13  H   UNL     1     -45.686  59.143 -53.808  1.00  0.00     0.168 HD
ENDROOT
BRANCH   8  14
HETATM   14  N   UNL     1     -43.073  56.029 -51.988  1.00  0.00    -0.264 N 
HETATM   15  H   UNL     1     -43.760  55.867 -51.260  1.00  0.00     0.190 HD
BRANCH  14  16
HETATM   16  C   UNL     1     -41.789  56.270 -51.554  1.00  0.00     0.187 C 
HETATM   17  S   UNL     1     -41.187  57.701 -50.928  1.00  0.00    -0.040 SA
BRANCH  16  18
HETATM   18  N   UNL     1     -40.914  55.225 -51.699  1.00  0.00    -0.366 N 
HETATM   19  H   UNL     1     -40.346  55.348 -52.532  1.00  0.00     0.161 HD
BRANCH  18  20
HETATM   20  C   UNL     1     -41.217  53.838 -51.359  1.00  0.00     0.126 C 
BRANCH  20  21
HETATM   21  C   UNL     1     -39.944  53.018 -51.144  1.00  0.00     0.058 C 
BRANCH  21  22
HETATM   22  C   UNL     1     -39.845  51.873 -52.117  1.00  0.00    -0.057 A 
HETATM   23  C   UNL     1     -40.051  52.095 -53.487  1.00  0.00     0.007 A 
HETATM   24  C   UNL     1     -39.988  51.038 -54.395  1.00  0.00     0.001 A 
HETATM   25  C   UNL     1     -39.725  49.747 -53.943  1.00  0.00     0.000 A 
HETATM   26  C   UNL     1     -39.524  49.513 -52.584  1.00  0.00     0.001 A 
HETATM   27  C   UNL     1     -39.585  50.571 -51.673  1.00  0.00     0.007 A 
ENDBRANCH  21  22
ENDBRANCH  20  21
ENDBRANCH  18  20
ENDBRANCH  16  18
ENDBRANCH  14  16
ENDBRANCH   8  14
BRANCH   1  28
HETATM   28  O   UNL     1     -43.853  56.915 -59.209  1.00  0.00    -0.353 OA
HETATM   29  C   UNL     1     -42.706  56.124 -59.490  1.00  0.00     0.210 C 
ENDBRANCH   1  28
BRANCH   2  30
HETATM   30  O   UNL     1     -45.592  58.825 -58.785  1.00  0.00    -0.353 OA
HETATM   31  C   UNL     1     -46.920  58.442 -59.112  1.00  0.00     0.210 C 
ENDBRANCH   2  30
TORSDOF 8
ENDMDL
MODEL 7
REMARK VINA RESULT:      -7.2      2.863      5.484
REMARK  8 active torsions:
REMARK  status: ('A' for Active; 'I' for Inactive)
REMARK    1  A    between atoms: O_2  and  C_3 
REMARK    2  A    between atoms: C_4  and  O_5 
REMARK    3  A    between atoms: N_12  and  N_13 
REMARK    4  A    between atoms: N_13  and  C_14 
REMARK    5  A    between atoms: C_14  and  N_15 
REMARK    6  A    between atoms: N_15  and  C_16 
REMARK    7  A    between atoms: C_16  and  C_17 
REMARK    8  A    between atoms: C_17  and  C_18 
ROOT
HETATM    1  C   UNL     1     -40.791  53.117 -52.430  1.00  0.00     0.102 A 
HETATM    2  C   UNL     1     -40.180  52.678 -53.624  1.00  0.00     0.103 A 
HETATM    3  C   UNL     1     -40.538  53.263 -54.845  1.00  0.00     0.070 A 
HETATM    4  C   UNL     1     -41.499  54.275 -54.875  1.00  0.00     0.053 A 
HETATM    5  C   UNL     1     -42.084  54.722 -53.695  1.00  0.00     0.063 A 
HETATM    6  C   UNL     1     -43.083  55.808 -53.762  1.00  0.00     0.281 C 
HETATM    7  O   UNL     1     -43.487  56.341 -52.730  1.00  0.00    -0.265 OA
HETATM    8  N   UNL     1     -43.479  56.187 -55.050  1.00  0.00    -0.190 N 
HETATM    9  C   UNL     1     -42.860  55.780 -56.234  1.00  0.00     0.201 C 
HETATM   10  S   UNL     1     -43.198  56.332 -57.782  1.00  0.00    -0.039 SA
HETATM   11  N   UNL     1     -41.870  54.838 -56.100  1.00  0.00    -0.331 N 
HETATM   12  C   UNL     1     -41.733  54.151 -52.469  1.00  0.00     0.059 A 
HETATM   13  H   UNL     1     -41.436  54.517 -56.959  1.00  0.00     0.168 HD
ENDROOT
BRANCH   8  14
HETATM   14  N   UNL     1     -44.550  57.119 -55.121  1.00  0.00    -0.264 N 
HETATM   15  H   UNL     1     -45.150  56.973 -55.926  1.00  0.00     0.190 HD
BRANCH  14  16
HETATM   16  C   UNL     1     -44.346  58.431 -54.759  1.00  0.00     0.187 C 
HETATM   17  S   UNL     1     -45.238  59.325 -53.662  1.00  0.00    -0.040 SA
BRANCH  16  18
HETATM   18  N   UNL     1     -43.322  59.068 -55.412  1.00  0.00    -0.366 N 
HETATM   19  H   UNL     1     -43.053  58.552 -56.244  1.00  0.00     0.161 HD
BRANCH  18  20
HETATM   20  C   UNL     1     -42.234  59.781 -54.749  1.00  0.00     0.126 C 
BRANCH  20  21
HETATM   21  C   UNL     1     -41.210  58.816 -54.150  1.00  0.00     0.058 C 
BRANCH  21  22
HETATM   22  C   UNL     1     -40.943  59.114 -52.697  1.00  0.00    -0.057 A 
HETATM   23  C   UNL     1     -41.975  59.595 -51.878  1.00  0.00     0.007 A 
HETATM   24  C   UNL     1     -41.733  59.899 -50.538  1.00  0.00     0.001 A 
HETATM   25  C   UNL     1     -40.457  59.732 -50.005  1.00  0.00     0.000 A 
HETATM   26  C   UNL     1     -39.423  59.259 -50.811  1.00  0.00     0.001 A 
HETATM   27  C   UNL     1     -39.663  58.953 -52.153  1.00  0.00     0.007 A 
ENDBRANCH  21  22
ENDBRANCH  20  21
ENDBRANCH  18  20
ENDBRANCH  16  18
ENDBRANCH  14  16
ENDBRANCH   8  14
BRANCH   1  28
HETATM   28  O   UNL     1     -40.390  52.488 -51.277  1.00  0.00    -0.353 OA
HETATM   29  C   UNL     1     -40.529  53.210 -50.060  1.00  0.00     0.210 C 
ENDBRANCH   1  28
BRANCH   2  30
HETATM   30  O   UNL     1     -39.257  51.670 -53.491  1.00  0.00    -0.353 OA
HETATM   31  C   UNL     1     -39.570  50.402 -54.046  1.00  0.00     0.210 C 
ENDBRANCH   2  30
TORSDOF 8
ENDMDL
MODEL 8
REMARK VINA RESULT:      -7.2      1.645      2.330
REMARK  8 active torsions:
REMARK  status: ('A' for Active; 'I' for Inactive)
REMARK    1  A    between atoms: O_2  and  C_3 
REMARK    2  A    between atoms: C_4  and  O_5 
REMARK    3  A    between atoms: N_12  and  N_13 
REMARK    4  A    between atoms: N_13  and  C_14 
REMARK    5  A    between atoms: C_14  and  N_15 
REMARK    6  A    between atoms: N_15  and  C_16 
REMARK    7  A    between atoms: C_16  and  C_17 
REMARK    8  A    between atoms: C_17  and  C_18 
ROOT
HETATM    1  C   UNL     1     -40.772  53.562 -51.182  1.00  0.00     0.102 A 
HETATM    2  C   UNL     1     -40.718  54.298 -49.978  1.00  0.00     0.103 A 
HETATM    3  C   UNL     1     -41.562  55.401 -49.798  1.00  0.00     0.070 A 
HETATM    4  C   UNL     1     -42.451  55.767 -50.809  1.00  0.00     0.053 A 
HETATM    5  C   UNL     1     -42.520  55.029 -51.985  1.00  0.00     0.063 A 
HETATM    6  C   UNL     1     -43.486  55.434 -53.026  1.00  0.00     0.281 C 
HETATM    7  O   UNL     1     -43.693  54.705 -53.995  1.00  0.00    -0.265 OA
HETATM    8  N   UNL     1     -44.146  56.647 -52.799  1.00  0.00    -0.190 N 
HETATM    9  C   UNL     1     -44.119  57.365 -51.602  1.00  0.00     0.201 C 
HETATM   10  S   UNL     1     -45.019  58.734 -51.234  1.00  0.00    -0.039 SA
HETATM   11  N   UNL     1     -43.274  56.884 -50.632  1.00  0.00    -0.331 N 
HETATM   12  C   UNL     1     -41.686  53.923 -52.177  1.00  0.00     0.059 A 
HETATM   13  H   UNL     1     -43.229  57.418 -49.771  1.00  0.00     0.168 HD
ENDROOT
BRANCH   8  14
HETATM   14  N   UNL     1     -44.958  57.121 -53.865  1.00  0.00    -0.264 N 
HETATM   15  H   UNL     1     -45.714  56.487 -54.100  1.00  0.00     0.190 HD
BRANCH  14  16
HETATM   16  C   UNL     1     -44.383  57.783 -54.926  1.00  0.00     0.187 C 
HETATM   17  S   UNL     1     -43.952  59.398 -54.994  1.00  0.00    -0.040 SA
BRANCH  16  18
HETATM   18  N   UNL     1     -44.193  57.029 -56.055  1.00  0.00    -0.366 N 
HETATM   19  H   UNL     1     -44.651  56.127 -55.965  1.00  0.00     0.161 HD
BRANCH  18  20
HETATM   20  C   UNL     1     -42.965  57.019 -56.846  1.00  0.00     0.126 C 
BRANCH  20  21
HETATM   21  C   UNL     1     -42.865  55.767 -57.717  1.00  0.00     0.058 C 
BRANCH  21  22
HETATM   22  C   UNL     1     -43.868  55.785 -58.842  1.00  0.00    -0.057 A 
HETATM   23  C   UNL     1     -44.211  54.593 -59.497  1.00  0.00     0.007 A 
HETATM   24  C   UNL     1     -45.118  54.602 -60.557  1.00  0.00     0.001 A 
HETATM   25  C   UNL     1     -45.686  55.801 -60.978  1.00  0.00     0.000 A 
HETATM   26  C   UNL     1     -45.348  56.993 -60.338  1.00  0.00     0.001 A 
HETATM   27  C   UNL     1     -44.442  56.987 -59.276  1.00  0.00     0.007 A 
ENDBRANCH  21  22
ENDBRANCH  20  21
ENDBRANCH  18  20
ENDBRANCH  16  18
ENDBRANCH  14  16
ENDBRANCH   8  14
BRANCH   1  28
HETATM   28  O   UNL     1     -39.908  52.500 -51.282  1.00  0.00    -0.353 OA
HETATM   29  C   UNL     1     -39.708  51.944 -52.575  1.00  0.00     0.210 C 
ENDBRANCH   1  28
BRANCH   2  30
HETATM   30  O   UNL     1     -39.802  53.865 -49.051  1.00  0.00    -0.353 OA
HETATM   31  C   UNL     1     -40.197  53.837 -47.687  1.00  0.00     0.210 C 
ENDBRANCH   2  30
TORSDOF 8
ENDMDL
MODEL 9
REMARK VINA RESULT:      -7.0      4.644      8.553
REMARK  8 active torsions:
REMARK  status: ('A' for Active; 'I' for Inactive)
REMARK    1  A    between atoms: O_2  and  C_3 
REMARK    2  A    between atoms: C_4  and  O_5 
REMARK    3  A    between atoms: N_12  and  N_13 
REMARK    4  A    between atoms: N_13  and  C_14 
REMARK    5  A    between atoms: C_14  and  N_15 
REMARK    6  A    between atoms: N_15  and  C_16 
REMARK    7  A    between atoms: C_16  and  C_17 
REMARK    8  A    between atoms: C_17  and  C_18 
ROOT
HETATM    1  C   UNL     1     -43.433  62.337 -52.278  1.00  0.00     0.102 A 
HETATM    2  C   UNL     1     -43.624  62.087 -50.902  1.00  0.00     0.103 A 
HETATM    3  C   UNL     1     -43.205  60.870 -50.351  1.00  0.00     0.070 A 
HETATM    4  C   UNL     1     -42.604  59.909 -51.166  1.00  0.00     0.053 A 
HETATM    5  C   UNL     1     -42.397  60.165 -52.517  1.00  0.00     0.063 A 
HETATM    6  C   UNL     1     -41.739  59.134 -53.345  1.00  0.00     0.281 C 
HETATM    7  O   UNL     1     -41.386  59.395 -54.493  1.00  0.00    -0.265 OA
HETATM    8  N   UNL     1     -41.527  57.900 -52.718  1.00  0.00    -0.190 N 
HETATM    9  C   UNL     1     -41.685  57.655 -51.353  1.00  0.00     0.201 C 
HETATM   10  S   UNL     1     -41.290  56.242 -50.537  1.00  0.00    -0.039 SA
HETATM   11  N   UNL     1     -42.211  58.686 -50.614  1.00  0.00    -0.331 N 
HETATM   12  C   UNL     1     -42.805  61.378 -53.079  1.00  0.00     0.059 A 
HETATM   13  H   UNL     1     -42.355  58.504 -49.627  1.00  0.00     0.168 HD
ENDROOT
BRANCH   8  14
HETATM   14  N   UNL     1     -41.040  56.857 -53.551  1.00  0.00    -0.264 N 
HETATM   15  H   UNL     1     -40.208  57.118 -54.070  1.00  0.00     0.190 HD
BRANCH  14  16
HETATM   16  C   UNL     1     -41.924  56.037 -54.215  1.00  0.00     0.187 C 
HETATM   17  S   UNL     1     -43.595  56.106 -54.167  1.00  0.00    -0.040 SA
BRANCH  16  18
HETATM   18  N   UNL     1     -41.353  55.034 -54.954  1.00  0.00    -0.366 N 
HETATM   19  H   UNL     1     -41.422  55.238 -55.947  1.00  0.00     0.161 HD
BRANCH  18  20
HETATM   20  C   UNL     1     -41.411  53.616 -54.611  1.00  0.00     0.126 C 
BRANCH  20  21
HETATM   21  C   UNL     1     -40.023  52.976 -54.613  1.00  0.00     0.058 C 
BRANCH  21  22
HETATM   22  C   UNL     1     -39.903  51.893 -53.572  1.00  0.00    -0.057 A 
HETATM   23  C   UNL     1     -39.822  52.231 -52.213  1.00  0.00     0.007 A 
HETATM   24  C   UNL     1     -39.684  51.239 -51.242  1.00  0.00     0.001 A 
HETATM   25  C   UNL     1     -39.621  49.900 -51.619  1.00  0.00     0.000 A 
HETATM   26  C   UNL     1     -39.696  49.552 -52.967  1.00  0.00     0.001 A 
HETATM   27  C   UNL     1     -39.835  50.544 -53.941  1.00  0.00     0.007 A 
ENDBRANCH  21  22
ENDBRANCH  20  21
ENDBRANCH  18  20
ENDBRANCH  16  18
ENDBRANCH  14  16
ENDBRANCH   8  14
BRANCH   1  28
HETATM   28  O   UNL     1     -43.877  63.552 -52.741  1.00  0.00    -0.353 OA
HETATM   29  C   UNL     1     -42.892  64.483 -53.169  1.00  0.00     0.210 C 
ENDBRANCH   1  28
BRANCH   2  30
HETATM   30  O   UNL     1     -44.235  63.090 -50.189  1.00  0.00    -0.353 OA
HETATM   31  C   UNL     1     -44.397  62.909 -48.790  1.00  0.00     0.210 C 
ENDBRANCH   2  30
TORSDOF 8
ENDMDL
MODEL 10
REMARK VINA RESULT:      -6.9      4.452      7.291
REMARK  8 active torsions:
REMARK  status: ('A' for Active; 'I' for Inactive)
REMARK    1  A    between atoms: O_2  and  C_3 
REMARK    2  A    between atoms: C_4  and  O_5 
REMARK    3  A    between atoms: N_12  and  N_13 
REMARK    4  A    between atoms: N_13  and  C_14 
REMARK    5  A    between atoms: C_14  and  N_15 
REMARK    6  A    between atoms: N_15  and  C_16 
REMARK    7  A    between atoms: C_16  and  C_17 
REMARK    8  A    between atoms: C_17  and  C_18 
ROOT
HETATM    1  C   UNL     1     -40.103  52.226 -51.963  1.00  0.00     0.102 A 
HETATM    2  C   UNL     1     -40.138  52.159 -53.373  1.00  0.00     0.103 A 
HETATM    3  C   UNL     1     -40.955  53.040 -54.092  1.00  0.00     0.070 A 
HETATM    4  C   UNL     1     -41.731  53.980 -53.411  1.00  0.00     0.053 A 
HETATM    5  C   UNL     1     -41.679  54.060 -52.024  1.00  0.00     0.063 A 
HETATM    6  C   UNL     1     -42.499  55.079 -51.338  1.00  0.00     0.281 C 
HETATM    7  O   UNL     1     -42.344  55.290 -50.136  1.00  0.00    -0.265 OA
HETATM    8  N   UNL     1     -43.398  55.779 -52.151  1.00  0.00    -0.190 N 
HETATM    9  C   UNL     1     -43.419  55.739 -53.546  1.00  0.00     0.201 C 
HETATM   10  S   UNL     1     -44.369  56.680 -54.561  1.00  0.00    -0.039 SA
HETATM   11  N   UNL     1     -42.563  54.840 -54.134  1.00  0.00    -0.331 N 
HETATM   12  C   UNL     1     -40.865  53.190 -51.293  1.00  0.00     0.059 A 
HETATM   13  H   UNL     1     -42.594  54.786 -55.146  1.00  0.00     0.168 HD
ENDROOT
BRANCH   8  14
HETATM   14  N   UNL     1     -44.298  56.647 -51.475  1.00  0.00    -0.264 N 
HETATM   15  H   UNL     1     -45.271  56.402 -51.621  1.00  0.00     0.190 HD
BRANCH  14  16
HETATM   16  C   UNL     1     -44.028  57.995 -51.400  1.00  0.00     0.187 C 
HETATM   17  S   UNL     1     -42.521  58.722 -51.362  1.00  0.00    -0.040 SA
BRANCH  16  18
HETATM   18  N   UNL     1     -45.126  58.810 -51.301  1.00  0.00    -0.366 N 
HETATM   19  H   UNL     1     -45.238  59.361 -52.147  1.00  0.00     0.161 HD
BRANCH  18  20
HETATM   20  C   UNL     1     -45.561  59.469 -50.073  1.00  0.00     0.126 C 
BRANCH  20  21
HETATM   21  C   UNL     1     -45.219  60.959 -50.080  1.00  0.00     0.058 C 
BRANCH  21  22
HETATM   22  C   UNL     1     -45.261  61.550 -48.694  1.00  0.00    -0.057 A 
HETATM   23  C   UNL     1     -45.026  62.920 -48.508  1.00  0.00     0.007 A 
HETATM   24  C   UNL     1     -45.036  63.473 -47.227  1.00  0.00     0.001 A 
HETATM   25  C   UNL     1     -45.274  62.663 -46.120  1.00  0.00     0.000 A 
HETATM   26  C   UNL     1     -45.504  61.299 -46.293  1.00  0.00     0.001 A 
HETATM   27  C   UNL     1     -45.496  60.743 -47.575  1.00  0.00     0.007 A 
ENDBRANCH  21  22
ENDBRANCH  20  21
ENDBRANCH  18  20
ENDBRANCH  16  18
ENDBRANCH  14  16
ENDBRANCH   8  14
BRANCH   1  28
HETATM   28  O   UNL     1     -39.282  51.323 -51.334  1.00  0.00    -0.353 OA
HETATM   29  C   UNL     1     -39.906  50.296 -50.575  1.00  0.00     0.210 C 
ENDBRANCH   1  28
BRANCH   2  30
HETATM   30  O   UNL     1     -39.348  51.194 -53.948  1.00  0.00    -0.353 OA
HETATM   31  C   UNL     1     -39.980  50.022 -54.442  1.00  0.00     0.210 C 
ENDBRANCH   2  30
TORSDOF 8
ENDMDL
