MODEL 1
REMARK VINA RESULT:      -9.1      0.000      0.000
REMARK  4 active torsions:
REMARK  status: ('A' for Active; 'I' for Inactive)
REMARK    1  A    between atoms: C_9  and  C_10 
REMARK    2  A    between atoms: C_17  and  C_18 
REMARK       I    between atoms: C_18  and  N_19 
REMARK    3  A    between atoms: N_19  and  C_20 
REMARK    4  A    between atoms: C_23  and  O_24 
ROOT
HETATM    1  C   UNL     1     -44.205  56.286 -51.349  1.00  0.00     0.070 C 
HETATM    2  C   UNL     1     -42.908  55.546 -51.128  1.00  0.00     0.037 C 
HETATM    3  N   UNL     1     -42.739  55.009 -49.854  1.00  0.00    -0.192 N 
HETATM    4  C   UNL     1     -41.538  54.616 -49.383  1.00  0.00     0.725 A 
HETATM    5  N   UNL     1     -40.477  54.532 -50.243  1.00  0.00    -0.084 N 
HETATM    6  N   UNL     1     -39.340  54.215 -49.590  1.00  0.00    -0.149 NA
HETATM    7  C   UNL     1     -39.802  54.081 -48.342  1.00  0.00     0.275 A 
HETATM    8  N   UNL     1     -41.144  54.312 -48.174  1.00  0.00    -0.054 NA
HETATM    9  C   UNL     1     -40.569  54.795 -51.684  1.00  0.00     0.202 C 
HETATM   10  C   UNL     1     -41.901  55.453 -52.035  1.00  0.00     0.062 C 
HETATM   11  H   UNL     1     -43.470  55.190 -49.170  1.00  0.00     0.184 HD
ENDROOT
BRANCH  10  12
HETATM   12  C   UNL     1     -41.907  56.109 -53.371  1.00  0.00     0.256 C 
HETATM   13  N   UNL     1     -42.847  55.608 -54.245  1.00  0.00    -0.323 N 
HETATM   14  H   UNL     1     -43.387  54.810 -53.936  1.00  0.00     0.169 HD
HETATM   15  O   UNL     1     -41.076  56.981 -53.595  1.00  0.00    -0.267 OA
BRANCH  13  16
HETATM   16  C   UNL     1     -43.177  56.121 -55.519  1.00  0.00     0.035 A 
HETATM   17  C   UNL     1     -43.906  57.293 -55.723  1.00  0.00     0.032 A 
HETATM   18  C   UNL     1     -44.219  57.716 -57.020  1.00  0.00     0.039 A 
HETATM   19  C   UNL     1     -43.813  56.980 -58.133  1.00  0.00     0.068 A 
HETATM   20  C   UNL     1     -43.089  55.807 -57.937  1.00  0.00     0.039 A 
HETATM   21  C   UNL     1     -42.770  55.384 -56.638  1.00  0.00     0.032 A 
BRANCH  19  22
HETATM   22  O   UNL     1     -44.191  57.507 -59.336  1.00  0.00    -0.356 OA
HETATM   23  C   UNL     1     -44.583  56.589 -60.347  1.00  0.00     0.210 C 
ENDBRANCH  19  22
ENDBRANCH  13  16
ENDBRANCH  10  12
BRANCH   9  24
HETATM   24  C   UNL     1     -40.341  53.504 -52.473  1.00  0.00    -0.028 A 
HETATM   25  C   UNL     1     -40.512  53.445 -53.869  1.00  0.00     0.011 A 
HETATM   26  C   UNL     1     -40.320  52.248 -54.562  1.00  0.00     0.024 A 
HETATM   27  C   UNL     1     -39.939  51.100 -53.870  1.00  0.00     0.034 A 
HETATM   28 CL   UNL     1     -39.713  49.625 -54.724  1.00  0.00    -0.084 Cl
HETATM   29  C   UNL     1     -39.743  51.143 -52.493  1.00  0.00     0.024 A 
HETATM   30  C   UNL     1     -39.938  52.339 -51.797  1.00  0.00     0.011 A 
ENDBRANCH   9  24
TORSDOF 4
ENDMDL
MODEL 2
REMARK VINA RESULT:      -9.0      2.556      3.150
REMARK  4 active torsions:
REMARK  status: ('A' for Active; 'I' for Inactive)
REMARK    1  A    between atoms: C_9  and  C_10 
REMARK    2  A    between atoms: C_17  and  C_18 
REMARK       I    between atoms: C_18  and  N_19 
REMARK    3  A    between atoms: N_19  and  C_20 
REMARK    4  A    between atoms: C_23  and  O_24 
ROOT
HETATM    1  C   UNL     1     -45.214  58.315 -51.767  1.00  0.00     0.070 C 
HETATM    2  C   UNL     1     -43.738  58.095 -51.994  1.00  0.00     0.037 C 
HETATM    3  N   UNL     1     -42.906  58.524 -50.962  1.00  0.00    -0.192 N 
HETATM    4  C   UNL     1     -41.580  58.711 -51.125  1.00  0.00     0.725 A 
HETATM    5  N   UNL     1     -40.977  58.263 -52.269  1.00  0.00    -0.084 N 
HETATM    6  N   UNL     1     -39.675  58.612 -52.306  1.00  0.00    -0.149 NA
HETATM    7  C   UNL     1     -39.554  59.233 -51.128  1.00  0.00     0.275 A 
HETATM    8  N   UNL     1     -40.695  59.309 -50.372  1.00  0.00    -0.054 NA
HETATM    9  C   UNL     1     -41.678  57.532 -53.331  1.00  0.00     0.202 C 
HETATM   10  C   UNL     1     -43.191  57.602 -53.136  1.00  0.00     0.062 C 
HETATM   11  H   UNL     1     -43.346  58.983 -50.168  1.00  0.00     0.184 HD
ENDROOT
BRANCH  10  12
HETATM   12  C   UNL     1     -43.965  57.249 -54.356  1.00  0.00     0.256 C 
HETATM   13  N   UNL     1     -43.413  57.708 -55.532  1.00  0.00    -0.323 N 
HETATM   14  H   UNL     1     -42.591  58.293 -55.460  1.00  0.00     0.169 HD
HETATM   15  O   UNL     1     -45.018  56.637 -54.221  1.00  0.00    -0.267 OA
BRANCH  13  16
HETATM   16  C   UNL     1     -43.844  57.410 -56.844  1.00  0.00     0.035 A 
HETATM   17  C   UNL     1     -44.906  58.051 -57.481  1.00  0.00     0.032 A 
HETATM   18  C   UNL     1     -45.291  57.674 -58.772  1.00  0.00     0.039 A 
HETATM   19  C   UNL     1     -44.625  56.652 -59.450  1.00  0.00     0.068 A 
HETATM   20  C   UNL     1     -43.566  56.005 -58.819  1.00  0.00     0.039 A 
HETATM   21  C   UNL     1     -43.176  56.385 -57.526  1.00  0.00     0.032 A 
BRANCH  19  22
HETATM   22  O   UNL     1     -45.108  56.386 -60.700  1.00  0.00    -0.356 OA
HETATM   23  C   UNL     1     -45.067  55.032 -61.132  1.00  0.00     0.210 C 
ENDBRANCH  19  22
ENDBRANCH  13  16
ENDBRANCH  10  12
BRANCH   9  24
HETATM   24  C   UNL     1     -41.175  56.088 -53.401  1.00  0.00    -0.028 A 
HETATM   25  C   UNL     1     -40.634  55.545 -54.581  1.00  0.00     0.011 A 
HETATM   26  C   UNL     1     -40.202  54.217 -54.623  1.00  0.00     0.024 A 
HETATM   27  C   UNL     1     -40.294  53.423 -53.483  1.00  0.00     0.034 A 
HETATM   28 CL   UNL     1     -39.772  51.785 -53.541  1.00  0.00    -0.084 Cl
HETATM   29  C   UNL     1     -40.806  53.948 -52.299  1.00  0.00     0.024 A 
HETATM   30  C   UNL     1     -41.240  55.274 -52.256  1.00  0.00     0.011 A 
ENDBRANCH   9  24
TORSDOF 4
ENDMDL
MODEL 3
REMARK VINA RESULT:      -8.8      3.762      7.946
REMARK  4 active torsions:
REMARK  status: ('A' for Active; 'I' for Inactive)
REMARK    1  A    between atoms: C_9  and  C_10 
REMARK    2  A    between atoms: C_17  and  C_18 
REMARK       I    between atoms: C_18  and  N_19 
REMARK    3  A    between atoms: N_19  and  C_20 
REMARK    4  A    between atoms: C_23  and  O_24 
ROOT
HETATM    1  C   UNL     1     -43.617  55.269 -58.656  1.00  0.00     0.070 C 
HETATM    2  C   UNL     1     -43.241  56.483 -57.843  1.00  0.00     0.037 C 
HETATM    3  N   UNL     1     -43.310  57.699 -58.520  1.00  0.00    -0.192 N 
HETATM    4  C   UNL     1     -42.707  58.818 -58.070  1.00  0.00     0.725 A 
HETATM    5  N   UNL     1     -42.191  58.837 -56.803  1.00  0.00    -0.084 N 
HETATM    6  N   UNL     1     -41.548  59.996 -56.552  1.00  0.00    -0.149 NA
HETATM    7  C   UNL     1     -41.755  60.646 -57.703  1.00  0.00     0.275 A 
HETATM    8  N   UNL     1     -42.466  59.962 -58.656  1.00  0.00    -0.054 NA
HETATM    9  C   UNL     1     -42.294  57.717 -55.861  1.00  0.00     0.202 C 
HETATM   10  C   UNL     1     -42.774  56.451 -56.567  1.00  0.00     0.062 C 
HETATM   11  H   UNL     1     -43.563  57.671 -59.506  1.00  0.00     0.184 HD
ENDROOT
BRANCH  10  12
HETATM   12  C   UNL     1     -42.520  55.205 -55.794  1.00  0.00     0.256 C 
HETATM   13  N   UNL     1     -41.255  55.120 -55.256  1.00  0.00    -0.323 N 
HETATM   14  H   UNL     1     -40.602  55.858 -55.488  1.00  0.00     0.169 HD
HETATM   15  O   UNL     1     -43.409  54.364 -55.737  1.00  0.00    -0.267 OA
BRANCH  13  16
HETATM   16  C   UNL     1     -40.777  54.132 -54.367  1.00  0.00     0.035 A 
HETATM   17  C   UNL     1     -40.279  52.893 -54.771  1.00  0.00     0.032 A 
HETATM   18  C   UNL     1     -39.854  51.956 -53.824  1.00  0.00     0.039 A 
HETATM   19  C   UNL     1     -39.919  52.235 -52.458  1.00  0.00     0.068 A 
HETATM   20  C   UNL     1     -40.419  53.467 -52.046  1.00  0.00     0.039 A 
HETATM   21  C   UNL     1     -40.841  54.410 -52.996  1.00  0.00     0.032 A 
BRANCH  19  22
HETATM   22  O   UNL     1     -39.476  51.228 -51.647  1.00  0.00    -0.356 OA
HETATM   23  C   UNL     1     -39.558  49.905 -52.158  1.00  0.00     0.210 C 
ENDBRANCH  19  22
ENDBRANCH  13  16
ENDBRANCH  10  12
BRANCH   9  24
HETATM   24  C   UNL     1     -43.198  58.096 -54.685  1.00  0.00    -0.028 A 
HETATM   25  C   UNL     1     -44.473  58.661 -54.880  1.00  0.00     0.011 A 
HETATM   26  C   UNL     1     -45.268  59.018 -53.789  1.00  0.00     0.024 A 
HETATM   27  C   UNL     1     -44.806  58.801 -52.493  1.00  0.00     0.034 A 
HETATM   28 CL   UNL     1     -45.783  59.252 -51.152  1.00  0.00    -0.084 Cl
HETATM   29  C   UNL     1     -43.558  58.222 -52.280  1.00  0.00     0.024 A 
HETATM   30  C   UNL     1     -42.759  57.867 -53.370  1.00  0.00     0.011 A 
ENDBRANCH   9  24
TORSDOF 4
ENDMDL
MODEL 4
REMARK VINA RESULT:      -8.6      3.618      6.842
REMARK  4 active torsions:
REMARK  status: ('A' for Active; 'I' for Inactive)
REMARK    1  A    between atoms: C_9  and  C_10 
REMARK    2  A    between atoms: C_17  and  C_18 
REMARK       I    between atoms: C_18  and  N_19 
REMARK    3  A    between atoms: N_19  and  C_20 
REMARK    4  A    between atoms: C_23  and  O_24 
ROOT
HETATM    1  C   UNL     1     -40.959  57.905 -50.438  1.00  0.00     0.070 C 
HETATM    2  C   UNL     1     -41.987  58.389 -51.433  1.00  0.00     0.037 C 
HETATM    3  N   UNL     1     -42.312  59.740 -51.344  1.00  0.00    -0.192 N 
HETATM    4  C   UNL     1     -43.420  60.261 -51.909  1.00  0.00     0.725 A 
HETATM    5  N   UNL     1     -44.147  59.500 -52.782  1.00  0.00    -0.084 N 
HETATM    6  N   UNL     1     -45.266  60.140 -53.179  1.00  0.00    -0.149 NA
HETATM    7  C   UNL     1     -45.124  61.303 -52.534  1.00  0.00     0.275 A 
HETATM    8  N   UNL     1     -44.004  61.420 -51.750  1.00  0.00    -0.054 NA
HETATM    9  C   UNL     1     -43.768  58.144 -53.197  1.00  0.00     0.202 C 
HETATM   10  C   UNL     1     -42.650  57.595 -52.314  1.00  0.00     0.062 C 
HETATM   11  H   UNL     1     -41.871  60.279 -50.601  1.00  0.00     0.184 HD
ENDROOT
BRANCH  10  12
HETATM   12  C   UNL     1     -42.494  56.118 -52.400  1.00  0.00     0.256 C 
HETATM   13  N   UNL     1     -41.323  55.704 -52.996  1.00  0.00    -0.323 N 
HETATM   14  H   UNL     1     -40.720  56.420 -53.380  1.00  0.00     0.169 HD
HETATM   15  O   UNL     1     -43.407  55.412 -51.988  1.00  0.00    -0.267 OA
BRANCH  13  16
HETATM   16  C   UNL     1     -40.842  54.379 -53.088  1.00  0.00     0.035 A 
HETATM   17  C   UNL     1     -40.784  53.651 -54.277  1.00  0.00     0.032 A 
HETATM   18  C   UNL     1     -40.322  52.330 -54.278  1.00  0.00     0.039 A 
HETATM   19  C   UNL     1     -39.912  51.712 -53.096  1.00  0.00     0.068 A 
HETATM   20  C   UNL     1     -39.971  52.431 -51.905  1.00  0.00     0.039 A 
HETATM   21  C   UNL     1     -40.429  53.757 -51.903  1.00  0.00     0.032 A 
BRANCH  19  22
HETATM   22  O   UNL     1     -39.490  50.421 -53.243  1.00  0.00    -0.356 OA
HETATM   23  C   UNL     1     -39.626  49.841 -54.534  1.00  0.00     0.210 C 
ENDBRANCH  19  22
ENDBRANCH  13  16
ENDBRANCH  10  12
BRANCH   9  24
HETATM   24  C   UNL     1     -43.388  58.130 -54.679  1.00  0.00    -0.028 A 
HETATM   25  C   UNL     1     -43.945  57.204 -55.581  1.00  0.00     0.011 A 
HETATM   26  C   UNL     1     -43.563  57.199 -56.925  1.00  0.00     0.024 A 
HETATM   27  C   UNL     1     -42.633  58.129 -57.384  1.00  0.00     0.034 A 
HETATM   28 CL   UNL     1     -42.157  58.115 -59.037  1.00  0.00    -0.084 Cl
HETATM   29  C   UNL     1     -42.089  59.068 -56.513  1.00  0.00     0.024 A 
HETATM   30  C   UNL     1     -42.467  59.072 -55.168  1.00  0.00     0.011 A 
ENDBRANCH   9  24
TORSDOF 4
ENDMDL
MODEL 5
REMARK VINA RESULT:      -8.6      3.862      7.004
REMARK  4 active torsions:
REMARK  status: ('A' for Active; 'I' for Inactive)
REMARK    1  A    between atoms: C_9  and  C_10 
REMARK    2  A    between atoms: C_17  and  C_18 
REMARK       I    between atoms: C_18  and  N_19 
REMARK    3  A    between atoms: N_19  and  C_20 
REMARK    4  A    between atoms: C_23  and  O_24 
ROOT
HETATM    1  C   UNL     1     -41.684  59.785 -57.396  1.00  0.00     0.070 C 
HETATM    2  C   UNL     1     -42.130  58.344 -57.453  1.00  0.00     0.037 C 
HETATM    3  N   UNL     1     -42.070  57.752 -58.713  1.00  0.00    -0.192 N 
HETATM    4  C   UNL     1     -42.725  56.612 -59.013  1.00  0.00     0.725 A 
HETATM    5  N   UNL     1     -43.294  55.881 -58.006  1.00  0.00    -0.084 N 
HETATM    6  N   UNL     1     -43.982  54.827 -58.491  1.00  0.00    -0.149 NA
HETATM    7  C   UNL     1     -43.746  54.963 -59.801  1.00  0.00     0.275 A 
HETATM    8  N   UNL     1     -42.975  56.039 -60.162  1.00  0.00    -0.054 NA
HETATM    9  C   UNL     1     -43.196  56.233 -56.584  1.00  0.00     0.202 C 
HETATM   10  C   UNL     1     -42.648  57.647 -56.408  1.00  0.00     0.062 C 
HETATM   11  H   UNL     1     -41.776  58.338 -59.491  1.00  0.00     0.184 HD
ENDROOT
BRANCH  10  12
HETATM   12  C   UNL     1     -42.897  58.218 -55.056  1.00  0.00     0.256 C 
HETATM   13  N   UNL     1     -44.221  58.215 -54.674  1.00  0.00    -0.323 N 
HETATM   14  H   UNL     1     -44.900  57.903 -55.357  1.00  0.00     0.169 HD
HETATM   15  O   UNL     1     -41.945  58.668 -54.430  1.00  0.00    -0.267 OA
BRANCH  13  16
HETATM   16  C   UNL     1     -44.737  58.559 -53.405  1.00  0.00     0.035 A 
HETATM   17  C   UNL     1     -45.380  59.765 -53.124  1.00  0.00     0.032 A 
HETATM   18  C   UNL     1     -45.835  60.041 -51.830  1.00  0.00     0.039 A 
HETATM   19  C   UNL     1     -45.656  59.124 -50.795  1.00  0.00     0.068 A 
HETATM   20  C   UNL     1     -45.011  57.920 -51.066  1.00  0.00     0.039 A 
HETATM   21  C   UNL     1     -44.559  57.639 -52.364  1.00  0.00     0.032 A 
BRANCH  19  22
HETATM   22  O   UNL     1     -46.145  59.526 -49.584  1.00  0.00    -0.356 OA
HETATM   23  C   UNL     1     -45.534  60.663 -48.988  1.00  0.00     0.210 C 
ENDBRANCH  19  22
ENDBRANCH  13  16
ENDBRANCH  10  12
BRANCH   9  24
HETATM   24  C   UNL     1     -42.354  55.195 -55.839  1.00  0.00    -0.028 A 
HETATM   25  C   UNL     1     -40.953  55.301 -55.749  1.00  0.00     0.011 A 
HETATM   26  C   UNL     1     -40.206  54.327 -55.081  1.00  0.00     0.024 A 
HETATM   27  C   UNL     1     -40.851  53.246 -54.485  1.00  0.00     0.034 A 
HETATM   28 CL   UNL     1     -39.928  52.043 -53.673  1.00  0.00    -0.084 Cl
HETATM   29  C   UNL     1     -42.238  53.136 -54.544  1.00  0.00     0.024 A 
HETATM   30  C   UNL     1     -42.986  54.107 -55.214  1.00  0.00     0.011 A 
ENDBRANCH   9  24
TORSDOF 4
ENDMDL
MODEL 6
REMARK VINA RESULT:      -8.3      3.674      7.346
REMARK  4 active torsions:
REMARK  status: ('A' for Active; 'I' for Inactive)
REMARK    1  A    between atoms: C_9  and  C_10 
REMARK    2  A    between atoms: C_17  and  C_18 
REMARK       I    between atoms: C_18  and  N_19 
REMARK    3  A    between atoms: N_19  and  C_20 
REMARK    4  A    between atoms: C_23  and  O_24 
ROOT
HETATM    1  C   UNL     1     -41.170  59.092 -51.726  1.00  0.00     0.070 C 
HETATM    2  C   UNL     1     -42.086  59.385 -52.890  1.00  0.00     0.037 C 
HETATM    3  N   UNL     1     -42.346  60.734 -53.118  1.00  0.00    -0.192 N 
HETATM    4  C   UNL     1     -43.376  61.158 -53.879  1.00  0.00     0.725 A 
HETATM    5  N   UNL     1     -44.067  60.252 -54.635  1.00  0.00    -0.084 N 
HETATM    6  N   UNL     1     -45.115  60.829 -55.259  1.00  0.00    -0.149 NA
HETATM    7  C   UNL     1     -44.966  62.098 -54.863  1.00  0.00     0.275 A 
HETATM    8  N   UNL     1     -43.910  62.343 -54.023  1.00  0.00    -0.054 NA
HETATM    9  C   UNL     1     -43.727  58.826 -54.718  1.00  0.00     0.202 C 
HETATM   10  C   UNL     1     -42.715  58.443 -53.641  1.00  0.00     0.062 C 
HETATM   11  H   UNL     1     -41.941  61.404 -52.469  1.00  0.00     0.184 HD
ENDROOT
BRANCH  10  12
HETATM   12  C   UNL     1     -42.630  56.977 -53.398  1.00  0.00     0.256 C 
HETATM   13  N   UNL     1     -41.444  56.403 -53.800  1.00  0.00    -0.323 N 
HETATM   14  H   UNL     1     -40.780  56.998 -54.279  1.00  0.00     0.169 HD
HETATM   15  O   UNL     1     -43.604  56.410 -52.918  1.00  0.00    -0.267 OA
BRANCH  13  16
HETATM   16  C   UNL     1     -41.026  55.073 -53.571  1.00  0.00     0.035 A 
HETATM   17  C   UNL     1     -40.890  54.505 -52.304  1.00  0.00     0.032 A 
HETATM   18  C   UNL     1     -40.440  53.188 -52.163  1.00  0.00     0.039 A 
HETATM   19  C   UNL     1     -40.116  52.415 -53.279  1.00  0.00     0.068 A 
HETATM   20  C   UNL     1     -40.246  52.977 -54.547  1.00  0.00     0.039 A 
HETATM   21  C   UNL     1     -40.702  54.296 -54.690  1.00  0.00     0.032 A 
BRANCH  19  22
HETATM   22  O   UNL     1     -39.686  51.150 -52.994  1.00  0.00    -0.356 OA
HETATM   23  C   UNL     1     -39.495  50.828 -51.623  1.00  0.00     0.210 C 
ENDBRANCH  19  22
ENDBRANCH  13  16
ENDBRANCH  10  12
BRANCH   9  24
HETATM   24  C   UNL     1     -43.227  58.482 -56.123  1.00  0.00    -0.028 A 
HETATM   25  C   UNL     1     -42.269  59.273 -56.786  1.00  0.00     0.011 A 
HETATM   26  C   UNL     1     -41.847  58.948 -58.077  1.00  0.00     0.024 A 
HETATM   27  C   UNL     1     -42.365  57.823 -58.713  1.00  0.00     0.034 A 
HETATM   28 CL   UNL     1     -41.851  57.432 -60.307  1.00  0.00    -0.084 Cl
HETATM   29  C   UNL     1     -43.296  57.015 -58.066  1.00  0.00     0.024 A 
HETATM   30  C   UNL     1     -43.722  57.340 -56.776  1.00  0.00     0.011 A 
ENDBRANCH   9  24
TORSDOF 4
ENDMDL
MODEL 7
REMARK VINA RESULT:      -8.2      3.831      8.403
REMARK  4 active torsions:
REMARK  status: ('A' for Active; 'I' for Inactive)
REMARK    1  A    between atoms: C_9  and  C_10 
REMARK    2  A    between atoms: C_17  and  C_18 
REMARK       I    between atoms: C_18  and  N_19 
REMARK    3  A    between atoms: N_19  and  C_20 
REMARK    4  A    between atoms: C_23  and  O_24 
ROOT
HETATM    1  C   UNL     1     -43.222  53.741 -55.776  1.00  0.00     0.070 C 
HETATM    2  C   UNL     1     -43.031  55.124 -56.351  1.00  0.00     0.037 C 
HETATM    3  N   UNL     1     -43.537  55.310 -57.636  1.00  0.00    -0.192 N 
HETATM    4  C   UNL     1     -43.173  56.347 -58.418  1.00  0.00     0.725 A 
HETATM    5  N   UNL     1     -42.456  57.377 -57.874  1.00  0.00    -0.084 N 
HETATM    6  N   UNL     1     -42.101  58.278 -58.812  1.00  0.00    -0.149 NA
HETATM    7  C   UNL     1     -42.678  57.745 -59.895  1.00  0.00     0.275 A 
HETATM    8  N   UNL     1     -43.350  56.566 -59.695  1.00  0.00    -0.054 NA
HETATM    9  C   UNL     1     -42.089  57.458 -56.455  1.00  0.00     0.202 C 
HETATM   10  C   UNL     1     -42.346  56.130 -55.747  1.00  0.00     0.062 C 
HETATM   11  H   UNL     1     -43.950  54.502 -58.097  1.00  0.00     0.184 HD
ENDROOT
BRANCH  10  12
HETATM   12  C   UNL     1     -41.639  56.004 -54.444  1.00  0.00     0.256 C 
HETATM   13  N   UNL     1     -42.470  56.016 -53.344  1.00  0.00    -0.323 N 
HETATM   14  H   UNL     1     -43.455  56.179 -53.509  1.00  0.00     0.169 HD
HETATM   15  O   UNL     1     -40.416  55.945 -54.448  1.00  0.00    -0.267 OA
BRANCH  13  16
HETATM   16  C   UNL     1     -42.102  55.775 -52.002  1.00  0.00     0.035 A 
HETATM   17  C   UNL     1     -41.662  56.765 -51.123  1.00  0.00     0.032 A 
HETATM   18  C   UNL     1     -41.285  56.437 -49.816  1.00  0.00     0.039 A 
HETATM   19  C   UNL     1     -41.340  55.119 -49.363  1.00  0.00     0.068 A 
HETATM   20  C   UNL     1     -41.774  54.124 -50.235  1.00  0.00     0.039 A 
HETATM   21  C   UNL     1     -42.156  54.452 -51.544  1.00  0.00     0.032 A 
BRANCH  19  22
HETATM   22  O   UNL     1     -40.939  54.943 -48.068  1.00  0.00    -0.356 OA
HETATM   23  C   UNL     1     -40.354  53.690 -47.739  1.00  0.00     0.210 C 
ENDBRANCH  19  22
ENDBRANCH  13  16
ENDBRANCH  10  12
BRANCH   9  24
HETATM   24  C   UNL     1     -42.829  58.618 -55.784  1.00  0.00    -0.028 A 
HETATM   25  C   UNL     1     -42.161  59.787 -55.371  1.00  0.00     0.011 A 
HETATM   26  C   UNL     1     -42.857  60.821 -54.741  1.00  0.00     0.024 A 
HETATM   27  C   UNL     1     -44.229  60.705 -54.530  1.00  0.00     0.034 A 
HETATM   28 CL   UNL     1     -45.081  61.976 -53.743  1.00  0.00    -0.084 Cl
HETATM   29  C   UNL     1     -44.911  59.567 -54.951  1.00  0.00     0.024 A 
HETATM   30  C   UNL     1     -44.217  58.530 -55.578  1.00  0.00     0.011 A 
ENDBRANCH   9  24
TORSDOF 4
ENDMDL
MODEL 8
REMARK VINA RESULT:      -8.1      3.836      6.944
REMARK  4 active torsions:
REMARK  status: ('A' for Active; 'I' for Inactive)
REMARK    1  A    between atoms: C_9  and  C_10 
REMARK    2  A    between atoms: C_17  and  C_18 
REMARK       I    between atoms: C_18  and  N_19 
REMARK    3  A    between atoms: N_19  and  C_20 
REMARK    4  A    between atoms: C_23  and  O_24 
ROOT
HETATM    1  C   UNL     1     -40.091  59.183 -50.808  1.00  0.00     0.070 C 
HETATM    2  C   UNL     1     -41.550  59.160 -51.194  1.00  0.00     0.037 C 
HETATM    3  N   UNL     1     -42.354  60.093 -50.543  1.00  0.00    -0.192 N 
HETATM    4  C   UNL     1     -43.699  59.999 -50.511  1.00  0.00     0.725 A 
HETATM    5  N   UNL     1     -44.326  59.091 -51.319  1.00  0.00    -0.084 N 
HETATM    6  N   UNL     1     -45.656  59.068 -51.094  1.00  0.00    -0.149 NA
HETATM    7  C   UNL     1     -45.763  60.023 -50.164  1.00  0.00     0.275 A 
HETATM    8  N   UNL     1     -44.589  60.623 -49.784  1.00  0.00    -0.054 NA
HETATM    9  C   UNL     1     -43.625  58.227 -52.277  1.00  0.00     0.202 C 
HETATM   10  C   UNL     1     -42.117  58.261 -52.040  1.00  0.00     0.062 C 
HETATM   11  H   UNL     1     -41.912  60.679 -49.838  1.00  0.00     0.184 HD
ENDROOT
BRANCH  10  12
HETATM   12  C   UNL     1     -41.389  57.131 -52.680  1.00  0.00     0.256 C 
HETATM   13  N   UNL     1     -41.589  55.911 -52.072  1.00  0.00    -0.323 N 
HETATM   14  H   UNL     1     -42.139  55.901 -51.223  1.00  0.00     0.169 HD
HETATM   15  O   UNL     1     -40.661  57.374 -53.634  1.00  0.00    -0.267 OA
BRANCH  13  16
HETATM   16  C   UNL     1     -41.147  54.652 -52.535  1.00  0.00     0.035 A 
HETATM   17  C   UNL     1     -40.501  53.709 -51.735  1.00  0.00     0.032 A 
HETATM   18  C   UNL     1     -40.065  52.496 -52.279  1.00  0.00     0.039 A 
HETATM   19  C   UNL     1     -40.264  52.201 -53.628  1.00  0.00     0.068 A 
HETATM   20  C   UNL     1     -40.905  53.139 -54.434  1.00  0.00     0.039 A 
HETATM   21  C   UNL     1     -41.346  54.354 -53.889  1.00  0.00     0.032 A 
BRANCH  19  22
HETATM   22  O   UNL     1     -39.785  50.985 -54.024  1.00  0.00    -0.356 OA
HETATM   23  C   UNL     1     -39.686  49.975 -53.029  1.00  0.00     0.210 C 
ENDBRANCH  19  22
ENDBRANCH  13  16
ENDBRANCH  10  12
BRANCH   9  24
HETATM   24  C   UNL     1     -43.989  58.621 -53.710  1.00  0.00    -0.028 A 
HETATM   25  C   UNL     1     -43.573  59.842 -54.274  1.00  0.00     0.011 A 
HETATM   26  C   UNL     1     -43.938  60.186 -55.578  1.00  0.00     0.024 A 
HETATM   27  C   UNL     1     -44.711  59.309 -56.336  1.00  0.00     0.034 A 
HETATM   28 CL   UNL     1     -45.169  59.741 -57.936  1.00  0.00    -0.084 Cl
HETATM   29  C   UNL     1     -45.113  58.088 -55.803  1.00  0.00     0.024 A 
HETATM   30  C   UNL     1     -44.752  57.743 -54.499  1.00  0.00     0.011 A 
ENDBRANCH   9  24
TORSDOF 4
ENDMDL
MODEL 9
REMARK VINA RESULT:      -8.0      3.612      7.876
REMARK  4 active torsions:
REMARK  status: ('A' for Active; 'I' for Inactive)
REMARK    1  A    between atoms: C_9  and  C_10 
REMARK    2  A    between atoms: C_17  and  C_18 
REMARK       I    between atoms: C_18  and  N_19 
REMARK    3  A    between atoms: N_19  and  C_20 
REMARK    4  A    between atoms: C_23  and  O_24 
ROOT
HETATM    1  C   UNL     1     -43.494  54.301 -56.236  1.00  0.00     0.070 C 
HETATM    2  C   UNL     1     -43.087  55.750 -56.110  1.00  0.00     0.037 C 
HETATM    3  N   UNL     1     -43.861  56.651 -56.838  1.00  0.00    -0.192 N 
HETATM    4  C   UNL     1     -43.454  57.908 -57.108  1.00  0.00     0.725 A 
HETATM    5  N   UNL     1     -42.349  58.405 -56.472  1.00  0.00    -0.084 N 
HETATM    6  N   UNL     1     -42.033  59.635 -56.925  1.00  0.00    -0.149 NA
HETATM    7  C   UNL     1     -43.020  59.833 -57.806  1.00  0.00     0.275 A 
HETATM    8  N   UNL     1     -43.915  58.802 -57.943  1.00  0.00    -0.054 NA
HETATM    9  C   UNL     1     -41.588  57.666 -55.457  1.00  0.00     0.202 C 
HETATM   10  C   UNL     1     -42.002  56.197 -55.426  1.00  0.00     0.062 C 
HETATM   11  H   UNL     1     -44.601  56.266 -57.422  1.00  0.00     0.184 HD
ENDROOT
BRANCH  10  12
HETATM   12  C   UNL     1     -41.021  55.317 -54.734  1.00  0.00     0.256 C 
HETATM   13  N   UNL     1     -41.575  54.487 -53.784  1.00  0.00    -0.323 N 
HETATM   14  H   UNL     1     -42.563  54.597 -53.592  1.00  0.00     0.169 HD
HETATM   15  O   UNL     1     -39.836  55.428 -55.022  1.00  0.00    -0.267 OA
BRANCH  13  16
HETATM   16  C   UNL     1     -40.920  53.456 -53.075  1.00  0.00     0.035 A 
HETATM   17  C   UNL     1     -40.336  52.342 -53.679  1.00  0.00     0.032 A 
HETATM   18  C   UNL     1     -39.734  51.348 -52.901  1.00  0.00     0.039 A 
HETATM   19  C   UNL     1     -39.703  51.445 -51.509  1.00  0.00     0.068 A 
HETATM   20  C   UNL     1     -40.287  52.551 -50.898  1.00  0.00     0.039 A 
HETATM   21  C   UNL     1     -40.888  53.552 -51.678  1.00  0.00     0.032 A 
BRANCH  19  22
HETATM   22  O   UNL     1     -39.088  50.401 -50.877  1.00  0.00    -0.356 OA
HETATM   23  C   UNL     1     -39.530  49.093 -51.212  1.00  0.00     0.210 C 
ENDBRANCH  19  22
ENDBRANCH  13  16
ENDBRANCH  10  12
BRANCH   9  24
HETATM   24  C   UNL     1     -41.744  58.335 -54.089  1.00  0.00    -0.028 A 
HETATM   25  C   UNL     1     -40.631  58.723 -53.320  1.00  0.00     0.011 A 
HETATM   26  C   UNL     1     -40.802  59.311 -52.065  1.00  0.00     0.024 A 
HETATM   27  C   UNL     1     -42.085  59.532 -51.571  1.00  0.00     0.034 A 
HETATM   28 CL   UNL     1     -42.292  60.246 -50.021  1.00  0.00    -0.084 Cl
HETATM   29  C   UNL     1     -43.199  59.176 -52.327  1.00  0.00     0.024 A 
HETATM   30  C   UNL     1     -43.031  58.584 -53.581  1.00  0.00     0.011 A 
ENDBRANCH   9  24
TORSDOF 4
ENDMDL
MODEL 10
REMARK VINA RESULT:      -7.9      4.267      7.151
REMARK  4 active torsions:
REMARK  status: ('A' for Active; 'I' for Inactive)
REMARK    1  A    between atoms: C_9  and  C_10 
REMARK    2  A    between atoms: C_17  and  C_18 
REMARK       I    between atoms: C_18  and  N_19 
REMARK    3  A    between atoms: N_19  and  C_20 
REMARK    4  A    between atoms: C_23  and  O_24 
ROOT
HETATM    1  C   UNL     1     -45.518  57.570 -50.970  1.00  0.00     0.070 C 
HETATM    2  C   UNL     1     -44.409  58.320 -51.669  1.00  0.00     0.037 C 
HETATM    3  N   UNL     1     -44.740  59.601 -52.105  1.00  0.00    -0.192 N 
HETATM    4  C   UNL     1     -44.007  60.271 -53.018  1.00  0.00     0.725 A 
HETATM    5  N   UNL     1     -42.779  59.786 -53.376  1.00  0.00    -0.084 N 
HETATM    6  N   UNL     1     -42.226  60.526 -54.360  1.00  0.00    -0.149 NA
HETATM    7  C   UNL     1     -43.164  61.467 -54.514  1.00  0.00     0.275 A 
HETATM    8  N   UNL     1     -44.267  61.351 -53.707  1.00  0.00    -0.054 NA
HETATM    9  C   UNL     1     -42.168  58.589 -52.787  1.00  0.00     0.202 C 
HETATM   10  C   UNL     1     -43.186  57.806 -51.962  1.00  0.00     0.062 C 
HETATM   11  H   UNL     1     -45.698  59.911 -51.960  1.00  0.00     0.184 HD
ENDROOT
BRANCH  10  12
HETATM   12  C   UNL     1     -42.771  56.405 -51.678  1.00  0.00     0.256 C 
HETATM   13  N   UNL     1     -42.035  55.817 -52.682  1.00  0.00    -0.323 N 
HETATM   14  H   UNL     1     -41.907  56.347 -53.535  1.00  0.00     0.169 HD
HETATM   15  O   UNL     1     -43.141  55.890 -50.629  1.00  0.00    -0.267 OA
BRANCH  13  16
HETATM   16  C   UNL     1     -41.392  54.560 -52.636  1.00  0.00     0.035 A 
HETATM   17  C   UNL     1     -40.669  54.093 -51.538  1.00  0.00     0.032 A 
HETATM   18  C   UNL     1     -40.034  52.847 -51.585  1.00  0.00     0.039 A 
HETATM   19  C   UNL     1     -40.106  52.047 -52.725  1.00  0.00     0.068 A 
HETATM   20  C   UNL     1     -40.822  52.507 -53.827  1.00  0.00     0.039 A 
HETATM   21  C   UNL     1     -41.464  53.754 -53.780  1.00  0.00     0.032 A 
BRANCH  19  22
HETATM   22  O   UNL     1     -39.436  50.859 -52.633  1.00  0.00    -0.356 OA
HETATM   23  C   UNL     1     -39.471  50.194 -51.378  1.00  0.00     0.210 C 
ENDBRANCH  19  22
ENDBRANCH  13  16
ENDBRANCH  10  12
BRANCH   9  24
HETATM   24  C   UNL     1     -40.937  58.974 -51.962  1.00  0.00    -0.028 A 
HETATM   25  C   UNL     1     -39.630  58.825 -52.463  1.00  0.00     0.011 A 
HETATM   26  C   UNL     1     -38.524  59.164 -51.681  1.00  0.00     0.024 A 
HETATM   27  C   UNL     1     -38.711  59.669 -50.397  1.00  0.00     0.034 A 
HETATM   28 CL   UNL     1     -37.347  60.075 -49.432  1.00  0.00    -0.084 Cl
HETATM   29  C   UNL     1     -39.997  59.845 -49.892  1.00  0.00     0.024 A 
HETATM   30  C   UNL     1     -41.104  59.504 -50.671  1.00  0.00     0.011 A 
ENDBRANCH   9  24
TORSDOF 4
ENDMDL
