MODEL 1
REMARK VINA RESULT:      -8.7      0.000      0.000
REMARK  9 active torsions:
REMARK  status: ('A' for Active; 'I' for Inactive)
REMARK    1  A    between atoms: C_2  and  O_3 
REMARK    2  A    between atoms: O_3  and  C_4 
REMARK    3  A    between atoms: C_5  and  C_6 
REMARK    4  A    between atoms: C_7  and  C_8 
REMARK       I    between atoms: C_8  and  N_9 
REMARK    5  A    between atoms: N_9  and  C_10 
REMARK    6  A    between atoms: C_20  and  S_21 
REMARK    7  A    between atoms: S_21  and  C_22 
REMARK    8  A    between atoms: C_22  and  C_23 
REMARK       I    between atoms: C_23  and  N_24 
REMARK    9  A    between atoms: N_24  and  C_25 
ROOT
HETATM    1  C   UNL     1     -43.214  56.808 -53.615  1.00  0.00     0.107 C 
HETATM    2  C   UNL     1     -42.639  55.970 -54.765  1.00  0.00     0.046 C 
HETATM    3  C   UNL     1     -43.114  56.121 -56.024  1.00  0.00     0.019 C 
HETATM    4  C   UNL     1     -42.481  55.523 -57.260  1.00  0.00     0.069 C 
HETATM    5  N   UNL     1     -44.209  56.941 -56.264  1.00  0.00    -0.353 N 
HETATM    6  C   UNL     1     -44.728  57.848 -55.353  1.00  0.00     0.087 C 
HETATM    7  C   UNL     1     -44.314  57.808 -54.062  1.00  0.00     0.055 C 
HETATM    8  C   UNL     1     -44.541  58.985 -53.128  1.00  0.00     0.019 C 
HETATM    9  N   UNL     1     -44.731  59.961 -52.352  1.00  0.00    -0.096 N 
HETATM   10  H   UNL     1     -44.320  57.235 -57.232  1.00  0.00     0.166 HD
ENDROOT
BRANCH   1  11
HETATM   11  C   UNL     1     -42.134  57.547 -52.798  1.00  0.00    -0.011 A 
HETATM   12  C   UNL     1     -42.005  57.380 -51.400  1.00  0.00     0.076 A 
HETATM   13  C   UNL     1     -40.968  58.023 -50.718  1.00  0.00     0.037 A 
HETATM   14  C   UNL     1     -40.051  58.817 -51.410  1.00  0.00     0.003 A 
HETATM   15  C   UNL     1     -40.169  58.985 -52.786  1.00  0.00     0.001 A 
HETATM   16  C   UNL     1     -41.203  58.357 -53.478  1.00  0.00     0.011 A 
BRANCH  12  17
HETATM   17  O   UNL     1     -42.933  56.568 -50.801  1.00  0.00    -0.351 OA
BRANCH  17  18
HETATM   18  C   UNL     1     -42.511  55.265 -50.405  1.00  0.00     0.171 C 
HETATM   19  C   UNL     1     -43.622  54.293 -50.759  1.00  0.00     0.034 C 
ENDBRANCH  17  18
ENDBRANCH  12  17
ENDBRANCH   1  11
BRANCH   6  20
HETATM   20  S   UNL     1     -45.727  59.182 -55.921  1.00  0.00    -0.102 SA
BRANCH  20  21
HETATM   21  C   UNL     1     -45.259  59.301 -57.671  1.00  0.00     0.184 C 
BRANCH  21  22
HETATM   22  C   UNL     1     -44.346  60.480 -57.963  1.00  0.00     0.231 C 
HETATM   23  N   UNL     1     -43.086  60.112 -58.402  1.00  0.00    -0.327 N 
HETATM   24  H   UNL     1     -42.839  59.136 -58.266  1.00  0.00     0.169 HD
HETATM   25  O   UNL     1     -44.782  61.626 -57.886  1.00  0.00    -0.272 OA
BRANCH  23  26
HETATM   26  C   UNL     1     -42.090  60.934 -58.959  1.00  0.00     0.034 A 
HETATM   27  C   UNL     1     -41.116  61.591 -58.206  1.00  0.00     0.030 A 
HETATM   28  C   UNL     1     -40.187  62.429 -58.831  1.00  0.00     0.009 A 
HETATM   29  C   UNL     1     -40.220  62.627 -60.215  1.00  0.00    -0.062 A 
HETATM   30  C   UNL     1     -39.207  63.513 -60.875  1.00  0.00     0.048 C 
HETATM   31  C   UNL     1     -41.183  61.952 -60.971  1.00  0.00     0.009 A 
HETATM   32  C   UNL     1     -42.114  61.118 -60.345  1.00  0.00     0.030 A 
ENDBRANCH  23  26
ENDBRANCH  21  22
ENDBRANCH  20  21
ENDBRANCH   6  20
BRANCH   2  33
HETATM   33  C   UNL     1     -41.493  55.053 -54.447  1.00  0.00     0.255 C 
HETATM   34  N   UNL     1     -41.875  53.886 -53.811  1.00  0.00    -0.323 N 
HETATM   35  H   UNL     1     -42.862  53.754 -53.640  1.00  0.00     0.169 HD
HETATM   36  O   UNL     1     -40.346  55.359 -54.742  1.00  0.00    -0.268 OA
BRANCH  34  37
HETATM   37  C   UNL     1     -41.040  52.787 -53.506  1.00  0.00     0.035 A 
HETATM   38  C   UNL     1     -40.795  51.726 -54.380  1.00  0.00     0.029 A 
HETATM   39  C   UNL     1     -39.982  50.656 -53.994  1.00  0.00     0.002 A 
HETATM   40  C   UNL     1     -39.412  50.632 -52.725  1.00  0.00     0.000 A 
HETATM   41  C   UNL     1     -39.644  51.686 -51.846  1.00  0.00     0.002 A 
HETATM   42  C   UNL     1     -40.445  52.764 -52.237  1.00  0.00     0.029 A 
ENDBRANCH  34  37
ENDBRANCH   2  33
TORSDOF 9
ENDMDL
MODEL 2
REMARK VINA RESULT:      -8.7      2.308      3.752
REMARK  9 active torsions:
REMARK  status: ('A' for Active; 'I' for Inactive)
REMARK    1  A    between atoms: C_2  and  O_3 
REMARK    2  A    between atoms: O_3  and  C_4 
REMARK    3  A    between atoms: C_5  and  C_6 
REMARK    4  A    between atoms: C_7  and  C_8 
REMARK       I    between atoms: C_8  and  N_9 
REMARK    5  A    between atoms: N_9  and  C_10 
REMARK    6  A    between atoms: C_20  and  S_21 
REMARK    7  A    between atoms: S_21  and  C_22 
REMARK    8  A    between atoms: C_22  and  C_23 
REMARK       I    between atoms: C_23  and  N_24 
REMARK    9  A    between atoms: N_24  and  C_25 
ROOT
HETATM    1  C   UNL     1     -43.105  56.934 -53.433  1.00  0.00     0.107 C 
HETATM    2  C   UNL     1     -42.610  56.074 -54.604  1.00  0.00     0.046 C 
HETATM    3  C   UNL     1     -43.140  56.232 -55.840  1.00  0.00     0.019 C 
HETATM    4  C   UNL     1     -42.583  55.609 -57.100  1.00  0.00     0.069 C 
HETATM    5  N   UNL     1     -44.221  57.082 -56.033  1.00  0.00    -0.353 N 
HETATM    6  C   UNL     1     -44.670  58.009 -55.104  1.00  0.00     0.087 C 
HETATM    7  C   UNL     1     -44.196  57.963 -53.834  1.00  0.00     0.055 C 
HETATM    8  C   UNL     1     -44.345  59.150 -52.897  1.00  0.00     0.019 C 
HETATM    9  N   UNL     1     -44.469  60.135 -52.120  1.00  0.00    -0.096 N 
HETATM   10  H   UNL     1     -44.369  57.375 -56.996  1.00  0.00     0.166 HD
ENDROOT
BRANCH   1  11
HETATM   11  C   UNL     1     -41.967  57.645 -52.673  1.00  0.00    -0.011 A 
HETATM   12  C   UNL     1     -41.759  57.458 -51.287  1.00  0.00     0.076 A 
HETATM   13  C   UNL     1     -40.672  58.076 -50.660  1.00  0.00     0.037 A 
HETATM   14  C   UNL     1     -39.785  58.864 -51.397  1.00  0.00     0.003 A 
HETATM   15  C   UNL     1     -39.981  59.051 -52.761  1.00  0.00     0.001 A 
HETATM   16  C   UNL     1     -41.065  58.449 -53.397  1.00  0.00     0.011 A 
BRANCH  12  17
HETATM   17  O   UNL     1     -42.662  56.653 -50.644  1.00  0.00    -0.351 OA
BRANCH  17  18
HETATM   18  C   UNL     1     -42.249  55.329 -50.315  1.00  0.00     0.171 C 
HETATM   19  C   UNL     1     -43.417  54.400 -50.590  1.00  0.00     0.034 C 
ENDBRANCH  17  18
ENDBRANCH  12  17
ENDBRANCH   1  11
BRANCH   6  20
HETATM   20  S   UNL     1     -45.656  59.368 -55.633  1.00  0.00    -0.102 SA
BRANCH  20  21
HETATM   21  C   UNL     1     -44.635  60.104 -56.941  1.00  0.00     0.184 C 
BRANCH  21  22
HETATM   22  C   UNL     1     -44.891  59.492 -58.309  1.00  0.00     0.231 C 
HETATM   23  N   UNL     1     -46.112  58.850 -58.412  1.00  0.00    -0.327 N 
HETATM   24  H   UNL     1     -46.587  58.663 -57.534  1.00  0.00     0.169 HD
HETATM   25  O   UNL     1     -44.086  59.671 -59.220  1.00  0.00    -0.272 OA
BRANCH  23  26
HETATM   26  C   UNL     1     -46.746  58.378 -59.576  1.00  0.00     0.034 A 
HETATM   27  C   UNL     1     -47.446  59.195 -60.464  1.00  0.00     0.030 A 
HETATM   28  C   UNL     1     -48.090  58.641 -61.575  1.00  0.00     0.009 A 
HETATM   29  C   UNL     1     -48.048  57.263 -61.812  1.00  0.00    -0.062 A 
HETATM   30  C   UNL     1     -48.727  56.684 -63.017  1.00  0.00     0.048 C 
HETATM   31  C   UNL     1     -47.330  56.448 -60.933  1.00  0.00     0.009 A 
HETATM   32  C   UNL     1     -46.690  57.002 -59.820  1.00  0.00     0.030 A 
ENDBRANCH  23  26
ENDBRANCH  21  22
ENDBRANCH  20  21
ENDBRANCH   6  20
BRANCH   2  33
HETATM   33  C   UNL     1     -41.477  55.125 -54.334  1.00  0.00     0.255 C 
HETATM   34  N   UNL     1     -41.866  53.961 -53.697  1.00  0.00    -0.323 N 
HETATM   35  H   UNL     1     -42.850  53.852 -53.494  1.00  0.00     0.169 HD
HETATM   36  O   UNL     1     -40.334  55.405 -54.666  1.00  0.00    -0.268 OA
BRANCH  34  37
HETATM   37  C   UNL     1     -41.050  52.838 -53.431  1.00  0.00     0.035 A 
HETATM   38  C   UNL     1     -40.293  52.680 -52.268  1.00  0.00     0.029 A 
HETATM   39  C   UNL     1     -39.483  51.555 -52.091  1.00  0.00     0.002 A 
HETATM   40  C   UNL     1     -39.416  50.578 -53.079  1.00  0.00     0.000 A 
HETATM   41  C   UNL     1     -40.170  50.720 -54.241  1.00  0.00     0.002 A 
HETATM   42  C   UNL     1     -40.991  51.839 -54.412  1.00  0.00     0.029 A 
ENDBRANCH  34  37
ENDBRANCH   2  33
TORSDOF 9
ENDMDL
MODEL 3
REMARK VINA RESULT:      -8.5      3.979      7.480
REMARK  9 active torsions:
REMARK  status: ('A' for Active; 'I' for Inactive)
REMARK    1  A    between atoms: C_2  and  O_3 
REMARK    2  A    between atoms: O_3  and  C_4 
REMARK    3  A    between atoms: C_5  and  C_6 
REMARK    4  A    between atoms: C_7  and  C_8 
REMARK       I    between atoms: C_8  and  N_9 
REMARK    5  A    between atoms: N_9  and  C_10 
REMARK    6  A    between atoms: C_20  and  S_21 
REMARK    7  A    between atoms: S_21  and  C_22 
REMARK    8  A    between atoms: C_22  and  C_23 
REMARK       I    between atoms: C_23  and  N_24 
REMARK    9  A    between atoms: N_24  and  C_25 
ROOT
HETATM    1  C   UNL     1     -40.982  56.562 -52.853  1.00  0.00     0.107 C 
HETATM    2  C   UNL     1     -41.173  55.566 -51.701  1.00  0.00     0.046 C 
HETATM    3  C   UNL     1     -41.262  56.007 -50.424  1.00  0.00     0.019 C 
HETATM    4  C   UNL     1     -41.671  55.153 -49.245  1.00  0.00     0.069 C 
HETATM    5  N   UNL     1     -41.055  57.349 -50.132  1.00  0.00    -0.353 N 
HETATM    6  C   UNL     1     -41.012  58.363 -51.078  1.00  0.00     0.087 C 
HETATM    7  C   UNL     1     -40.941  58.044 -52.394  1.00  0.00     0.055 C 
HETATM    8  C   UNL     1     -41.275  59.066 -53.468  1.00  0.00     0.019 C 
HETATM    9  N   UNL     1     -41.551  59.914 -54.360  1.00  0.00    -0.096 N 
HETATM   10  H   UNL     1     -41.421  57.654 -49.233  1.00  0.00     0.166 HD
ENDROOT
BRANCH   1  11
HETATM   11  C   UNL     1     -42.014  56.391 -53.985  1.00  0.00    -0.011 A 
HETATM   12  C   UNL     1     -43.402  56.549 -53.766  1.00  0.00     0.076 A 
HETATM   13  C   UNL     1     -44.290  56.448 -54.842  1.00  0.00     0.037 A 
HETATM   14  C   UNL     1     -43.813  56.205 -56.132  1.00  0.00     0.003 A 
HETATM   15  C   UNL     1     -42.449  56.051 -56.357  1.00  0.00     0.001 A 
HETATM   16  C   UNL     1     -41.554  56.141 -55.293  1.00  0.00     0.011 A 
BRANCH  12  17
HETATM   17  O   UNL     1     -43.784  56.805 -52.475  1.00  0.00    -0.351 OA
BRANCH  17  18
HETATM   18  C   UNL     1     -44.798  57.786 -52.270  1.00  0.00     0.171 C 
HETATM   19  C   UNL     1     -45.335  57.607 -50.862  1.00  0.00     0.034 C 
ENDBRANCH  17  18
ENDBRANCH  12  17
ENDBRANCH   1  11
BRANCH   6  20
HETATM   20  S   UNL     1     -41.289  60.030 -50.584  1.00  0.00    -0.102 SA
BRANCH  20  21
HETATM   21  C   UNL     1     -43.079  60.214 -50.820  1.00  0.00     0.184 C 
BRANCH  21  22
HETATM   22  C   UNL     1     -43.678  61.330 -49.980  1.00  0.00     0.231 C 
HETATM   23  N   UNL     1     -44.691  60.909 -49.136  1.00  0.00    -0.327 N 
HETATM   24  H   UNL     1     -45.068  59.985 -49.327  1.00  0.00     0.169 HD
HETATM   25  O   UNL     1     -43.196  62.459 -50.028  1.00  0.00    -0.272 OA
BRANCH  23  26
HETATM   26  C   UNL     1     -45.297  61.624 -48.087  1.00  0.00     0.034 A 
HETATM   27  C   UNL     1     -44.907  61.522 -46.752  1.00  0.00     0.030 A 
HETATM   28  C   UNL     1     -45.592  62.231 -45.760  1.00  0.00     0.009 A 
HETATM   29  C   UNL     1     -46.679  63.048 -46.087  1.00  0.00    -0.062 A 
HETATM   30  C   UNL     1     -47.393  63.817 -45.017  1.00  0.00     0.048 C 
HETATM   31  C   UNL     1     -47.056  63.166 -47.428  1.00  0.00     0.009 A 
HETATM   32  C   UNL     1     -46.374  62.453 -48.418  1.00  0.00     0.030 A 
ENDBRANCH  23  26
ENDBRANCH  21  22
ENDBRANCH  20  21
ENDBRANCH   6  20
BRANCH   2  33
HETATM   33  C   UNL     1     -41.334  54.116 -52.059  1.00  0.00     0.255 C 
HETATM   34  N   UNL     1     -40.145  53.488 -52.383  1.00  0.00    -0.323 N 
HETATM   35  H   UNL     1     -39.301  54.042 -52.332  1.00  0.00     0.169 HD
HETATM   36  O   UNL     1     -42.437  53.589 -52.052  1.00  0.00    -0.268 OA
BRANCH  34  37
HETATM   37  C   UNL     1     -39.968  52.109 -52.635  1.00  0.00     0.035 A 
HETATM   38  C   UNL     1     -39.679  51.165 -51.648  1.00  0.00     0.029 A 
HETATM   39  C   UNL     1     -39.485  49.821 -51.980  1.00  0.00     0.002 A 
HETATM   40  C   UNL     1     -39.571  49.408 -53.305  1.00  0.00     0.000 A 
HETATM   41  C   UNL     1     -39.865  50.337 -54.299  1.00  0.00     0.002 A 
HETATM   42  C   UNL     1     -40.073  51.679 -53.965  1.00  0.00     0.029 A 
ENDBRANCH  34  37
ENDBRANCH   2  33
TORSDOF 9
ENDMDL
MODEL 4
REMARK VINA RESULT:      -8.3      1.700      2.228
REMARK  9 active torsions:
REMARK  status: ('A' for Active; 'I' for Inactive)
REMARK    1  A    between atoms: C_2  and  O_3 
REMARK    2  A    between atoms: O_3  and  C_4 
REMARK    3  A    between atoms: C_5  and  C_6 
REMARK    4  A    between atoms: C_7  and  C_8 
REMARK       I    between atoms: C_8  and  N_9 
REMARK    5  A    between atoms: N_9  and  C_10 
REMARK    6  A    between atoms: C_20  and  S_21 
REMARK    7  A    between atoms: S_21  and  C_22 
REMARK    8  A    between atoms: C_22  and  C_23 
REMARK       I    between atoms: C_23  and  N_24 
REMARK    9  A    between atoms: N_24  and  C_25 
ROOT
HETATM    1  C   UNL     1     -43.563  57.716 -53.967  1.00  0.00     0.107 C 
HETATM    2  C   UNL     1     -43.329  56.322 -54.563  1.00  0.00     0.046 C 
HETATM    3  C   UNL     1     -43.463  56.117 -55.895  1.00  0.00     0.019 C 
HETATM    4  C   UNL     1     -43.044  54.858 -56.618  1.00  0.00     0.069 C 
HETATM    5  N   UNL     1     -43.937  57.134 -56.714  1.00  0.00    -0.353 N 
HETATM    6  C   UNL     1     -44.052  58.462 -56.333  1.00  0.00     0.087 C 
HETATM    7  C   UNL     1     -43.918  58.795 -55.025  1.00  0.00     0.055 C 
HETATM    8  C   UNL     1     -43.652  60.231 -54.603  1.00  0.00     0.019 C 
HETATM    9  N   UNL     1     -43.433  61.422 -54.253  1.00  0.00    -0.096 N 
HETATM   10  H   UNL     1     -43.733  57.017 -57.704  1.00  0.00     0.166 HD
ENDROOT
BRANCH   1  11
HETATM   11  C   UNL     1     -42.397  58.208 -53.086  1.00  0.00    -0.011 A 
HETATM   12  C   UNL     1     -42.571  58.530 -51.721  1.00  0.00     0.076 A 
HETATM   13  C   UNL     1     -41.466  58.909 -50.952  1.00  0.00     0.037 A 
HETATM   14  C   UNL     1     -40.191  58.957 -51.520  1.00  0.00     0.003 A 
HETATM   15  C   UNL     1     -40.010  58.639 -52.862  1.00  0.00     0.001 A 
HETATM   16  C   UNL     1     -41.104  58.269 -53.643  1.00  0.00     0.011 A 
BRANCH  12  17
HETATM   17  O   UNL     1     -43.850  58.437 -51.236  1.00  0.00    -0.351 OA
BRANCH  17  18
HETATM   18  C   UNL     1     -44.509  59.649 -50.879  1.00  0.00     0.171 C 
HETATM   19  C   UNL     1     -45.837  59.686 -51.614  1.00  0.00     0.034 C 
ENDBRANCH  17  18
ENDBRANCH  12  17
ENDBRANCH   1  11
BRANCH   6  20
HETATM   20  S   UNL     1     -44.132  59.720 -57.563  1.00  0.00    -0.102 SA
BRANCH  20  21
HETATM   21  C   UNL     1     -43.686  58.817 -59.073  1.00  0.00     0.184 C 
BRANCH  21  22
HETATM   22  C   UNL     1     -42.552  59.473 -59.844  1.00  0.00     0.231 C 
HETATM   23  N   UNL     1     -42.393  60.818 -59.563  1.00  0.00    -0.327 N 
HETATM   24  H   UNL     1     -43.163  61.260 -59.068  1.00  0.00     0.169 HD
HETATM   25  O   UNL     1     -41.825  58.791 -60.563  1.00  0.00    -0.272 OA
BRANCH  23  26
HETATM   26  C   UNL     1     -41.325  61.659 -59.926  1.00  0.00     0.034 A 
HETATM   27  C   UNL     1     -40.422  62.205 -59.014  1.00  0.00     0.030 A 
HETATM   28  C   UNL     1     -39.415  63.071 -59.450  1.00  0.00     0.009 A 
HETATM   29  C   UNL     1     -39.296  63.407 -60.802  1.00  0.00    -0.062 A 
HETATM   30  C   UNL     1     -38.200  64.321 -61.259  1.00  0.00     0.048 C 
HETATM   31  C   UNL     1     -40.189  62.843 -61.719  1.00  0.00     0.009 A 
HETATM   32  C   UNL     1     -41.199  61.981 -61.281  1.00  0.00     0.030 A 
ENDBRANCH  23  26
ENDBRANCH  21  22
ENDBRANCH  20  21
ENDBRANCH   6  20
BRANCH   2  33
HETATM   33  C   UNL     1     -42.875  55.237 -53.629  1.00  0.00     0.255 C 
HETATM   34  N   UNL     1     -41.646  54.698 -53.960  1.00  0.00    -0.323 N 
HETATM   35  H   UNL     1     -41.172  55.084 -54.765  1.00  0.00     0.169 HD
HETATM   36  O   UNL     1     -43.567  54.898 -52.680  1.00  0.00    -0.268 OA
BRANCH  34  37
HETATM   37  C   UNL     1     -40.910  53.759 -53.200  1.00  0.00     0.035 A 
HETATM   38  C   UNL     1     -40.557  53.943 -51.861  1.00  0.00     0.029 A 
HETATM   39  C   UNL     1     -39.800  52.982 -51.185  1.00  0.00     0.002 A 
HETATM   40  C   UNL     1     -39.381  51.830 -51.842  1.00  0.00     0.000 A 
HETATM   41  C   UNL     1     -39.731  51.632 -53.175  1.00  0.00     0.002 A 
HETATM   42  C   UNL     1     -40.501  52.586 -53.848  1.00  0.00     0.029 A 
ENDBRANCH  34  37
ENDBRANCH   2  33
TORSDOF 9
ENDMDL
MODEL 5
REMARK VINA RESULT:      -8.1      2.476      8.623
REMARK  9 active torsions:
REMARK  status: ('A' for Active; 'I' for Inactive)
REMARK    1  A    between atoms: C_2  and  O_3 
REMARK    2  A    between atoms: O_3  and  C_4 
REMARK    3  A    between atoms: C_5  and  C_6 
REMARK    4  A    between atoms: C_7  and  C_8 
REMARK       I    between atoms: C_8  and  N_9 
REMARK    5  A    between atoms: N_9  and  C_10 
REMARK    6  A    between atoms: C_20  and  S_21 
REMARK    7  A    between atoms: S_21  and  C_22 
REMARK    8  A    between atoms: C_22  and  C_23 
REMARK       I    between atoms: C_23  and  N_24 
REMARK    9  A    between atoms: N_24  and  C_25 
ROOT
HETATM    1  C   UNL     1     -42.641  58.994 -56.398  1.00  0.00     0.107 C 
HETATM    2  C   UNL     1     -42.859  57.566 -56.915  1.00  0.00     0.046 C 
HETATM    3  C   UNL     1     -42.499  56.502 -56.159  1.00  0.00     0.019 C 
HETATM    4  C   UNL     1     -42.866  55.067 -56.461  1.00  0.00     0.069 C 
HETATM    5  N   UNL     1     -41.814  56.693 -54.965  1.00  0.00    -0.353 N 
HETATM    6  C   UNL     1     -41.678  57.914 -54.323  1.00  0.00     0.087 C 
HETATM    7  C   UNL     1     -42.025  59.053 -54.974  1.00  0.00     0.055 C 
HETATM    8  C   UNL     1     -42.262  60.349 -54.217  1.00  0.00     0.019 C 
HETATM    9  N   UNL     1     -42.457  61.425 -53.589  1.00  0.00    -0.096 N 
HETATM   10  H   UNL     1     -41.841  55.903 -54.325  1.00  0.00     0.166 HD
ENDROOT
BRANCH   1  11
HETATM   11  C   UNL     1     -43.912  59.866 -56.456  1.00  0.00    -0.011 A 
HETATM   12  C   UNL     1     -44.041  60.944 -57.362  1.00  0.00     0.076 A 
HETATM   13  C   UNL     1     -45.240  61.661 -57.418  1.00  0.00     0.037 A 
HETATM   14  C   UNL     1     -46.313  61.311 -56.596  1.00  0.00     0.003 A 
HETATM   15  C   UNL     1     -46.196  60.251 -55.704  1.00  0.00     0.001 A 
HETATM   16  C   UNL     1     -45.003  59.533 -55.631  1.00  0.00     0.011 A 
BRANCH  12  17
HETATM   17  O   UNL     1     -42.949  61.208 -58.147  1.00  0.00    -0.351 OA
BRANCH  17  18
HETATM   18  C   UNL     1     -43.165  61.356 -59.548  1.00  0.00     0.171 C 
HETATM   19  C   UNL     1     -42.119  60.523 -60.267  1.00  0.00     0.034 C 
ENDBRANCH  17  18
ENDBRANCH  12  17
ENDBRANCH   1  11
BRANCH   6  20
HETATM   20  S   UNL     1     -41.287  57.960 -52.607  1.00  0.00    -0.102 SA
BRANCH  20  21
HETATM   21  C   UNL     1     -42.478  56.785 -51.905  1.00  0.00     0.184 C 
BRANCH  21  22
HETATM   22  C   UNL     1     -42.351  55.387 -52.490  1.00  0.00     0.231 C 
HETATM   23  N   UNL     1     -41.061  54.888 -52.461  1.00  0.00    -0.327 N 
HETATM   24  H   UNL     1     -40.329  55.567 -52.274  1.00  0.00     0.169 HD
HETATM   25  O   UNL     1     -43.357  54.780 -52.850  1.00  0.00    -0.272 OA
BRANCH  23  26
HETATM   26  C   UNL     1     -40.637  53.571 -52.714  1.00  0.00     0.034 A 
HETATM   27  C   UNL     1     -40.052  52.746 -51.753  1.00  0.00     0.030 A 
HETATM   28  C   UNL     1     -39.613  51.463 -52.096  1.00  0.00     0.009 A 
HETATM   29  C   UNL     1     -39.749  50.987 -53.404  1.00  0.00    -0.062 A 
HETATM   30  C   UNL     1     -39.292  49.603 -53.754  1.00  0.00     0.048 C 
HETATM   31  C   UNL     1     -40.354  51.806 -54.362  1.00  0.00     0.009 A 
HETATM   32  C   UNL     1     -40.788  53.090 -54.019  1.00  0.00     0.030 A 
ENDBRANCH  23  26
ENDBRANCH  21  22
ENDBRANCH  20  21
ENDBRANCH   6  20
BRANCH   2  33
HETATM   33  C   UNL     1     -43.552  57.408 -58.239  1.00  0.00     0.255 C 
HETATM   34  N   UNL     1     -44.927  57.313 -58.139  1.00  0.00    -0.323 N 
HETATM   35  H   UNL     1     -45.330  57.375 -57.213  1.00  0.00     0.169 HD
HETATM   36  O   UNL     1     -42.911  57.370 -59.280  1.00  0.00    -0.268 OA
BRANCH  34  37
HETATM   37  C   UNL     1     -45.846  57.287 -59.213  1.00  0.00     0.035 A 
HETATM   38  C   UNL     1     -46.146  56.143 -59.956  1.00  0.00     0.029 A 
HETATM   39  C   UNL     1     -47.043  56.203 -61.027  1.00  0.00     0.002 A 
HETATM   40  C   UNL     1     -47.644  57.409 -61.370  1.00  0.00     0.000 A 
HETATM   41  C   UNL     1     -47.359  58.556 -60.634  1.00  0.00     0.002 A 
HETATM   42  C   UNL     1     -46.472  58.493 -59.554  1.00  0.00     0.029 A 
ENDBRANCH  34  37
ENDBRANCH   2  33
TORSDOF 9
ENDMDL
MODEL 6
REMARK VINA RESULT:      -8.0      3.193      8.650
REMARK  9 active torsions:
REMARK  status: ('A' for Active; 'I' for Inactive)
REMARK    1  A    between atoms: C_2  and  O_3 
REMARK    2  A    between atoms: O_3  and  C_4 
REMARK    3  A    between atoms: C_5  and  C_6 
REMARK    4  A    between atoms: C_7  and  C_8 
REMARK       I    between atoms: C_8  and  N_9 
REMARK    5  A    between atoms: N_9  and  C_10 
REMARK    6  A    between atoms: C_20  and  S_21 
REMARK    7  A    between atoms: S_21  and  C_22 
REMARK    8  A    between atoms: C_22  and  C_23 
REMARK       I    between atoms: C_23  and  N_24 
REMARK    9  A    between atoms: N_24  and  C_25 
ROOT
HETATM    1  C   UNL     1     -45.322  59.295 -53.573  1.00  0.00     0.107 C 
HETATM    2  C   UNL     1     -45.092  58.579 -52.235  1.00  0.00     0.046 C 
HETATM    3  C   UNL     1     -44.495  57.364 -52.203  1.00  0.00     0.019 C 
HETATM    4  C   UNL     1     -44.018  56.673 -50.947  1.00  0.00     0.069 C 
HETATM    5  N   UNL     1     -44.201  56.699 -53.387  1.00  0.00    -0.353 N 
HETATM    6  C   UNL     1     -44.229  57.282 -54.645  1.00  0.00     0.087 C 
HETATM    7  C   UNL     1     -44.786  58.509 -54.800  1.00  0.00     0.055 C 
HETATM    8  C   UNL     1     -44.509  59.347 -56.037  1.00  0.00     0.019 C 
HETATM    9  N   UNL     1     -44.281  60.041 -57.065  1.00  0.00    -0.096 N 
HETATM   10  H   UNL     1     -43.508  55.960 -53.302  1.00  0.00     0.166 HD
ENDROOT
BRANCH   1  11
HETATM   11  C   UNL     1     -44.779  60.738 -53.596  1.00  0.00    -0.011 A 
HETATM   12  C   UNL     1     -43.417  61.031 -53.360  1.00  0.00     0.076 A 
HETATM   13  C   UNL     1     -42.964  62.350 -53.457  1.00  0.00     0.037 A 
HETATM   14  C   UNL     1     -43.847  63.378 -53.798  1.00  0.00     0.003 A 
HETATM   15  C   UNL     1     -45.189  63.098 -54.035  1.00  0.00     0.001 A 
HETATM   16  C   UNL     1     -45.655  61.789 -53.933  1.00  0.00     0.011 A 
BRANCH  12  17
HETATM   17  O   UNL     1     -42.614  59.964 -53.051  1.00  0.00    -0.351 OA
BRANCH  17  18
HETATM   18  C   UNL     1     -41.505  59.703 -53.909  1.00  0.00     0.171 C 
HETATM   19  C   UNL     1     -40.510  58.858 -53.133  1.00  0.00     0.034 C 
ENDBRANCH  17  18
ENDBRANCH  12  17
ENDBRANCH   1  11
BRANCH   6  20
HETATM   20  S   UNL     1     -43.340  56.540 -55.971  1.00  0.00    -0.102 SA
BRANCH  20  21
HETATM   21  C   UNL     1     -41.776  56.073 -55.178  1.00  0.00     0.184 C 
BRANCH  21  22
HETATM   22  C   UNL     1     -41.848  54.733 -54.463  1.00  0.00     0.231 C 
HETATM   23  N   UNL     1     -40.611  54.225 -54.108  1.00  0.00    -0.327 N 
HETATM   24  H   UNL     1     -39.809  54.667 -54.549  1.00  0.00     0.169 HD
HETATM   25  O   UNL     1     -42.940  54.250 -54.176  1.00  0.00    -0.272 OA
BRANCH  23  26
HETATM   26  C   UNL     1     -40.332  53.138 -53.260  1.00  0.00     0.034 A 
HETATM   27  C   UNL     1     -40.371  53.212 -51.867  1.00  0.00     0.030 A 
HETATM   28  C   UNL     1     -40.034  52.098 -51.092  1.00  0.00     0.009 A 
HETATM   29  C   UNL     1     -39.651  50.896 -51.695  1.00  0.00    -0.062 A 
HETATM   30  C   UNL     1     -39.311  49.703 -50.853  1.00  0.00     0.048 C 
HETATM   31  C   UNL     1     -39.632  50.817 -53.091  1.00  0.00     0.009 A 
HETATM   32  C   UNL     1     -39.964  51.932 -53.865  1.00  0.00     0.030 A 
ENDBRANCH  23  26
ENDBRANCH  21  22
ENDBRANCH  20  21
ENDBRANCH   6  20
BRANCH   2  33
HETATM   33  C   UNL     1     -45.480  59.313 -50.983  1.00  0.00     0.255 C 
HETATM   34  N   UNL     1     -44.485  60.136 -50.490  1.00  0.00    -0.323 N 
HETATM   35  H   UNL     1     -43.620  60.181 -51.013  1.00  0.00     0.169 HD
HETATM   36  O   UNL     1     -46.586  59.159 -50.484  1.00  0.00    -0.268 OA
BRANCH  34  37
HETATM   37  C   UNL     1     -44.602  61.039 -49.409  1.00  0.00     0.035 A 
HETATM   38  C   UNL     1     -45.015  60.672 -48.126  1.00  0.00     0.029 A 
HETATM   39  C   UNL     1     -45.138  61.630 -47.115  1.00  0.00     0.002 A 
HETATM   40  C   UNL     1     -44.857  62.966 -47.378  1.00  0.00     0.000 A 
HETATM   41  C   UNL     1     -44.439  63.345 -48.651  1.00  0.00     0.002 A 
HETATM   42  C   UNL     1     -44.301  62.385 -49.659  1.00  0.00     0.029 A 
ENDBRANCH  34  37
ENDBRANCH   2  33
TORSDOF 9
ENDMDL
MODEL 7
REMARK VINA RESULT:      -8.0      3.295      4.820
REMARK  9 active torsions:
REMARK  status: ('A' for Active; 'I' for Inactive)
REMARK    1  A    between atoms: C_2  and  O_3 
REMARK    2  A    between atoms: O_3  and  C_4 
REMARK    3  A    between atoms: C_5  and  C_6 
REMARK    4  A    between atoms: C_7  and  C_8 
REMARK       I    between atoms: C_8  and  N_9 
REMARK    5  A    between atoms: N_9  and  C_10 
REMARK    6  A    between atoms: C_20  and  S_21 
REMARK    7  A    between atoms: S_21  and  C_22 
REMARK    8  A    between atoms: C_22  and  C_23 
REMARK       I    between atoms: C_23  and  N_24 
REMARK    9  A    between atoms: N_24  and  C_25 
ROOT
HETATM    1  C   UNL     1     -43.557  57.885 -53.395  1.00  0.00     0.107 C 
HETATM    2  C   UNL     1     -43.464  56.356 -53.484  1.00  0.00     0.046 C 
HETATM    3  C   UNL     1     -43.502  55.737 -54.689  1.00  0.00     0.019 C 
HETATM    4  C   UNL     1     -43.197  54.275 -54.915  1.00  0.00     0.069 C 
HETATM    5  N   UNL     1     -43.752  56.470 -55.842  1.00  0.00    -0.353 N 
HETATM    6  C   UNL     1     -43.717  57.854 -55.919  1.00  0.00     0.087 C 
HETATM    7  C   UNL     1     -43.659  58.584 -54.777  1.00  0.00     0.055 C 
HETATM    8  C   UNL     1     -43.238  60.044 -54.800  1.00  0.00     0.019 C 
HETATM    9  N   UNL     1     -42.889  61.256 -54.818  1.00  0.00    -0.096 N 
HETATM   10  H   UNL     1     -43.477  56.012 -56.708  1.00  0.00     0.166 HD
ENDROOT
BRANCH   1  11
HETATM   11  C   UNL     1     -42.420  58.519 -52.569  1.00  0.00    -0.011 A 
HETATM   12  C   UNL     1     -42.663  59.200 -51.355  1.00  0.00     0.076 A 
HETATM   13  C   UNL     1     -41.589  59.700 -50.612  1.00  0.00     0.037 A 
HETATM   14  C   UNL     1     -40.277  59.518 -51.056  1.00  0.00     0.003 A 
HETATM   15  C   UNL     1     -40.028  58.847 -52.248  1.00  0.00     0.001 A 
HETATM   16  C   UNL     1     -41.090  58.352 -53.003  1.00  0.00     0.011 A 
BRANCH  12  17
HETATM   17  O   UNL     1     -43.977  59.316 -50.981  1.00  0.00    -0.351 OA
BRANCH  17  18
HETATM   18  C   UNL     1     -44.407  60.574 -50.465  1.00  0.00     0.171 C 
HETATM   19  C   UNL     1     -45.206  61.270 -51.553  1.00  0.00     0.034 C 
ENDBRANCH  17  18
ENDBRANCH  12  17
ENDBRANCH   1  11
BRANCH   6  20
HETATM   20  S   UNL     1     -43.509  58.636 -57.482  1.00  0.00    -0.102 SA
BRANCH  20  21
HETATM   21  C   UNL     1     -43.012  57.253 -58.547  1.00  0.00     0.184 C 
BRANCH  21  22
HETATM   22  C   UNL     1     -44.010  56.971 -59.659  1.00  0.00     0.231 C 
HETATM   23  N   UNL     1     -45.285  57.436 -59.392  1.00  0.00    -0.327 N 
HETATM   24  H   UNL     1     -45.467  57.698 -58.428  1.00  0.00     0.169 HD
HETATM   25  O   UNL     1     -43.628  56.458 -60.708  1.00  0.00    -0.272 OA
BRANCH  23  26
HETATM   26  C   UNL     1     -46.373  57.535 -60.279  1.00  0.00     0.034 A 
HETATM   27  C   UNL     1     -47.018  56.434 -60.842  1.00  0.00     0.030 A 
HETATM   28  C   UNL     1     -48.063  56.618 -61.754  1.00  0.00     0.009 A 
HETATM   29  C   UNL     1     -48.476  57.903 -62.119  1.00  0.00    -0.062 A 
HETATM   30  C   UNL     1     -49.609  58.086 -63.082  1.00  0.00     0.048 C 
HETATM   31  C   UNL     1     -47.842  59.006 -61.539  1.00  0.00     0.009 A 
HETATM   32  C   UNL     1     -46.795  58.822 -60.631  1.00  0.00     0.030 A 
ENDBRANCH  23  26
ENDBRANCH  21  22
ENDBRANCH  20  21
ENDBRANCH   6  20
BRANCH   2  33
HETATM   33  C   UNL     1     -43.252  55.600 -52.203  1.00  0.00     0.255 C 
HETATM   34  N   UNL     1     -41.933  55.257 -51.972  1.00  0.00    -0.323 N 
HETATM   35  H   UNL     1     -41.251  55.553 -52.657  1.00  0.00     0.169 HD
HETATM   36  O   UNL     1     -44.194  55.335 -51.470  1.00  0.00    -0.268 OA
BRANCH  34  37
HETATM   37  C   UNL     1     -41.415  54.660 -50.800  1.00  0.00     0.035 A 
HETATM   38  C   UNL     1     -41.295  55.321 -49.575  1.00  0.00     0.029 A 
HETATM   39  C   UNL     1     -40.742  54.673 -48.467  1.00  0.00     0.002 A 
HETATM   40  C   UNL     1     -40.297  53.359 -48.573  1.00  0.00     0.000 A 
HETATM   41  C   UNL     1     -40.417  52.687 -49.786  1.00  0.00     0.002 A 
HETATM   42  C   UNL     1     -40.983  53.330 -50.892  1.00  0.00     0.029 A 
ENDBRANCH  34  37
ENDBRANCH   2  33
TORSDOF 9
ENDMDL
MODEL 8
REMARK VINA RESULT:      -7.9      2.842      4.693
REMARK  9 active torsions:
REMARK  status: ('A' for Active; 'I' for Inactive)
REMARK    1  A    between atoms: C_2  and  O_3 
REMARK    2  A    between atoms: O_3  and  C_4 
REMARK    3  A    between atoms: C_5  and  C_6 
REMARK    4  A    between atoms: C_7  and  C_8 
REMARK       I    between atoms: C_8  and  N_9 
REMARK    5  A    between atoms: N_9  and  C_10 
REMARK    6  A    between atoms: C_20  and  S_21 
REMARK    7  A    between atoms: S_21  and  C_22 
REMARK    8  A    between atoms: C_22  and  C_23 
REMARK       I    between atoms: C_23  and  N_24 
REMARK    9  A    between atoms: N_24  and  C_25 
ROOT
HETATM    1  C   UNL     1     -43.055  57.016 -53.397  1.00  0.00     0.107 C 
HETATM    2  C   UNL     1     -42.574  56.185 -54.594  1.00  0.00     0.046 C 
HETATM    3  C   UNL     1     -43.098  56.392 -55.826  1.00  0.00     0.019 C 
HETATM    4  C   UNL     1     -42.551  55.801 -57.104  1.00  0.00     0.069 C 
HETATM    5  N   UNL     1     -44.164  57.268 -55.993  1.00  0.00    -0.353 N 
HETATM    6  C   UNL     1     -44.598  58.172 -55.035  1.00  0.00     0.087 C 
HETATM    7  C   UNL     1     -44.127  58.077 -53.766  1.00  0.00     0.055 C 
HETATM    8  C   UNL     1     -44.256  59.236 -52.792  1.00  0.00     0.019 C 
HETATM    9  N   UNL     1     -44.364  60.197 -51.983  1.00  0.00    -0.096 N 
HETATM   10  H   UNL     1     -44.306  57.594 -56.946  1.00  0.00     0.166 HD
ENDROOT
BRANCH   1  11
HETATM   11  C   UNL     1     -41.906  57.682 -52.614  1.00  0.00    -0.011 A 
HETATM   12  C   UNL     1     -41.713  57.460 -51.231  1.00  0.00     0.076 A 
HETATM   13  C   UNL     1     -40.616  58.036 -50.583  1.00  0.00     0.037 A 
HETATM   14  C   UNL     1     -39.704  58.818 -51.295  1.00  0.00     0.003 A 
HETATM   15  C   UNL     1     -39.885  59.040 -52.656  1.00  0.00     0.001 A 
HETATM   16  C   UNL     1     -40.979  58.479 -53.313  1.00  0.00     0.011 A 
BRANCH  12  17
HETATM   17  O   UNL     1     -42.641  56.663 -50.612  1.00  0.00    -0.351 OA
BRANCH  17  18
HETATM   18  C   UNL     1     -42.238  55.347 -50.240  1.00  0.00     0.171 C 
HETATM   19  C   UNL     1     -43.394  54.410 -50.537  1.00  0.00     0.034 C 
ENDBRANCH  17  18
ENDBRANCH  12  17
ENDBRANCH   1  11
BRANCH   6  20
HETATM   20  S   UNL     1     -45.559  59.565 -55.520  1.00  0.00    -0.102 SA
BRANCH  20  21
HETATM   21  C   UNL     1     -45.661  59.358 -57.321  1.00  0.00     0.184 C 
BRANCH  21  22
HETATM   22  C   UNL     1     -47.081  59.130 -57.814  1.00  0.00     0.231 C 
HETATM   23  N   UNL     1     -47.914  60.219 -57.630  1.00  0.00    -0.327 N 
HETATM   24  H   UNL     1     -47.568  60.940 -57.003  1.00  0.00     0.169 HD
HETATM   25  O   UNL     1     -47.367  58.087 -58.396  1.00  0.00    -0.272 OA
BRANCH  23  26
HETATM   26  C   UNL     1     -49.202  60.423 -58.159  1.00  0.00     0.034 A 
HETATM   27  C   UNL     1     -49.450  60.741 -59.495  1.00  0.00     0.030 A 
HETATM   28  C   UNL     1     -50.758  60.974 -59.933  1.00  0.00     0.009 A 
HETATM   29  C   UNL     1     -51.835  60.898 -59.044  1.00  0.00    -0.062 A 
HETATM   30  C   UNL     1     -53.233  61.131 -59.531  1.00  0.00     0.048 C 
HETATM   31  C   UNL     1     -51.587  60.559 -57.711  1.00  0.00     0.009 A 
HETATM   32  C   UNL     1     -50.279  60.330 -57.272  1.00  0.00     0.030 A 
ENDBRANCH  23  26
ENDBRANCH  21  22
ENDBRANCH  20  21
ENDBRANCH   6  20
BRANCH   2  33
HETATM   33  C   UNL     1     -41.458  55.208 -54.354  1.00  0.00     0.255 C 
HETATM   34  N   UNL     1     -41.856  54.062 -53.691  1.00  0.00    -0.323 N 
HETATM   35  H   UNL     1     -42.835  53.982 -53.452  1.00  0.00     0.169 HD
HETATM   36  O   UNL     1     -40.321  55.453 -54.730  1.00  0.00    -0.268 OA
BRANCH  34  37
HETATM   37  C   UNL     1     -41.062  52.920 -53.441  1.00  0.00     0.035 A 
HETATM   38  C   UNL     1     -40.318  52.725 -52.275  1.00  0.00     0.029 A 
HETATM   39  C   UNL     1     -39.530  51.582 -52.114  1.00  0.00     0.002 A 
HETATM   40  C   UNL     1     -39.471  50.624 -53.122  1.00  0.00     0.000 A 
HETATM   41  C   UNL     1     -40.211  50.803 -54.287  1.00  0.00     0.002 A 
HETATM   42  C   UNL     1     -41.012  51.940 -54.442  1.00  0.00     0.029 A 
ENDBRANCH  34  37
ENDBRANCH   2  33
TORSDOF 9
ENDMDL
MODEL 9
REMARK VINA RESULT:      -7.8      4.691      8.670
REMARK  9 active torsions:
REMARK  status: ('A' for Active; 'I' for Inactive)
REMARK    1  A    between atoms: C_2  and  O_3 
REMARK    2  A    between atoms: O_3  and  C_4 
REMARK    3  A    between atoms: C_5  and  C_6 
REMARK    4  A    between atoms: C_7  and  C_8 
REMARK       I    between atoms: C_8  and  N_9 
REMARK    5  A    between atoms: N_9  and  C_10 
REMARK    6  A    between atoms: C_20  and  S_21 
REMARK    7  A    between atoms: S_21  and  C_22 
REMARK    8  A    between atoms: C_22  and  C_23 
REMARK       I    between atoms: C_23  and  N_24 
REMARK    9  A    between atoms: N_24  and  C_25 
ROOT
HETATM    1  C   UNL     1     -42.519  60.622 -53.911  1.00  0.00     0.107 C 
HETATM    2  C   UNL     1     -41.860  59.890 -52.734  1.00  0.00     0.046 C 
HETATM    3  C   UNL     1     -42.099  60.287 -51.462  1.00  0.00     0.019 C 
HETATM    4  C   UNL     1     -41.692  59.514 -50.228  1.00  0.00     0.069 C 
HETATM    5  N   UNL     1     -42.840  61.437 -51.216  1.00  0.00    -0.353 N 
HETATM    6  C   UNL     1     -43.598  62.103 -52.167  1.00  0.00     0.087 C 
HETATM    7  C   UNL     1     -43.460  61.779 -53.477  1.00  0.00     0.055 C 
HETATM    8  C   UNL     1     -44.507  62.183 -54.500  1.00  0.00     0.019 C 
HETATM    9  N   UNL     1     -45.376  62.520 -55.350  1.00  0.00    -0.096 N 
HETATM   10  H   UNL     1     -43.223  61.507 -50.276  1.00  0.00     0.166 HD
ENDROOT
BRANCH   1  11
HETATM   11  C   UNL     1     -43.261  59.679 -54.879  1.00  0.00    -0.011 A 
HETATM   12  C   UNL     1     -42.757  59.374 -56.164  1.00  0.00     0.076 A 
HETATM   13  C   UNL     1     -43.435  58.462 -56.977  1.00  0.00     0.037 A 
HETATM   14  C   UNL     1     -44.600  57.840 -56.523  1.00  0.00     0.003 A 
HETATM   15  C   UNL     1     -45.102  58.131 -55.259  1.00  0.00     0.001 A 
HETATM   16  C   UNL     1     -44.441  59.046 -54.441  1.00  0.00     0.011 A 
BRANCH  12  17
HETATM   17  O   UNL     1     -41.598  60.012 -56.525  1.00  0.00    -0.351 OA
BRANCH  17  18
HETATM   18  C   UNL     1     -41.579  60.684 -57.782  1.00  0.00     0.171 C 
HETATM   19  C   UNL     1     -42.365  61.974 -57.627  1.00  0.00     0.034 C 
ENDBRANCH  17  18
ENDBRANCH  12  17
ENDBRANCH   1  11
BRANCH   6  20
HETATM   20  S   UNL     1     -44.890  63.183 -51.653  1.00  0.00    -0.102 SA
BRANCH  20  21
HETATM   21  C   UNL     1     -45.513  62.362 -50.160  1.00  0.00     0.184 C 
BRANCH  21  22
HETATM   22  C   UNL     1     -44.913  62.921 -48.880  1.00  0.00     0.231 C 
HETATM   23  N   UNL     1     -45.616  62.575 -47.739  1.00  0.00    -0.327 N 
HETATM   24  H   UNL     1     -46.546  62.197 -47.892  1.00  0.00     0.169 HD
HETATM   25  O   UNL     1     -43.849  63.534 -48.919  1.00  0.00    -0.272 OA
BRANCH  23  26
HETATM   26  C   UNL     1     -45.223  62.737 -46.398  1.00  0.00     0.034 A 
HETATM   27  C   UNL     1     -45.174  63.969 -45.747  1.00  0.00     0.030 A 
HETATM   28  C   UNL     1     -44.726  64.052 -44.424  1.00  0.00     0.009 A 
HETATM   29  C   UNL     1     -44.317  62.906 -43.735  1.00  0.00    -0.062 A 
HETATM   30  C   UNL     1     -43.857  63.005 -42.312  1.00  0.00     0.048 C 
HETATM   31  C   UNL     1     -44.386  61.668 -44.382  1.00  0.00     0.009 A 
HETATM   32  C   UNL     1     -44.829  61.587 -45.705  1.00  0.00     0.030 A 
ENDBRANCH  23  26
ENDBRANCH  21  22
ENDBRANCH  20  21
ENDBRANCH   6  20
BRANCH   2  33
HETATM   33  C   UNL     1     -41.019  58.686 -53.052  1.00  0.00     0.255 C 
HETATM   34  N   UNL     1     -41.723  57.497 -53.033  1.00  0.00    -0.323 N 
HETATM   35  H   UNL     1     -42.712  57.547 -52.831  1.00  0.00     0.169 HD
HETATM   36  O   UNL     1     -39.827  58.803 -53.295  1.00  0.00    -0.268 OA
BRANCH  34  37
HETATM   37  C   UNL     1     -41.232  56.227 -53.414  1.00  0.00     0.035 A 
HETATM   38  C   UNL     1     -40.916  55.873 -54.727  1.00  0.00     0.029 A 
HETATM   39  C   UNL     1     -40.465  54.585 -55.031  1.00  0.00     0.002 A 
HETATM   40  C   UNL     1     -40.332  53.634 -54.024  1.00  0.00     0.000 A 
HETATM   41  C   UNL     1     -40.637  53.976 -52.709  1.00  0.00     0.002 A 
HETATM   42  C   UNL     1     -41.075  55.269 -52.403  1.00  0.00     0.029 A 
ENDBRANCH  34  37
ENDBRANCH   2  33
TORSDOF 9
ENDMDL
MODEL 10
REMARK VINA RESULT:      -7.8      4.091      7.698
REMARK  9 active torsions:
REMARK  status: ('A' for Active; 'I' for Inactive)
REMARK    1  A    between atoms: C_2  and  O_3 
REMARK    2  A    between atoms: O_3  and  C_4 
REMARK    3  A    between atoms: C_5  and  C_6 
REMARK    4  A    between atoms: C_7  and  C_8 
REMARK       I    between atoms: C_8  and  N_9 
REMARK    5  A    between atoms: N_9  and  C_10 
REMARK    6  A    between atoms: C_20  and  S_21 
REMARK    7  A    between atoms: S_21  and  C_22 
REMARK    8  A    between atoms: C_22  and  C_23 
REMARK       I    between atoms: C_23  and  N_24 
REMARK    9  A    between atoms: N_24  and  C_25 
ROOT
HETATM    1  C   UNL     1     -41.000  56.560 -52.563  1.00  0.00     0.107 C 
HETATM    2  C   UNL     1     -41.136  55.580 -51.389  1.00  0.00     0.046 C 
HETATM    3  C   UNL     1     -41.212  56.042 -50.119  1.00  0.00     0.019 C 
HETATM    4  C   UNL     1     -41.570  55.199 -48.917  1.00  0.00     0.069 C 
HETATM    5  N   UNL     1     -41.040  57.395 -49.856  1.00  0.00    -0.353 N 
HETATM    6  C   UNL     1     -41.048  58.392 -50.820  1.00  0.00     0.087 C 
HETATM    7  C   UNL     1     -40.994  58.051 -52.132  1.00  0.00     0.055 C 
HETATM    8  C   UNL     1     -41.381  59.042 -53.217  1.00  0.00     0.019 C 
HETATM    9  N   UNL     1     -41.701  59.865 -54.117  1.00  0.00    -0.096 N 
HETATM   10  H   UNL     1     -41.396  57.705 -48.955  1.00  0.00     0.166 HD
ENDROOT
BRANCH   1  11
HETATM   11  C   UNL     1     -42.050  56.337 -53.670  1.00  0.00    -0.011 A 
HETATM   12  C   UNL     1     -41.703  55.828 -54.942  1.00  0.00     0.076 A 
HETATM   13  C   UNL     1     -42.704  55.584 -55.888  1.00  0.00     0.037 A 
HETATM   14  C   UNL     1     -44.044  55.827 -55.578  1.00  0.00     0.003 A 
HETATM   15  C   UNL     1     -44.394  56.326 -54.328  1.00  0.00     0.001 A 
HETATM   16  C   UNL     1     -43.406  56.582 -53.379  1.00  0.00     0.011 A 
BRANCH  12  17
HETATM   17  O   UNL     1     -40.369  55.597 -55.157  1.00  0.00    -0.351 OA
BRANCH  17  18
HETATM   18  C   UNL     1     -39.923  54.243 -55.139  1.00  0.00     0.171 C 
HETATM   19  C   UNL     1     -41.151  53.352 -55.195  1.00  0.00     0.034 C 
ENDBRANCH  17  18
ENDBRANCH  12  17
ENDBRANCH   1  11
BRANCH   6  20
HETATM   20  S   UNL     1     -41.364  60.058 -50.350  1.00  0.00    -0.102 SA
BRANCH  20  21
HETATM   21  C   UNL     1     -43.155  60.203 -50.610  1.00  0.00     0.184 C 
BRANCH  21  22
HETATM   22  C   UNL     1     -43.778  61.350 -49.831  1.00  0.00     0.231 C 
HETATM   23  N   UNL     1     -44.806  60.958 -48.992  1.00  0.00    -0.327 N 
HETATM   24  H   UNL     1     -45.174  60.025 -49.151  1.00  0.00     0.169 HD
HETATM   25  O   UNL     1     -43.301  62.479 -49.916  1.00  0.00    -0.272 OA
BRANCH  23  26
HETATM   26  C   UNL     1     -45.439  61.713 -47.987  1.00  0.00     0.034 A 
HETATM   27  C   UNL     1     -46.546  62.531 -48.213  1.00  0.00     0.030 A 
HETATM   28  C   UNL     1     -47.089  63.288 -47.169  1.00  0.00     0.009 A 
HETATM   29  C   UNL     1     -46.532  63.241 -45.887  1.00  0.00    -0.062 A 
HETATM   30  C   UNL     1     -47.136  64.042 -44.773  1.00  0.00     0.048 C 
HETATM   31  C   UNL     1     -45.436  62.405 -45.657  1.00  0.00     0.009 A 
HETATM   32  C   UNL     1     -44.891  61.652 -46.702  1.00  0.00     0.030 A 
ENDBRANCH  23  26
ENDBRANCH  21  22
ENDBRANCH  20  21
ENDBRANCH   6  20
BRANCH   2  33
HETATM   33  C   UNL     1     -41.261  54.119 -51.718  1.00  0.00     0.255 C 
HETATM   34  N   UNL     1     -40.057  53.440 -51.695  1.00  0.00    -0.323 N 
HETATM   35  H   UNL     1     -39.231  53.969 -51.449  1.00  0.00     0.169 HD
HETATM   36  O   UNL     1     -42.350  53.627 -51.978  1.00  0.00    -0.268 OA
BRANCH  34  37
HETATM   37  C   UNL     1     -39.879  52.045 -51.836  1.00  0.00     0.035 A 
HETATM   38  C   UNL     1     -39.657  51.406 -53.058  1.00  0.00     0.029 A 
HETATM   39  C   UNL     1     -39.522  50.016 -53.122  1.00  0.00     0.002 A 
HETATM   40  C   UNL     1     -39.617  49.249 -51.965  1.00  0.00     0.000 A 
HETATM   41  C   UNL     1     -39.832  49.874 -50.740  1.00  0.00     0.002 A 
HETATM   42  C   UNL     1     -39.953  51.266 -50.674  1.00  0.00     0.029 A 
ENDBRANCH  34  37
ENDBRANCH   2  33
TORSDOF 9
ENDMDL
