MODEL 1
REMARK VINA RESULT:      -8.1      0.000      0.000
REMARK  6 active torsions:
REMARK  status: ('A' for Active; 'I' for Inactive)
REMARK    1  A    between atoms: N_6  and  C_7 
REMARK    2  A    between atoms: C_8  and  N_9 
REMARK    3  A    between atoms: C_10  and  N_11 
REMARK       I    between atoms: N_11  and  C_12 
REMARK    4  A    between atoms: C_12  and  C_13 
REMARK    5  A    between atoms: C_14  and  C_15 
REMARK    6  A    between atoms: C_17  and  C_18 
ROOT
HETATM    1  N   UNL     1     -45.536  57.651 -56.611  1.00  0.00    -0.300 N 
HETATM    2  C   UNL     1     -44.867  58.053 -55.466  1.00  0.00     0.247 C 
HETATM    3  O   UNL     1     -45.042  59.118 -54.888  1.00  0.00    -0.268 OA
HETATM    4  H   UNL     1     -45.488  56.671 -56.849  1.00  0.00     0.171 HD
ENDROOT
BRANCH   1   5
HETATM    5  C   UNL     1     -46.020  58.454 -57.616  1.00  0.00     0.179 C 
HETATM    6  N   UNL     1     -45.157  58.794 -58.619  1.00  0.00    -0.331 N 
HETATM    7  H   UNL     1     -45.528  59.509 -59.241  1.00  0.00     0.168 HD
HETATM    8  S   UNL     1     -47.535  59.163 -57.679  1.00  0.00    -0.040 SA
BRANCH   6   9
HETATM    9  C   UNL     1     -43.957  58.228 -59.104  1.00  0.00     0.061 A 
HETATM   10  C   UNL     1     -42.936  59.147 -59.496  1.00  0.00     0.057 A 
HETATM   11  C   UNL     1     -41.796  58.623 -60.125  1.00  0.00     0.031 A 
HETATM   12  C   UNL     1     -41.640  57.249 -60.322  1.00  0.00     0.002 A 
HETATM   13  C   UNL     1     -42.637  56.369 -59.920  1.00  0.00     0.002 A 
HETATM   14  C   UNL     1     -43.800  56.855 -59.326  1.00  0.00     0.032 A 
BRANCH  10  15
HETATM   15  N   UNL     1     -43.102  60.526 -59.255  1.00  0.00    -0.376 N 
HETATM   16  C   UNL     1     -43.168  61.468 -60.392  1.00  0.00     0.150 C 
HETATM   17  C   UNL     1     -41.801  62.107 -60.729  1.00  0.00     0.254 C 
HETATM   18  N   UNL     1     -41.130  62.670 -59.480  1.00  0.00    -0.072 N 
HETATM   19  C   UNL     1     -39.799  63.288 -59.786  1.00  0.00     0.269 C 
HETATM   20  H   UNL     1     -41.743  63.413 -59.118  1.00  0.00     0.279 HD
HETATM   21  C   UNL     1     -41.022  61.605 -58.391  1.00  0.00     0.254 C 
HETATM   22  C   UNL     1     -42.415  61.045 -58.050  1.00  0.00     0.150 C 
ENDBRANCH  10  15
ENDBRANCH   6   9
ENDBRANCH   1   5
BRANCH   2  23
HETATM   23  C   UNL     1     -44.039  56.975 -54.866  1.00  0.00     0.077 C 
HETATM   24  C   UNL     1     -42.854  56.711 -55.434  1.00  0.00     0.042 C 
BRANCH  24  25
HETATM   25  C   UNL     1     -42.004  55.673 -54.966  1.00  0.00     0.076 A 
HETATM   26  O   UNL     1     -41.832  55.326 -53.643  1.00  0.00    -0.310 OA
HETATM   27  C   UNL     1     -40.997  54.245 -53.580  1.00  0.00     0.086 A 
HETATM   28  C   UNL     1     -40.580  53.913 -54.850  1.00  0.00     0.041 A 
HETATM   29  C   UNL     1     -41.229  54.809 -55.728  1.00  0.00     0.040 A 
BRANCH  27  30
HETATM   30  C   UNL     1     -40.741  53.681 -52.256  1.00  0.00     0.001 A 
HETATM   31  C   UNL     1     -40.919  54.443 -51.093  1.00  0.00     0.038 A 
HETATM   32  C   UNL     1     -40.715  53.873 -49.834  1.00  0.00     0.036 A 
HETATM   33 CL   UNL     1     -40.950  54.828 -48.421  1.00  0.00    -0.084 Cl
HETATM   34  C   UNL     1     -40.331  52.542 -49.708  1.00  0.00     0.047 A 
HETATM   35  C   UNL     1     -40.147  51.782 -50.858  1.00  0.00     0.036 A 
HETATM   36 CL   UNL     1     -39.669  50.134 -50.723  1.00  0.00    -0.084 Cl
HETATM   37  C   UNL     1     -40.350  52.340 -52.122  1.00  0.00     0.038 A 
ENDBRANCH  27  30
ENDBRANCH  24  25
ENDBRANCH   2  23
TORSDOF 6
ENDMDL
MODEL 2
REMARK VINA RESULT:      -8.1      2.851      4.402
REMARK  6 active torsions:
REMARK  status: ('A' for Active; 'I' for Inactive)
REMARK    1  A    between atoms: N_6  and  C_7 
REMARK    2  A    between atoms: C_8  and  N_9 
REMARK    3  A    between atoms: C_10  and  N_11 
REMARK       I    between atoms: N_11  and  C_12 
REMARK    4  A    between atoms: C_12  and  C_13 
REMARK    5  A    between atoms: C_14  and  C_15 
REMARK    6  A    between atoms: C_17  and  C_18 
ROOT
HETATM    1  N   UNL     1     -43.188  59.828 -58.294  1.00  0.00    -0.300 N 
HETATM    2  C   UNL     1     -42.040  59.679 -57.533  1.00  0.00     0.247 C 
HETATM    3  O   UNL     1     -41.036  60.372 -57.631  1.00  0.00    -0.268 OA
HETATM    4  H   UNL     1     -44.022  59.370 -57.960  1.00  0.00     0.171 HD
ENDROOT
BRANCH   1   5
HETATM    5  C   UNL     1     -43.272  60.283 -59.588  1.00  0.00     0.179 C 
HETATM    6  N   UNL     1     -43.774  59.424 -60.524  1.00  0.00    -0.331 N 
HETATM    7  H   UNL     1     -43.665  59.763 -61.479  1.00  0.00     0.168 HD
HETATM    8  S   UNL     1     -42.710  61.750 -60.165  1.00  0.00    -0.040 SA
BRANCH   6   9
HETATM    9  C   UNL     1     -44.593  58.274 -60.452  1.00  0.00     0.061 A 
HETATM   10  C   UNL     1     -46.002  58.501 -60.420  1.00  0.00     0.057 A 
HETATM   11  C   UNL     1     -46.834  57.394 -60.193  1.00  0.00     0.031 A 
HETATM   12  C   UNL     1     -46.310  56.108 -60.047  1.00  0.00     0.002 A 
HETATM   13  C   UNL     1     -44.937  55.904 -60.097  1.00  0.00     0.002 A 
HETATM   14  C   UNL     1     -44.077  56.984 -60.284  1.00  0.00     0.032 A 
BRANCH  10  15
HETATM   15  N   UNL     1     -46.509  59.804 -60.603  1.00  0.00    -0.376 N 
HETATM   16  C   UNL     1     -47.101  60.530 -59.460  1.00  0.00     0.150 C 
HETATM   17  C   UNL     1     -48.638  60.383 -59.381  1.00  0.00     0.254 C 
HETATM   18  N   UNL     1     -49.293  60.681 -60.726  1.00  0.00    -0.072 N 
HETATM   19  C   UNL     1     -50.784  60.538 -60.672  1.00  0.00     0.269 C 
HETATM   20  H   UNL     1     -49.082  61.663 -60.953  1.00  0.00     0.279 HD
HETATM   21  C   UNL     1     -48.682  59.824 -61.833  1.00  0.00     0.254 C 
HETATM   22  C   UNL     1     -47.162  60.051 -61.909  1.00  0.00     0.150 C 
ENDBRANCH  10  15
ENDBRANCH   6   9
ENDBRANCH   1   5
BRANCH   2  23
HETATM   23  C   UNL     1     -42.204  58.710 -56.417  1.00  0.00     0.077 C 
HETATM   24  C   UNL     1     -42.492  57.440 -56.734  1.00  0.00     0.042 C 
BRANCH  24  25
HETATM   25  C   UNL     1     -42.710  56.443 -55.745  1.00  0.00     0.076 A 
HETATM   26  O   UNL     1     -41.743  55.594 -55.248  1.00  0.00    -0.310 OA
HETATM   27  C   UNL     1     -42.303  54.821 -54.269  1.00  0.00     0.086 A 
HETATM   28  C   UNL     1     -43.641  55.123 -54.156  1.00  0.00     0.041 A 
HETATM   29  C   UNL     1     -43.895  56.159 -55.081  1.00  0.00     0.040 A 
BRANCH  27  30
HETATM   30  C   UNL     1     -41.415  53.896 -53.568  1.00  0.00     0.001 A 
HETATM   31  C   UNL     1     -41.007  54.135 -52.249  1.00  0.00     0.038 A 
HETATM   32  C   UNL     1     -40.196  53.215 -51.580  1.00  0.00     0.036 A 
HETATM   33 CL   UNL     1     -39.717  53.528 -49.956  1.00  0.00    -0.084 Cl
HETATM   34  C   UNL     1     -39.776  52.046 -52.207  1.00  0.00     0.047 A 
HETATM   35  C   UNL     1     -40.172  51.806 -53.518  1.00  0.00     0.036 A 
HETATM   36 CL   UNL     1     -39.661  50.367 -54.313  1.00  0.00    -0.084 Cl
HETATM   37  C   UNL     1     -40.985  52.716 -54.196  1.00  0.00     0.038 A 
ENDBRANCH  27  30
ENDBRANCH  24  25
ENDBRANCH   2  23
TORSDOF 6
ENDMDL
MODEL 3
REMARK VINA RESULT:      -8.0      2.718      4.180
REMARK  6 active torsions:
REMARK  status: ('A' for Active; 'I' for Inactive)
REMARK    1  A    between atoms: N_6  and  C_7 
REMARK    2  A    between atoms: C_8  and  N_9 
REMARK    3  A    between atoms: C_10  and  N_11 
REMARK       I    between atoms: N_11  and  C_12 
REMARK    4  A    between atoms: C_12  and  C_13 
REMARK    5  A    between atoms: C_14  and  C_15 
REMARK    6  A    between atoms: C_17  and  C_18 
ROOT
HETATM    1  N   UNL     1     -42.512  58.044 -59.460  1.00  0.00    -0.300 N 
HETATM    2  C   UNL     1     -42.840  56.701 -59.555  1.00  0.00     0.247 C 
HETATM    3  O   UNL     1     -43.030  56.097 -60.603  1.00  0.00    -0.268 OA
HETATM    4  H   UNL     1     -42.144  58.364 -58.577  1.00  0.00     0.171 HD
ENDROOT
BRANCH   1   5
HETATM    5  C   UNL     1     -42.886  59.053 -60.316  1.00  0.00     0.179 C 
HETATM    6  N   UNL     1     -44.222  59.304 -60.445  1.00  0.00    -0.331 N 
HETATM    7  H   UNL     1     -44.436  59.950 -61.203  1.00  0.00     0.168 HD
HETATM    8  S   UNL     1     -41.872  59.935 -61.314  1.00  0.00    -0.040 SA
BRANCH   6   9
HETATM    9  C   UNL     1     -45.347  59.033 -59.634  1.00  0.00     0.061 A 
HETATM   10  C   UNL     1     -45.540  59.893 -58.511  1.00  0.00     0.057 A 
HETATM   11  C   UNL     1     -46.555  59.557 -57.601  1.00  0.00     0.031 A 
HETATM   12  C   UNL     1     -47.378  58.447 -57.807  1.00  0.00     0.002 A 
HETATM   13  C   UNL     1     -47.185  57.631 -58.914  1.00  0.00     0.002 A 
HETATM   14  C   UNL     1     -46.163  57.912 -59.819  1.00  0.00     0.032 A 
BRANCH  10  15
HETATM   15  N   UNL     1     -44.719  61.026 -58.343  1.00  0.00    -0.376 N 
HETATM   16  C   UNL     1     -43.773  61.088 -57.209  1.00  0.00     0.150 C 
HETATM   17  C   UNL     1     -44.348  61.828 -55.980  1.00  0.00     0.254 C 
HETATM   18  N   UNL     1     -44.947  63.175 -56.376  1.00  0.00    -0.072 N 
HETATM   19  C   UNL     1     -45.517  63.906 -55.198  1.00  0.00     0.269 C 
HETATM   20  H   UNL     1     -44.180  63.745 -56.757  1.00  0.00     0.279 HD
HETATM   21  C   UNL     1     -45.978  63.007 -57.490  1.00  0.00     0.254 C 
HETATM   22  C   UNL     1     -45.341  62.319 -58.711  1.00  0.00     0.150 C 
ENDBRANCH  10  15
ENDBRANCH   6   9
ENDBRANCH   1   5
BRANCH   2  23
HETATM   23  C   UNL     1     -42.743  55.984 -58.257  1.00  0.00     0.077 C 
HETATM   24  C   UNL     1     -43.287  56.570 -57.181  1.00  0.00     0.042 C 
BRANCH  24  25
HETATM   25  C   UNL     1     -43.214  55.992 -55.885  1.00  0.00     0.076 A 
HETATM   26  O   UNL     1     -42.309  55.026 -55.499  1.00  0.00    -0.310 OA
HETATM   27  C   UNL     1     -42.494  54.761 -54.170  1.00  0.00     0.086 A 
HETATM   28  C   UNL     1     -43.547  55.511 -53.696  1.00  0.00     0.041 A 
HETATM   29  C   UNL     1     -43.993  56.299 -54.779  1.00  0.00     0.040 A 
BRANCH  27  30
HETATM   30  C   UNL     1     -41.578  53.804 -53.552  1.00  0.00     0.001 A 
HETATM   31  C   UNL     1     -41.165  52.649 -54.230  1.00  0.00     0.038 A 
HETATM   32  C   UNL     1     -40.253  51.770 -53.641  1.00  0.00     0.036 A 
HETATM   33 CL   UNL     1     -39.754  50.363 -54.500  1.00  0.00    -0.084 Cl
HETATM   34  C   UNL     1     -39.739  52.020 -52.373  1.00  0.00     0.047 A 
HETATM   35  C   UNL     1     -40.149  53.161 -51.693  1.00  0.00     0.036 A 
HETATM   36 CL   UNL     1     -39.526  53.487 -50.121  1.00  0.00    -0.084 Cl
HETATM   37  C   UNL     1     -41.058  54.048 -52.271  1.00  0.00     0.038 A 
ENDBRANCH  27  30
ENDBRANCH  24  25
ENDBRANCH   2  23
TORSDOF 6
ENDMDL
MODEL 4
REMARK VINA RESULT:      -7.9      2.030      3.203
REMARK  6 active torsions:
REMARK  status: ('A' for Active; 'I' for Inactive)
REMARK    1  A    between atoms: N_6  and  C_7 
REMARK    2  A    between atoms: C_8  and  N_9 
REMARK    3  A    between atoms: C_10  and  N_11 
REMARK       I    between atoms: N_11  and  C_12 
REMARK    4  A    between atoms: C_12  and  C_13 
REMARK    5  A    between atoms: C_14  and  C_15 
REMARK    6  A    between atoms: C_17  and  C_18 
ROOT
HETATM    1  N   UNL     1     -46.861  57.130 -58.868  1.00  0.00    -0.300 N 
HETATM    2  C   UNL     1     -46.977  58.254 -58.066  1.00  0.00     0.247 C 
HETATM    3  O   UNL     1     -47.558  59.285 -58.381  1.00  0.00    -0.268 OA
HETATM    4  H   UNL     1     -46.581  56.272 -58.416  1.00  0.00     0.171 HD
ENDROOT
BRANCH   1   5
HETATM    5  C   UNL     1     -46.803  57.091 -60.240  1.00  0.00     0.179 C 
HETATM    6  N   UNL     1     -45.605  57.386 -60.827  1.00  0.00    -0.331 N 
HETATM    7  H   UNL     1     -45.669  57.492 -61.838  1.00  0.00     0.168 HD
HETATM    8  S   UNL     1     -48.087  56.832 -61.283  1.00  0.00    -0.040 SA
BRANCH   6   9
HETATM    9  C   UNL     1     -44.268  57.373 -60.371  1.00  0.00     0.061 A 
HETATM   10  C   UNL     1     -43.577  58.622 -60.395  1.00  0.00     0.057 A 
HETATM   11  C   UNL     1     -42.206  58.614 -60.097  1.00  0.00     0.031 A 
HETATM   12  C   UNL     1     -41.545  57.435 -59.745  1.00  0.00     0.002 A 
HETATM   13  C   UNL     1     -42.237  56.231 -59.711  1.00  0.00     0.002 A 
HETATM   14  C   UNL     1     -43.591  56.194 -60.037  1.00  0.00     0.032 A 
BRANCH  10  15
HETATM   15  N   UNL     1     -44.273  59.804 -60.721  1.00  0.00    -0.376 N 
HETATM   16  C   UNL     1     -43.974  60.510 -61.984  1.00  0.00     0.150 C 
HETATM   17  C   UNL     1     -42.943  61.649 -61.812  1.00  0.00     0.254 C 
HETATM   18  N   UNL     1     -43.321  62.565 -60.651  1.00  0.00    -0.072 N 
HETATM   19  C   UNL     1     -42.329  63.674 -60.463  1.00  0.00     0.269 C 
HETATM   20  H   UNL     1     -44.226  62.993 -60.887  1.00  0.00     0.279 HD
HETATM   21  C   UNL     1     -43.523  61.764 -59.367  1.00  0.00     0.254 C 
HETATM   22  C   UNL     1     -44.600  60.683 -59.574  1.00  0.00     0.150 C 
ENDBRANCH  10  15
ENDBRANCH   6   9
ENDBRANCH   1   5
BRANCH   2  23
HETATM   23  C   UNL     1     -46.497  58.031 -56.677  1.00  0.00     0.077 C 
HETATM   24  C   UNL     1     -45.181  57.860 -56.494  1.00  0.00     0.042 C 
BRANCH  24  25
HETATM   25  C   UNL     1     -44.622  57.598 -55.213  1.00  0.00     0.076 A 
HETATM   26  O   UNL     1     -43.853  56.499 -54.895  1.00  0.00    -0.310 OA
HETATM   27  C   UNL     1     -43.439  56.618 -53.597  1.00  0.00     0.086 A 
HETATM   28  C   UNL     1     -43.973  57.761 -53.048  1.00  0.00     0.041 A 
HETATM   29  C   UNL     1     -44.712  58.388 -54.076  1.00  0.00     0.040 A 
BRANCH  27  30
HETATM   30  C   UNL     1     -42.550  55.576 -53.088  1.00  0.00     0.001 A 
HETATM   31  C   UNL     1     -42.271  54.425 -53.838  1.00  0.00     0.038 A 
HETATM   32  C   UNL     1     -41.382  53.462 -53.355  1.00  0.00     0.036 A 
HETATM   33 CL   UNL     1     -41.049  52.062 -54.301  1.00  0.00    -0.084 Cl
HETATM   34  C   UNL     1     -40.757  53.622 -52.122  1.00  0.00     0.047 A 
HETATM   35  C   UNL     1     -41.034  54.759 -51.370  1.00  0.00     0.036 A 
HETATM   36 CL   UNL     1     -40.273  54.975 -49.841  1.00  0.00    -0.084 Cl
HETATM   37  C   UNL     1     -41.919  55.730 -51.843  1.00  0.00     0.038 A 
ENDBRANCH  27  30
ENDBRANCH  24  25
ENDBRANCH   2  23
TORSDOF 6
ENDMDL
MODEL 5
REMARK VINA RESULT:      -7.9      2.551      4.260
REMARK  6 active torsions:
REMARK  status: ('A' for Active; 'I' for Inactive)
REMARK    1  A    between atoms: N_6  and  C_7 
REMARK    2  A    between atoms: C_8  and  N_9 
REMARK    3  A    between atoms: C_10  and  N_11 
REMARK       I    between atoms: N_11  and  C_12 
REMARK    4  A    between atoms: C_12  and  C_13 
REMARK    5  A    between atoms: C_14  and  C_15 
REMARK    6  A    between atoms: C_17  and  C_18 
ROOT
HETATM    1  N   UNL     1     -44.611  57.022 -59.010  1.00  0.00    -0.300 N 
HETATM    2  C   UNL     1     -43.602  56.111 -59.277  1.00  0.00     0.247 C 
HETATM    3  O   UNL     1     -43.219  55.792 -60.395  1.00  0.00    -0.268 OA
HETATM    4  H   UNL     1     -44.667  57.382 -58.069  1.00  0.00     0.171 HD
ENDROOT
BRANCH   1   5
HETATM    5  C   UNL     1     -45.716  57.286 -59.783  1.00  0.00     0.179 C 
HETATM    6  N   UNL     1     -46.016  58.596 -60.024  1.00  0.00    -0.331 N 
HETATM    7  H   UNL     1     -46.924  58.725 -60.467  1.00  0.00     0.168 HD
HETATM    8  S   UNL     1     -46.811  56.162 -60.369  1.00  0.00    -0.040 SA
BRANCH   6   9
HETATM    9  C   UNL     1     -45.262  59.791 -59.986  1.00  0.00     0.061 A 
HETATM   10  C   UNL     1     -45.473  60.638 -58.856  1.00  0.00     0.057 A 
HETATM   11  C   UNL     1     -44.858  61.899 -58.864  1.00  0.00     0.031 A 
HETATM   12  C   UNL     1     -44.033  62.299 -59.918  1.00  0.00     0.002 A 
HETATM   13  C   UNL     1     -43.826  61.455 -61.002  1.00  0.00     0.002 A 
HETATM   14  C   UNL     1     -44.450  60.210 -61.045  1.00  0.00     0.032 A 
BRANCH  10  15
HETATM   15  N   UNL     1     -46.284  60.198 -57.790  1.00  0.00    -0.376 N 
HETATM   16  C   UNL     1     -47.524  60.932 -57.457  1.00  0.00     0.150 C 
HETATM   17  C   UNL     1     -47.325  61.979 -56.338  1.00  0.00     0.254 C 
HETATM   18  N   UNL     1     -46.608  61.374 -55.135  1.00  0.00    -0.072 N 
HETATM   19  C   UNL     1     -46.400  62.376 -54.039  1.00  0.00     0.269 C 
HETATM   20  H   UNL     1     -47.214  60.629 -54.765  1.00  0.00     0.279 HD
HETATM   21  C   UNL     1     -45.295  60.716 -55.556  1.00  0.00     0.254 C 
HETATM   22  C   UNL     1     -45.554  59.642 -56.627  1.00  0.00     0.150 C 
ENDBRANCH  10  15
ENDBRANCH   6   9
ENDBRANCH   1   5
BRANCH   2  23
HETATM   23  C   UNL     1     -42.863  55.688 -58.058  1.00  0.00     0.077 C 
HETATM   24  C   UNL     1     -43.082  56.375 -56.928  1.00  0.00     0.042 C 
BRANCH  24  25
HETATM   25  C   UNL     1     -42.396  56.082 -55.719  1.00  0.00     0.076 A 
HETATM   26  O   UNL     1     -42.090  54.814 -55.269  1.00  0.00    -0.310 OA
HETATM   27  C   UNL     1     -41.373  54.925 -54.110  1.00  0.00     0.086 A 
HETATM   28  C   UNL     1     -41.251  56.253 -53.770  1.00  0.00     0.041 A 
HETATM   29  C   UNL     1     -41.888  56.986 -54.796  1.00  0.00     0.040 A 
BRANCH  27  30
HETATM   30  C   UNL     1     -40.893  53.682 -53.508  1.00  0.00     0.001 A 
HETATM   31  C   UNL     1     -40.459  52.609 -54.298  1.00  0.00     0.038 A 
HETATM   32  C   UNL     1     -39.960  51.448 -53.704  1.00  0.00     0.036 A 
HETATM   33 CL   UNL     1     -39.423  50.148 -54.698  1.00  0.00    -0.084 Cl
HETATM   34  C   UNL     1     -39.885  51.330 -52.320  1.00  0.00     0.047 A 
HETATM   35  C   UNL     1     -40.320  52.388 -51.530  1.00  0.00     0.036 A 
HETATM   36 CL   UNL     1     -40.239  52.261 -49.815  1.00  0.00    -0.084 Cl
HETATM   37  C   UNL     1     -40.819  53.555 -52.112  1.00  0.00     0.038 A 
ENDBRANCH  27  30
ENDBRANCH  24  25
ENDBRANCH   2  23
TORSDOF 6
ENDMDL
MODEL 6
REMARK VINA RESULT:      -7.8      4.519      6.610
REMARK  6 active torsions:
REMARK  status: ('A' for Active; 'I' for Inactive)
REMARK    1  A    between atoms: N_6  and  C_7 
REMARK    2  A    between atoms: C_8  and  N_9 
REMARK    3  A    between atoms: C_10  and  N_11 
REMARK       I    between atoms: N_11  and  C_12 
REMARK    4  A    between atoms: C_12  and  C_13 
REMARK    5  A    between atoms: C_14  and  C_15 
REMARK    6  A    between atoms: C_17  and  C_18 
ROOT
HETATM    1  N   UNL     1     -43.428  60.187 -55.534  1.00  0.00    -0.300 N 
HETATM    2  C   UNL     1     -44.626  59.493 -55.582  1.00  0.00     0.247 C 
HETATM    3  O   UNL     1     -45.720  59.994 -55.810  1.00  0.00    -0.268 OA
HETATM    4  H   UNL     1     -42.580  59.642 -55.584  1.00  0.00     0.171 HD
ENDROOT
BRANCH   1   5
HETATM    5  C   UNL     1     -43.239  61.492 -55.144  1.00  0.00     0.179 C 
HETATM    6  N   UNL     1     -43.016  61.724 -53.817  1.00  0.00    -0.331 N 
HETATM    7  H   UNL     1     -43.040  62.713 -53.574  1.00  0.00     0.168 HD
HETATM    8  S   UNL     1     -43.373  62.849 -56.115  1.00  0.00    -0.040 SA
BRANCH   6   9
HETATM    9  C   UNL     1     -42.555  60.920 -52.751  1.00  0.00     0.061 A 
HETATM   10  C   UNL     1     -43.004  61.280 -51.444  1.00  0.00     0.057 A 
HETATM   11  C   UNL     1     -42.443  60.600 -50.352  1.00  0.00     0.031 A 
HETATM   12  C   UNL     1     -41.512  59.575 -50.535  1.00  0.00     0.002 A 
HETATM   13  C   UNL     1     -41.098  59.227 -51.814  1.00  0.00     0.002 A 
HETATM   14  C   UNL     1     -41.605  59.906 -52.920  1.00  0.00     0.032 A 
BRANCH  10  15
HETATM   15  N   UNL     1     -43.971  62.295 -51.288  1.00  0.00    -0.376 N 
HETATM   16  C   UNL     1     -43.746  63.381 -50.311  1.00  0.00     0.150 C 
HETATM   17  C   UNL     1     -44.404  63.107 -48.939  1.00  0.00     0.254 C 
HETATM   18  N   UNL     1     -45.865  62.694 -49.100  1.00  0.00    -0.072 N 
HETATM   19  C   UNL     1     -46.520  62.417 -47.780  1.00  0.00     0.269 C 
HETATM   20  H   UNL     1     -46.356  63.488 -49.532  1.00  0.00     0.279 HD
HETATM   21  C   UNL     1     -45.996  61.510 -50.056  1.00  0.00     0.254 C 
HETATM   22  C   UNL     1     -45.378  61.855 -51.423  1.00  0.00     0.150 C 
ENDBRANCH  10  15
ENDBRANCH   6   9
ENDBRANCH   1   5
BRANCH   2  23
HETATM   23  C   UNL     1     -44.447  58.019 -55.532  1.00  0.00     0.077 C 
HETATM   24  C   UNL     1     -43.210  57.549 -55.319  1.00  0.00     0.042 C 
BRANCH  24  25
HETATM   25  C   UNL     1     -42.921  56.158 -55.295  1.00  0.00     0.076 A 
HETATM   26  O   UNL     1     -42.039  55.547 -54.428  1.00  0.00    -0.310 OA
HETATM   27  C   UNL     1     -42.070  54.198 -54.654  1.00  0.00     0.086 A 
HETATM   28  C   UNL     1     -42.928  53.928 -55.696  1.00  0.00     0.041 A 
HETATM   29  C   UNL     1     -43.477  55.167 -56.092  1.00  0.00     0.040 A 
BRANCH  27  30
HETATM   30  C   UNL     1     -41.246  53.363 -53.783  1.00  0.00     0.001 A 
HETATM   31  C   UNL     1     -40.726  52.139 -54.226  1.00  0.00     0.038 A 
HETATM   32  C   UNL     1     -39.902  51.376 -53.395  1.00  0.00     0.036 A 
HETATM   33 CL   UNL     1     -39.267  49.882 -53.968  1.00  0.00    -0.084 Cl
HETATM   34  C   UNL     1     -39.583  51.812 -52.113  1.00  0.00     0.047 A 
HETATM   35  C   UNL     1     -40.101  53.022 -51.665  1.00  0.00     0.036 A 
HETATM   36 CL   UNL     1     -39.720  53.578 -50.081  1.00  0.00    -0.084 Cl
HETATM   37  C   UNL     1     -40.923  53.795 -52.487  1.00  0.00     0.038 A 
ENDBRANCH  27  30
ENDBRANCH  24  25
ENDBRANCH   2  23
TORSDOF 6
ENDMDL
MODEL 7
REMARK VINA RESULT:      -7.8      1.504      2.330
REMARK  6 active torsions:
REMARK  status: ('A' for Active; 'I' for Inactive)
REMARK    1  A    between atoms: N_6  and  C_7 
REMARK    2  A    between atoms: C_8  and  N_9 
REMARK    3  A    between atoms: C_10  and  N_11 
REMARK       I    between atoms: N_11  and  C_12 
REMARK    4  A    between atoms: C_12  and  C_13 
REMARK    5  A    between atoms: C_14  and  C_15 
REMARK    6  A    between atoms: C_17  and  C_18 
ROOT
HETATM    1  N   UNL     1     -45.867  59.097 -56.731  1.00  0.00    -0.300 N 
HETATM    2  C   UNL     1     -45.422  60.092 -55.876  1.00  0.00     0.247 C 
HETATM    3  O   UNL     1     -45.906  61.214 -55.790  1.00  0.00    -0.268 OA
HETATM    4  H   UNL     1     -45.558  58.156 -56.538  1.00  0.00     0.171 HD
ENDROOT
BRANCH   1   5
HETATM    5  C   UNL     1     -46.444  59.261 -57.967  1.00  0.00     0.179 C 
HETATM    6  N   UNL     1     -45.662  59.027 -59.061  1.00  0.00    -0.331 N 
HETATM    7  H   UNL     1     -46.098  59.315 -59.935  1.00  0.00     0.168 HD
HETATM    8  S   UNL     1     -47.986  59.838 -58.276  1.00  0.00    -0.040 SA
BRANCH   6   9
HETATM    9  C   UNL     1     -44.476  58.288 -59.271  1.00  0.00     0.061 A 
HETATM   10  C   UNL     1     -43.295  59.046 -59.533  1.00  0.00     0.057 A 
HETATM   11  C   UNL     1     -42.137  58.342 -59.897  1.00  0.00     0.031 A 
HETATM   12  C   UNL     1     -42.123  56.946 -59.958  1.00  0.00     0.002 A 
HETATM   13  C   UNL     1     -43.278  56.225 -59.684  1.00  0.00     0.002 A 
HETATM   14  C   UNL     1     -44.456  56.892 -59.355  1.00  0.00     0.032 A 
BRANCH  10  15
HETATM   15  N   UNL     1     -43.325  60.452 -59.432  1.00  0.00    -0.376 N 
HETATM   16  C   UNL     1     -43.085  61.281 -60.632  1.00  0.00     0.150 C 
HETATM   17  C   UNL     1     -41.612  61.730 -60.773  1.00  0.00     0.254 C 
HETATM   18  N   UNL     1     -41.091  62.335 -59.473  1.00  0.00    -0.072 N 
HETATM   19  C   UNL     1     -39.662  62.772 -59.587  1.00  0.00     0.269 C 
HETATM   20  H   UNL     1     -41.659  63.173 -59.282  1.00  0.00     0.279 HD
HETATM   21  C   UNL     1     -41.298  61.376 -58.302  1.00  0.00     0.254 C 
HETATM   22  C   UNL     1     -42.787  61.007 -58.169  1.00  0.00     0.150 C 
ENDBRANCH  10  15
ENDBRANCH   6   9
ENDBRANCH   1   5
BRANCH   2  23
HETATM   23  C   UNL     1     -44.410  59.612 -54.900  1.00  0.00     0.077 C 
HETATM   24  C   UNL     1     -43.487  58.743 -55.337  1.00  0.00     0.042 C 
BRANCH  24  25
HETATM   25  C   UNL     1     -42.501  58.189 -54.478  1.00  0.00     0.076 A 
HETATM   26  O   UNL     1     -42.448  56.870 -54.080  1.00  0.00    -0.310 OA
HETATM   27  C   UNL     1     -41.329  56.690 -53.313  1.00  0.00     0.086 A 
HETATM   28  C   UNL     1     -40.677  57.893 -53.165  1.00  0.00     0.041 A 
HETATM   29  C   UNL     1     -41.412  58.839 -53.914  1.00  0.00     0.040 A 
BRANCH  27  30
HETATM   30  C   UNL     1     -41.058  55.332 -52.847  1.00  0.00     0.001 A 
HETATM   31  C   UNL     1     -40.822  54.285 -53.748  1.00  0.00     0.038 A 
HETATM   32  C   UNL     1     -40.518  53.004 -53.283  1.00  0.00     0.036 A 
HETATM   33 CL   UNL     1     -40.222  51.737 -54.412  1.00  0.00    -0.084 Cl
HETATM   34  C   UNL     1     -40.445  52.739 -51.919  1.00  0.00     0.047 A 
HETATM   35  C   UNL     1     -40.684  53.772 -51.019  1.00  0.00     0.036 A 
HETATM   36 CL   UNL     1     -40.601  53.465 -49.327  1.00  0.00    -0.084 Cl
HETATM   37  C   UNL     1     -40.986  55.057 -51.472  1.00  0.00     0.038 A 
ENDBRANCH  27  30
ENDBRANCH  24  25
ENDBRANCH   2  23
TORSDOF 6
ENDMDL
MODEL 8
REMARK VINA RESULT:      -7.7      2.157      3.788
REMARK  6 active torsions:
REMARK  status: ('A' for Active; 'I' for Inactive)
REMARK    1  A    between atoms: N_6  and  C_7 
REMARK    2  A    between atoms: C_8  and  N_9 
REMARK    3  A    between atoms: C_10  and  N_11 
REMARK       I    between atoms: N_11  and  C_12 
REMARK    4  A    between atoms: C_12  and  C_13 
REMARK    5  A    between atoms: C_14  and  C_15 
REMARK    6  A    between atoms: C_17  and  C_18 
ROOT
HETATM    1  N   UNL     1     -45.054  59.929 -54.906  1.00  0.00    -0.300 N 
HETATM    2  C   UNL     1     -43.815  59.666 -54.343  1.00  0.00     0.247 C 
HETATM    3  O   UNL     1     -43.061  60.510 -53.879  1.00  0.00    -0.268 OA
HETATM    4  H   UNL     1     -45.678  59.146 -55.026  1.00  0.00     0.171 HD
ENDROOT
BRANCH   1   5
HETATM    5  C   UNL     1     -45.435  61.065 -55.580  1.00  0.00     0.179 C 
HETATM    6  N   UNL     1     -44.681  61.439 -56.656  1.00  0.00    -0.331 N 
HETATM    7  H   UNL     1     -44.921  62.363 -57.011  1.00  0.00     0.168 HD
HETATM    8  S   UNL     1     -46.668  62.111 -55.147  1.00  0.00    -0.040 SA
BRANCH   6   9
HETATM    9  C   UNL     1     -43.791  60.749 -57.509  1.00  0.00     0.061 A 
HETATM   10  C   UNL     1     -44.366  59.747 -58.348  1.00  0.00     0.057 A 
HETATM   11  C   UNL     1     -43.492  58.940 -59.092  1.00  0.00     0.031 A 
HETATM   12  C   UNL     1     -42.109  59.135 -59.050  1.00  0.00     0.002 A 
HETATM   13  C   UNL     1     -41.568  60.125 -58.239  1.00  0.00     0.002 A 
HETATM   14  C   UNL     1     -42.403  60.921 -57.458  1.00  0.00     0.032 A 
BRANCH  10  15
HETATM   15  N   UNL     1     -45.767  59.592 -58.400  1.00  0.00    -0.376 N 
HETATM   16  C   UNL     1     -46.388  58.346 -57.904  1.00  0.00     0.150 C 
HETATM   17  C   UNL     1     -46.641  57.310 -59.023  1.00  0.00     0.254 C 
HETATM   18  N   UNL     1     -47.358  57.943 -60.212  1.00  0.00    -0.072 N 
HETATM   19  C   UNL     1     -47.608  56.955 -61.311  1.00  0.00     0.269 C 
HETATM   20  H   UNL     1     -48.273  58.270 -59.872  1.00  0.00     0.279 HD
HETATM   21  C   UNL     1     -46.602  59.170 -60.715  1.00  0.00     0.254 C 
HETATM   22  C   UNL     1     -46.428  60.196 -59.580  1.00  0.00     0.150 C 
ENDBRANCH  10  15
ENDBRANCH   6   9
ENDBRANCH   1   5
BRANCH   2  23
HETATM   23  C   UNL     1     -43.555  58.214 -54.162  1.00  0.00     0.077 C 
HETATM   24  C   UNL     1     -43.025  57.544 -55.194  1.00  0.00     0.042 C 
BRANCH  24  25
HETATM   25  C   UNL     1     -42.776  56.146 -55.142  1.00  0.00     0.076 A 
HETATM   26  O   UNL     1     -41.886  55.531 -54.286  1.00  0.00    -0.310 OA
HETATM   27  C   UNL     1     -41.963  54.178 -54.474  1.00  0.00     0.086 A 
HETATM   28  C   UNL     1     -42.859  53.907 -55.483  1.00  0.00     0.041 A 
HETATM   29  C   UNL     1     -43.383  55.152 -55.896  1.00  0.00     0.040 A 
BRANCH  27  30
HETATM   30  C   UNL     1     -41.138  53.341 -53.606  1.00  0.00     0.001 A 
HETATM   31  C   UNL     1     -40.891  53.695 -52.273  1.00  0.00     0.038 A 
HETATM   32  C   UNL     1     -40.139  52.859 -51.444  1.00  0.00     0.036 A 
HETATM   33 CL   UNL     1     -39.860  53.312 -49.807  1.00  0.00    -0.084 Cl
HETATM   34  C   UNL     1     -39.620  51.661 -51.924  1.00  0.00     0.047 A 
HETATM   35  C   UNL     1     -39.856  51.306 -53.248  1.00  0.00     0.036 A 
HETATM   36 CL   UNL     1     -39.219  49.829 -53.861  1.00  0.00    -0.084 Cl
HETATM   37  C   UNL     1     -40.608  52.133 -54.085  1.00  0.00     0.038 A 
ENDBRANCH  27  30
ENDBRANCH  24  25
ENDBRANCH   2  23
TORSDOF 6
ENDMDL
MODEL 9
REMARK VINA RESULT:      -7.6      2.844      4.999
REMARK  6 active torsions:
REMARK  status: ('A' for Active; 'I' for Inactive)
REMARK    1  A    between atoms: N_6  and  C_7 
REMARK    2  A    between atoms: C_8  and  N_9 
REMARK    3  A    between atoms: C_10  and  N_11 
REMARK       I    between atoms: N_11  and  C_12 
REMARK    4  A    between atoms: C_12  and  C_13 
REMARK    5  A    between atoms: C_14  and  C_15 
REMARK    6  A    between atoms: C_17  and  C_18 
ROOT
HETATM    1  N   UNL     1     -42.244  59.517 -58.550  1.00  0.00    -0.300 N 
HETATM    2  C   UNL     1     -42.190  58.227 -59.054  1.00  0.00     0.247 C 
HETATM    3  O   UNL     1     -41.832  57.929 -60.186  1.00  0.00    -0.268 OA
HETATM    4  H   UNL     1     -42.314  59.614 -57.549  1.00  0.00     0.171 HD
ENDROOT
BRANCH   1   5
HETATM    5  C   UNL     1     -42.496  60.672 -59.251  1.00  0.00     0.179 C 
HETATM    6  N   UNL     1     -43.791  61.101 -59.308  1.00  0.00    -0.331 N 
HETATM    7  H   UNL     1     -43.931  61.867 -59.965  1.00  0.00     0.168 HD
HETATM    8  S   UNL     1     -41.390  61.552 -60.148  1.00  0.00    -0.040 SA
BRANCH   6   9
HETATM    9  C   UNL     1     -44.933  60.862 -58.510  1.00  0.00     0.061 A 
HETATM   10  C   UNL     1     -45.967  60.078 -59.105  1.00  0.00     0.057 A 
HETATM   11  C   UNL     1     -47.175  59.952 -58.401  1.00  0.00     0.031 A 
HETATM   12  C   UNL     1     -47.347  60.534 -57.143  1.00  0.00     0.002 A 
HETATM   13  C   UNL     1     -46.324  61.280 -56.573  1.00  0.00     0.002 A 
HETATM   14  C   UNL     1     -45.124  61.458 -57.259  1.00  0.00     0.032 A 
BRANCH  10  15
HETATM   15  N   UNL     1     -45.757  59.472 -60.361  1.00  0.00    -0.376 N 
HETATM   16  C   UNL     1     -46.477  59.974 -61.550  1.00  0.00     0.150 C 
HETATM   17  C   UNL     1     -47.777  59.191 -61.846  1.00  0.00     0.254 C 
HETATM   18  N   UNL     1     -47.527  57.685 -61.848  1.00  0.00    -0.072 N 
HETATM   19  C   UNL     1     -48.778  56.907 -62.127  1.00  0.00     0.269 C 
HETATM   20  H   UNL     1     -46.863  57.491 -62.609  1.00  0.00     0.279 HD
HETATM   21  C   UNL     1     -46.863  57.240 -60.547  1.00  0.00     0.254 C 
HETATM   22  C   UNL     1     -45.545  58.006 -60.329  1.00  0.00     0.150 C 
ENDBRANCH  10  15
ENDBRANCH   6   9
ENDBRANCH   1   5
BRANCH   2  23
HETATM   23  C   UNL     1     -42.419  57.187 -58.017  1.00  0.00     0.077 C 
HETATM   24  C   UNL     1     -42.704  57.600 -56.774  1.00  0.00     0.042 C 
BRANCH  24  25
HETATM   25  C   UNL     1     -42.898  56.691 -55.700  1.00  0.00     0.076 A 
HETATM   26  O   UNL     1     -41.964  55.778 -55.256  1.00  0.00    -0.310 OA
HETATM   27  C   UNL     1     -42.475  55.124 -54.169  1.00  0.00     0.086 A 
HETATM   28  C   UNL     1     -43.756  55.568 -53.928  1.00  0.00     0.041 A 
HETATM   29  C   UNL     1     -44.018  56.569 -54.889  1.00  0.00     0.040 A 
BRANCH  27  30
HETATM   30  C   UNL     1     -41.603  54.155 -53.509  1.00  0.00     0.001 A 
HETATM   31  C   UNL     1     -41.209  52.974 -54.151  1.00  0.00     0.038 A 
HETATM   32  C   UNL     1     -40.337  52.082 -53.522  1.00  0.00     0.036 A 
HETATM   33 CL   UNL     1     -39.859  50.642 -54.338  1.00  0.00    -0.084 Cl
HETATM   34  C   UNL     1     -39.844  52.345 -52.248  1.00  0.00     0.047 A 
HETATM   35  C   UNL     1     -40.237  53.512 -51.602  1.00  0.00     0.036 A 
HETATM   36 CL   UNL     1     -39.641  53.855 -50.024  1.00  0.00    -0.084 Cl
HETATM   37  C   UNL     1     -41.106  54.413 -52.222  1.00  0.00     0.038 A 
ENDBRANCH  27  30
ENDBRANCH  24  25
ENDBRANCH   2  23
TORSDOF 6
ENDMDL
MODEL 10
REMARK VINA RESULT:      -7.5      2.128      3.075
REMARK  6 active torsions:
REMARK  status: ('A' for Active; 'I' for Inactive)
REMARK    1  A    between atoms: N_6  and  C_7 
REMARK    2  A    between atoms: C_8  and  N_9 
REMARK    3  A    between atoms: C_10  and  N_11 
REMARK       I    between atoms: N_11  and  C_12 
REMARK    4  A    between atoms: C_12  and  C_13 
REMARK    5  A    between atoms: C_14  and  C_15 
REMARK    6  A    between atoms: C_17  and  C_18 
ROOT
HETATM    1  N   UNL     1     -44.014  60.680 -55.454  1.00  0.00    -0.300 N 
HETATM    2  C   UNL     1     -43.070  60.251 -54.535  1.00  0.00     0.247 C 
HETATM    3  O   UNL     1     -42.455  60.980 -53.766  1.00  0.00    -0.268 OA
HETATM    4  H   UNL     1     -44.620  59.977 -55.850  1.00  0.00     0.171 HD
ENDROOT
BRANCH   1   5
HETATM    5  C   UNL     1     -44.047  61.888 -56.107  1.00  0.00     0.179 C 
HETATM    6  N   UNL     1     -43.388  61.976 -57.301  1.00  0.00    -0.331 N 
HETATM    7  H   UNL     1     -43.321  62.930 -57.652  1.00  0.00     0.168 HD
HETATM    8  S   UNL     1     -44.718  63.311 -55.533  1.00  0.00    -0.040 SA
BRANCH   6   9
HETATM    9  C   UNL     1     -42.965  61.021 -58.252  1.00  0.00     0.061 A 
HETATM   10  C   UNL     1     -42.168  61.511 -59.331  1.00  0.00     0.057 A 
HETATM   11  C   UNL     1     -41.863  60.620 -60.371  1.00  0.00     0.031 A 
HETATM   12  C   UNL     1     -42.283  59.289 -60.336  1.00  0.00     0.002 A 
HETATM   13  C   UNL     1     -43.044  58.825 -59.270  1.00  0.00     0.002 A 
HETATM   14  C   UNL     1     -43.399  59.691 -58.237  1.00  0.00     0.032 A 
BRANCH  10  15
HETATM   15  N   UNL     1     -41.727  62.850 -59.327  1.00  0.00    -0.376 N 
HETATM   16  C   UNL     1     -42.028  63.726 -60.479  1.00  0.00     0.150 C 
HETATM   17  C   UNL     1     -40.882  63.779 -61.515  1.00  0.00     0.254 C 
HETATM   18  N   UNL     1     -39.541  64.059 -60.842  1.00  0.00    -0.072 N 
HETATM   19  C   UNL     1     -38.414  64.107 -61.830  1.00  0.00     0.269 C 
HETATM   20  H   UNL     1     -39.612  64.987 -60.403  1.00  0.00     0.279 HD
HETATM   21  C   UNL     1     -39.270  63.053 -59.725  1.00  0.00     0.254 C 
HETATM   22  C   UNL     1     -40.410  63.082 -58.691  1.00  0.00     0.150 C 
ENDBRANCH  10  15
ENDBRANCH   6   9
ENDBRANCH   1   5
BRANCH   2  23
HETATM   23  C   UNL     1     -43.005  58.771 -54.414  1.00  0.00     0.077 C 
HETATM   24  C   UNL     1     -42.326  58.099 -55.354  1.00  0.00     0.042 C 
BRANCH  24  25
HETATM   25  C   UNL     1     -42.238  56.681 -55.357  1.00  0.00     0.076 A 
HETATM   26  O   UNL     1     -41.494  55.932 -54.469  1.00  0.00    -0.310 OA
HETATM   27  C   UNL     1     -41.704  54.607 -54.735  1.00  0.00     0.086 A 
HETATM   28  C   UNL     1     -42.540  54.484 -55.821  1.00  0.00     0.041 A 
HETATM   29  C   UNL     1     -42.888  55.797 -56.206  1.00  0.00     0.040 A 
BRANCH  27  30
HETATM   30  C   UNL     1     -41.049  53.644 -53.852  1.00  0.00     0.001 A 
HETATM   31  C   UNL     1     -40.600  52.405 -54.329  1.00  0.00     0.038 A 
HETATM   32  C   UNL     1     -39.934  51.517 -53.481  1.00  0.00     0.036 A 
HETATM   33 CL   UNL     1     -39.383  50.006 -54.096  1.00  0.00    -0.084 Cl
HETATM   34  C   UNL     1     -39.706  51.841 -52.147  1.00  0.00     0.047 A 
HETATM   35  C   UNL     1     -40.155  53.065 -51.665  1.00  0.00     0.036 A 
HETATM   36 CL   UNL     1     -39.885  53.483 -50.017  1.00  0.00    -0.084 Cl
HETATM   37  C   UNL     1     -40.819  53.962 -52.504  1.00  0.00     0.038 A 
ENDBRANCH  27  30
ENDBRANCH  24  25
ENDBRANCH   2  23
TORSDOF 6
ENDMDL
