MODEL 1
REMARK VINA RESULT:      -7.3      0.000      0.000
REMARK  6 active torsions:
REMARK  status: ('A' for Active; 'I' for Inactive)
REMARK    1  A    between atoms: C_2  and  N_3 
REMARK    2  A    between atoms: C_2  and  C_21 
REMARK    3  A    between atoms: N_3  and  C_6 
REMARK    4  A    between atoms: C_6  and  C_7 
REMARK       I    between atoms: C_7  and  N_8 
REMARK    5  A    between atoms: N_8  and  C_9 
REMARK    6  A    between atoms: C_16  and  C_17 
REMARK       I    between atoms: C_17  and  N_18 
ROOT
HETATM    1  C   UNL     1     -42.563  55.477 -51.488  1.00  0.00     0.248 C 
HETATM    2  N   UNL     1     -41.305  55.088 -51.887  1.00  0.00    -0.319 N 
HETATM    3  O   UNL     1     -43.583  54.802 -51.370  1.00  0.00    -0.271 OA
HETATM    4  H   UNL     1     -40.546  55.772 -51.907  1.00  0.00     0.169 HD
ENDROOT
BRANCH   2   5
HETATM    5  C   UNL     1     -40.861  53.795 -52.132  1.00  0.00     0.093 A 
HETATM    6  S   UNL     1     -40.336  52.774 -50.868  1.00  0.00    -0.075 SA
HETATM    7  C   UNL     1     -39.953  51.579 -51.964  1.00  0.00    -0.008 A 
HETATM    8  C   UNL     1     -40.229  51.894 -53.267  1.00  0.00    -0.026 A 
HETATM    9  C   UNL     1     -39.331  50.250 -51.763  1.00  0.00     0.047 C 
HETATM   10  C   UNL     1     -39.815  50.780 -54.164  1.00  0.00     0.041 C 
HETATM   11  C   UNL     1     -40.772  53.207 -53.400  1.00  0.00     0.072 A 
HETATM   12  C   UNL     1     -39.531  49.613 -53.167  1.00  0.00     0.010 C 
BRANCH  11  13
HETATM   13  C   UNL     1     -41.156  53.950 -54.600  1.00  0.00     0.252 C 
HETATM   14  N   UNL     1     -40.170  54.283 -55.477  1.00  0.00    -0.366 N 
HETATM   15  H   UNL     1     -39.234  53.916 -55.418  1.00  0.00     0.159 HD
HETATM   16  H   UNL     1     -40.444  54.723 -56.347  1.00  0.00     0.159 HD
HETATM   17  O   UNL     1     -42.328  54.251 -54.833  1.00  0.00    -0.268 OA
ENDBRANCH  11  13
ENDBRANCH   2   5
BRANCH   1  18
HETATM   18  C   UNL     1     -42.632  56.936 -51.045  1.00  0.00     0.335 C 
BRANCH  18  19
HETATM   19  N   UNL     1     -41.342  57.358 -50.380  1.00  0.00    -0.057 N 
HETATM   20  H   UNL     1     -40.697  56.557 -50.520  1.00  0.00     0.278 HD
HETATM   21  H   UNL     1     -41.472  57.445 -49.368  1.00  0.00     0.278 HD
BRANCH  19  22
HETATM   22  C   UNL     1     -40.615  58.561 -50.917  1.00  0.00     0.239 C 
HETATM   23  C   UNL     1     -40.661  59.703 -49.910  1.00  0.00     0.047 C 
BRANCH  22  24
HETATM   24  C   UNL     1     -41.077  58.936 -52.280  1.00  0.00     0.082 A 
HETATM   25  O   UNL     1     -41.862  60.052 -52.326  1.00  0.00    -0.325 OA
HETATM   26  C   UNL     1     -42.170  60.274 -53.629  1.00  0.00     0.142 A 
HETATM   27  C   UNL     1     -41.593  59.314 -54.425  1.00  0.00     0.027 A 
HETATM   28  C   UNL     1     -40.886  58.445 -53.557  1.00  0.00     0.037 A 
ENDBRANCH  22  24
ENDBRANCH  19  22
ENDBRANCH  18  19
ENDBRANCH   1  18
TORSDOF 6
ENDMDL
MODEL 2
REMARK VINA RESULT:      -7.1      2.024      2.815
REMARK  6 active torsions:
REMARK  status: ('A' for Active; 'I' for Inactive)
REMARK    1  A    between atoms: C_2  and  N_3 
REMARK    2  A    between atoms: C_2  and  C_21 
REMARK    3  A    between atoms: N_3  and  C_6 
REMARK    4  A    between atoms: C_6  and  C_7 
REMARK       I    between atoms: C_7  and  N_8 
REMARK    5  A    between atoms: N_8  and  C_9 
REMARK    6  A    between atoms: C_16  and  C_17 
REMARK       I    between atoms: C_17  and  N_18 
ROOT
HETATM    1  C   UNL     1     -44.294  57.232 -51.393  1.00  0.00     0.248 C 
HETATM    2  N   UNL     1     -43.281  56.966 -52.285  1.00  0.00    -0.319 N 
HETATM    3  O   UNL     1     -44.782  56.503 -50.533  1.00  0.00    -0.271 OA
HETATM    4  H   UNL     1     -42.965  57.696 -52.927  1.00  0.00     0.169 HD
ENDROOT
BRANCH   2   5
HETATM    5  C   UNL     1     -42.479  55.832 -52.335  1.00  0.00     0.093 A 
HETATM    6  S   UNL     1     -41.542  55.339 -50.996  1.00  0.00    -0.075 SA
HETATM    7  C   UNL     1     -40.910  54.074 -51.877  1.00  0.00    -0.008 A 
HETATM    8  C   UNL     1     -41.393  53.975 -53.154  1.00  0.00    -0.026 A 
HETATM    9  C   UNL     1     -39.886  53.065 -51.519  1.00  0.00     0.047 C 
HETATM   10  C   UNL     1     -40.738  52.842 -53.864  1.00  0.00     0.041 C 
HETATM   11  C   UNL     1     -42.331  55.007 -53.456  1.00  0.00     0.072 A 
HETATM   12  C   UNL     1     -40.009  52.079 -52.715  1.00  0.00     0.010 C 
BRANCH  11  13
HETATM   13  C   UNL     1     -43.041  55.299 -54.702  1.00  0.00     0.252 C 
HETATM   14  N   UNL     1     -43.887  54.347 -55.183  1.00  0.00    -0.366 N 
HETATM   15  H   UNL     1     -44.160  53.536 -54.653  1.00  0.00     0.159 HD
HETATM   16  H   UNL     1     -44.441  54.580 -55.997  1.00  0.00     0.159 HD
HETATM   17  O   UNL     1     -42.904  56.370 -55.293  1.00  0.00    -0.268 OA
ENDBRANCH  11  13
ENDBRANCH   2   5
BRANCH   1  18
HETATM   18  C   UNL     1     -44.780  58.678 -51.447  1.00  0.00     0.335 C 
BRANCH  18  19
HETATM   19  N   UNL     1     -44.147  59.501 -50.350  1.00  0.00    -0.057 N 
HETATM   20  H   UNL     1     -43.677  58.808 -49.736  1.00  0.00     0.278 HD
HETATM   21  H   UNL     1     -44.866  59.949 -49.776  1.00  0.00     0.278 HD
BRANCH  19  22
HETATM   22  C   UNL     1     -43.082  60.498 -50.721  1.00  0.00     0.239 C 
HETATM   23  C   UNL     1     -43.533  61.341 -51.908  1.00  0.00     0.047 C 
BRANCH  22  24
HETATM   24  C   UNL     1     -41.751  59.861 -50.900  1.00  0.00     0.082 A 
HETATM   25  O   UNL     1     -41.483  59.456 -52.176  1.00  0.00    -0.325 OA
HETATM   26  C   UNL     1     -40.233  58.930 -52.177  1.00  0.00     0.142 A 
HETATM   27  C   UNL     1     -39.690  58.987 -50.916  1.00  0.00     0.027 A 
HETATM   28  C   UNL     1     -40.670  59.588 -50.086  1.00  0.00     0.037 A 
ENDBRANCH  22  24
ENDBRANCH  19  22
ENDBRANCH  18  19
ENDBRANCH   1  18
TORSDOF 6
ENDMDL
MODEL 3
REMARK VINA RESULT:      -7.1      4.216      6.193
REMARK  6 active torsions:
REMARK  status: ('A' for Active; 'I' for Inactive)
REMARK    1  A    between atoms: C_2  and  N_3 
REMARK    2  A    between atoms: C_2  and  C_21 
REMARK    3  A    between atoms: N_3  and  C_6 
REMARK    4  A    between atoms: C_6  and  C_7 
REMARK       I    between atoms: C_7  and  N_8 
REMARK    5  A    between atoms: N_8  and  C_9 
REMARK    6  A    between atoms: C_16  and  C_17 
REMARK       I    between atoms: C_17  and  N_18 
ROOT
HETATM    1  C   UNL     1     -42.563  55.941 -56.717  1.00  0.00     0.248 C 
HETATM    2  N   UNL     1     -41.596  56.089 -55.750  1.00  0.00    -0.319 N 
HETATM    3  O   UNL     1     -43.249  54.958 -56.984  1.00  0.00    -0.271 OA
HETATM    4  H   UNL     1     -41.129  56.991 -55.634  1.00  0.00     0.169 HD
ENDROOT
BRANCH   2   5
HETATM    5  C   UNL     1     -41.254  55.182 -54.755  1.00  0.00     0.093 A 
HETATM    6  S   UNL     1     -40.223  53.857 -55.065  1.00  0.00    -0.075 SA
HETATM    7  C   UNL     1     -40.406  53.320 -53.499  1.00  0.00    -0.008 A 
HETATM    8  C   UNL     1     -41.200  54.115 -52.716  1.00  0.00    -0.026 A 
HETATM    9  C   UNL     1     -39.882  52.109 -52.827  1.00  0.00     0.047 C 
HETATM   10  C   UNL     1     -41.329  53.528 -51.354  1.00  0.00     0.041 C 
HETATM   11  C   UNL     1     -41.719  55.232 -53.435  1.00  0.00     0.072 A 
HETATM   12  C   UNL     1     -40.235  52.415 -51.344  1.00  0.00     0.010 C 
BRANCH  11  13
HETATM   13  C   UNL     1     -42.635  56.288 -53.001  1.00  0.00     0.252 C 
HETATM   14  N   UNL     1     -43.947  55.960 -52.846  1.00  0.00    -0.366 N 
HETATM   15  H   UNL     1     -44.281  55.010 -52.865  1.00  0.00     0.159 HD
HETATM   16  H   UNL     1     -44.566  56.664 -52.467  1.00  0.00     0.159 HD
HETATM   17  O   UNL     1     -42.244  57.431 -52.760  1.00  0.00    -0.268 OA
ENDBRANCH  11  13
ENDBRANCH   2   5
BRANCH   1  18
HETATM   18  C   UNL     1     -42.864  57.233 -57.472  1.00  0.00     0.335 C 
BRANCH  18  19
HETATM   19  N   UNL     1     -41.833  57.481 -58.548  1.00  0.00    -0.057 N 
HETATM   20  H   UNL     1     -41.150  56.706 -58.445  1.00  0.00     0.278 HD
HETATM   21  H   UNL     1     -41.316  58.344 -58.359  1.00  0.00     0.278 HD
BRANCH  19  22
HETATM   22  C   UNL     1     -42.271  57.443 -59.987  1.00  0.00     0.239 C 
HETATM   23  C   UNL     1     -42.215  58.839 -60.597  1.00  0.00     0.047 C 
BRANCH  22  24
HETATM   24  C   UNL     1     -43.579  56.758 -60.160  1.00  0.00     0.082 A 
HETATM   25  O   UNL     1     -43.493  55.404 -60.318  1.00  0.00    -0.325 OA
HETATM   26  C   UNL     1     -44.760  54.931 -60.431  1.00  0.00     0.142 A 
HETATM   27  C   UNL     1     -45.664  55.963 -60.349  1.00  0.00     0.027 A 
HETATM   28  C   UNL     1     -44.903  57.147 -60.175  1.00  0.00     0.037 A 
ENDBRANCH  22  24
ENDBRANCH  19  22
ENDBRANCH  18  19
ENDBRANCH   1  18
TORSDOF 6
ENDMDL
MODEL 4
REMARK VINA RESULT:      -7.1      1.892      3.568
REMARK  6 active torsions:
REMARK  status: ('A' for Active; 'I' for Inactive)
REMARK    1  A    between atoms: C_2  and  N_3 
REMARK    2  A    between atoms: C_2  and  C_21 
REMARK    3  A    between atoms: N_3  and  C_6 
REMARK    4  A    between atoms: C_6  and  C_7 
REMARK       I    between atoms: C_7  and  N_8 
REMARK    5  A    between atoms: N_8  and  C_9 
REMARK    6  A    between atoms: C_16  and  C_17 
REMARK       I    between atoms: C_17  and  N_18 
ROOT
HETATM    1  C   UNL     1     -43.185  57.016 -54.328  1.00  0.00     0.248 C 
HETATM    2  N   UNL     1     -41.989  56.838 -53.672  1.00  0.00    -0.319 N 
HETATM    3  O   UNL     1     -43.985  56.173 -54.726  1.00  0.00    -0.271 OA
HETATM    4  H   UNL     1     -41.446  57.653 -53.379  1.00  0.00     0.169 HD
ENDROOT
BRANCH   2   5
HETATM    5  C   UNL     1     -41.462  55.647 -53.190  1.00  0.00     0.093 A 
HETATM    6  S   UNL     1     -40.728  54.507 -54.227  1.00  0.00    -0.075 SA
HETATM    7  C   UNL     1     -40.481  53.469 -52.948  1.00  0.00    -0.008 A 
HETATM    8  C   UNL     1     -40.905  53.950 -51.738  1.00  0.00    -0.026 A 
HETATM    9  C   UNL     1     -39.915  52.101 -52.911  1.00  0.00     0.047 C 
HETATM   10  C   UNL     1     -40.676  52.934 -50.673  1.00  0.00     0.041 C 
HETATM   11  C   UNL     1     -41.492  55.245 -51.849  1.00  0.00     0.072 A 
HETATM   12  C   UNL     1     -39.760  51.885 -51.379  1.00  0.00     0.010 C 
BRANCH  11  13
HETATM   13  C   UNL     1     -42.110  56.090 -50.826  1.00  0.00     0.252 C 
HETATM   14  N   UNL     1     -41.478  56.189 -49.625  1.00  0.00    -0.366 N 
HETATM   15  H   UNL     1     -40.546  55.842 -49.463  1.00  0.00     0.159 HD
HETATM   16  H   UNL     1     -41.857  56.837 -48.946  1.00  0.00     0.159 HD
HETATM   17  O   UNL     1     -43.152  56.711 -51.037  1.00  0.00    -0.268 OA
ENDBRANCH  11  13
ENDBRANCH   2   5
BRANCH   1  18
HETATM   18  C   UNL     1     -43.583  58.483 -54.471  1.00  0.00     0.335 C 
BRANCH  18  19
HETATM   19  N   UNL     1     -43.847  59.104 -53.120  1.00  0.00    -0.057 N 
HETATM   20  H   UNL     1     -43.616  58.358 -52.435  1.00  0.00     0.278 HD
HETATM   21  H   UNL     1     -44.845  59.299 -53.002  1.00  0.00     0.278 HD
BRANCH  19  22
HETATM   22  C   UNL     1     -43.031  60.299 -52.705  1.00  0.00     0.239 C 
HETATM   23  C   UNL     1     -42.606  61.103 -53.927  1.00  0.00     0.047 C 
BRANCH  22  24
HETATM   24  C   UNL     1     -41.910  59.929 -51.802  1.00  0.00     0.082 A 
HETATM   25  O   UNL     1     -40.827  59.388 -52.434  1.00  0.00    -0.325 OA
HETATM   26  C   UNL     1     -39.891  59.137 -51.486  1.00  0.00     0.142 A 
HETATM   27  C   UNL     1     -40.355  59.508 -50.247  1.00  0.00     0.027 A 
HETATM   28  C   UNL     1     -41.662  60.020 -50.447  1.00  0.00     0.037 A 
ENDBRANCH  22  24
ENDBRANCH  19  22
ENDBRANCH  18  19
ENDBRANCH   1  18
TORSDOF 6
ENDMDL
MODEL 5
REMARK VINA RESULT:      -7.0      3.222      4.338
REMARK  6 active torsions:
REMARK  status: ('A' for Active; 'I' for Inactive)
REMARK    1  A    between atoms: C_2  and  N_3 
REMARK    2  A    between atoms: C_2  and  C_21 
REMARK    3  A    between atoms: N_3  and  C_6 
REMARK    4  A    between atoms: C_6  and  C_7 
REMARK       I    between atoms: C_7  and  N_8 
REMARK    5  A    between atoms: N_8  and  C_9 
REMARK    6  A    between atoms: C_16  and  C_17 
REMARK       I    between atoms: C_17  and  N_18 
ROOT
HETATM    1  C   UNL     1     -43.679  57.004 -53.257  1.00  0.00     0.248 C 
HETATM    2  N   UNL     1     -43.813  55.644 -53.103  1.00  0.00    -0.319 N 
HETATM    3  O   UNL     1     -42.704  57.718 -53.037  1.00  0.00    -0.271 OA
HETATM    4  H   UNL     1     -44.692  55.189 -53.360  1.00  0.00     0.169 HD
ENDROOT
BRANCH   2   5
HETATM    5  C   UNL     1     -42.819  54.731 -52.777  1.00  0.00     0.093 A 
HETATM    6  S   UNL     1     -42.411  54.394 -51.154  1.00  0.00    -0.075 SA
HETATM    7  C   UNL     1     -41.202  53.360 -51.649  1.00  0.00    -0.008 A 
HETATM    8  C   UNL     1     -41.094  53.223 -53.007  1.00  0.00    -0.026 A 
HETATM    9  C   UNL     1     -40.203  52.597 -50.866  1.00  0.00     0.047 C 
HETATM   10  C   UNL     1     -39.964  52.314 -53.344  1.00  0.00     0.041 C 
HETATM   11  C   UNL     1     -42.044  54.026 -53.706  1.00  0.00     0.072 A 
HETATM   12  C   UNL     1     -39.602  51.677 -51.966  1.00  0.00     0.010 C 
BRANCH  11  13
HETATM   13  C   UNL     1     -42.241  54.215 -55.144  1.00  0.00     0.252 C 
HETATM   14  N   UNL     1     -41.213  54.751 -55.856  1.00  0.00    -0.366 N 
HETATM   15  H   UNL     1     -40.288  54.876 -55.476  1.00  0.00     0.159 HD
HETATM   16  H   UNL     1     -41.314  54.804 -56.861  1.00  0.00     0.159 HD
HETATM   17  O   UNL     1     -43.286  53.885 -55.707  1.00  0.00    -0.268 OA
ENDBRANCH  11  13
ENDBRANCH   2   5
BRANCH   1  18
HETATM   18  C   UNL     1     -44.904  57.664 -53.886  1.00  0.00     0.335 C 
BRANCH  18  19
HETATM   19  N   UNL     1     -44.983  57.356 -55.363  1.00  0.00    -0.057 N 
HETATM   20  H   UNL     1     -45.851  57.825 -55.686  1.00  0.00     0.278 HD
HETATM   21  H   UNL     1     -45.128  56.354 -55.514  1.00  0.00     0.278 HD
BRANCH  19  22
HETATM   22  C   UNL     1     -43.891  57.865 -56.264  1.00  0.00     0.239 C 
HETATM   23  C   UNL     1     -43.903  59.388 -56.307  1.00  0.00     0.047 C 
BRANCH  22  24
HETATM   24  C   UNL     1     -43.920  57.220 -57.603  1.00  0.00     0.082 A 
HETATM   25  O   UNL     1     -42.859  56.401 -57.862  1.00  0.00    -0.325 OA
HETATM   26  C   UNL     1     -43.049  55.872 -59.096  1.00  0.00     0.142 A 
HETATM   27  C   UNL     1     -44.221  56.341 -59.640  1.00  0.00     0.027 A 
HETATM   28  C   UNL     1     -44.787  57.214 -58.678  1.00  0.00     0.037 A 
ENDBRANCH  22  24
ENDBRANCH  19  22
ENDBRANCH  18  19
ENDBRANCH   1  18
TORSDOF 6
ENDMDL
MODEL 6
REMARK VINA RESULT:      -7.0      4.246      5.996
REMARK  6 active torsions:
REMARK  status: ('A' for Active; 'I' for Inactive)
REMARK    1  A    between atoms: C_2  and  N_3 
REMARK    2  A    between atoms: C_2  and  C_21 
REMARK    3  A    between atoms: N_3  and  C_6 
REMARK    4  A    between atoms: C_6  and  C_7 
REMARK       I    between atoms: C_7  and  N_8 
REMARK    5  A    between atoms: N_8  and  C_9 
REMARK    6  A    between atoms: C_16  and  C_17 
REMARK       I    between atoms: C_17  and  N_18 
ROOT
HETATM    1  C   UNL     1     -42.524  55.575 -55.618  1.00  0.00     0.248 C 
HETATM    2  N   UNL     1     -42.817  54.526 -54.777  1.00  0.00    -0.319 N 
HETATM    3  O   UNL     1     -41.874  56.591 -55.393  1.00  0.00    -0.271 OA
HETATM    4  H   UNL     1     -43.354  53.730 -55.127  1.00  0.00     0.169 HD
ENDROOT
BRANCH   2   5
HETATM    5  C   UNL     1     -42.330  54.315 -53.493  1.00  0.00     0.093 A 
HETATM    6  S   UNL     1     -43.065  55.028 -52.127  1.00  0.00    -0.075 SA
HETATM    7  C   UNL     1     -41.904  54.368 -51.131  1.00  0.00    -0.008 A 
HETATM    8  C   UNL     1     -40.978  53.594 -51.775  1.00  0.00    -0.026 A 
HETATM    9  C   UNL     1     -41.689  54.513 -49.673  1.00  0.00     0.047 C 
HETATM   10  C   UNL     1     -39.968  53.088 -50.805  1.00  0.00     0.041 C 
HETATM   11  C   UNL     1     -41.205  53.541 -53.183  1.00  0.00     0.072 A 
HETATM   12  C   UNL     1     -40.608  53.424 -49.422  1.00  0.00     0.010 C 
BRANCH  11  13
HETATM   13  C   UNL     1     -40.436  52.878 -54.237  1.00  0.00     0.252 C 
HETATM   14  N   UNL     1     -40.317  51.524 -54.173  1.00  0.00    -0.366 N 
HETATM   15  H   UNL     1     -40.850  50.955 -53.537  1.00  0.00     0.159 HD
HETATM   16  H   UNL     1     -39.858  51.056 -54.944  1.00  0.00     0.159 HD
HETATM   17  O   UNL     1     -39.928  53.508 -55.166  1.00  0.00    -0.268 OA
ENDBRANCH  11  13
ENDBRANCH   2   5
BRANCH   1  18
HETATM   18  C   UNL     1     -43.010  55.354 -57.048  1.00  0.00     0.335 C 
BRANCH  18  19
HETATM   19  N   UNL     1     -42.521  56.455 -57.959  1.00  0.00    -0.057 N 
HETATM   20  H   UNL     1     -41.494  56.490 -57.807  1.00  0.00     0.278 HD
HETATM   21  H   UNL     1     -42.883  57.363 -57.653  1.00  0.00     0.278 HD
BRANCH  19  22
HETATM   22  C   UNL     1     -42.703  56.296 -59.444  1.00  0.00     0.239 C 
HETATM   23  C   UNL     1     -41.977  57.409 -60.192  1.00  0.00     0.047 C 
BRANCH  22  24
HETATM   24  C   UNL     1     -44.133  56.144 -59.823  1.00  0.00     0.082 A 
HETATM   25  O   UNL     1     -44.956  57.116 -59.331  1.00  0.00    -0.325 OA
HETATM   26  C   UNL     1     -46.207  56.852 -59.787  1.00  0.00     0.142 A 
HETATM   27  C   UNL     1     -46.202  55.721 -60.567  1.00  0.00     0.027 A 
HETATM   28  C   UNL     1     -44.862  55.258 -60.591  1.00  0.00     0.037 A 
ENDBRANCH  22  24
ENDBRANCH  19  22
ENDBRANCH  18  19
ENDBRANCH   1  18
TORSDOF 6
ENDMDL
MODEL 7
REMARK VINA RESULT:      -7.0      1.806      2.202
REMARK  6 active torsions:
REMARK  status: ('A' for Active; 'I' for Inactive)
REMARK    1  A    between atoms: C_2  and  N_3 
REMARK    2  A    between atoms: C_2  and  C_21 
REMARK    3  A    between atoms: N_3  and  C_6 
REMARK    4  A    between atoms: C_6  and  C_7 
REMARK       I    between atoms: C_7  and  N_8 
REMARK    5  A    between atoms: N_8  and  C_9 
REMARK    6  A    between atoms: C_16  and  C_17 
REMARK       I    between atoms: C_17  and  N_18 
ROOT
HETATM    1  C   UNL     1     -42.358  55.625 -51.550  1.00  0.00     0.248 C 
HETATM    2  N   UNL     1     -41.112  55.171 -51.915  1.00  0.00    -0.319 N 
HETATM    3  O   UNL     1     -43.411  55.002 -51.446  1.00  0.00    -0.271 OA
HETATM    4  H   UNL     1     -40.320  55.817 -51.927  1.00  0.00     0.169 HD
ENDROOT
BRANCH   2   5
HETATM    5  C   UNL     1     -40.726  53.855 -52.133  1.00  0.00     0.093 A 
HETATM    6  S   UNL     1     -40.219  52.846 -50.853  1.00  0.00    -0.075 SA
HETATM    7  C   UNL     1     -39.906  51.608 -51.923  1.00  0.00    -0.008 A 
HETATM    8  C   UNL     1     -40.193  51.901 -53.229  1.00  0.00    -0.026 A 
HETATM    9  C   UNL     1     -39.335  50.260 -51.698  1.00  0.00     0.047 C 
HETATM   10  C   UNL     1     -39.842  50.748 -54.103  1.00  0.00     0.041 C 
HETATM   11  C   UNL     1     -40.685  53.231 -53.387  1.00  0.00     0.072 A 
HETATM   12  C   UNL     1     -39.588  49.596 -53.081  1.00  0.00     0.010 C 
BRANCH  11  13
HETATM   13  C   UNL     1     -41.060  53.958 -54.600  1.00  0.00     0.252 C 
HETATM   14  N   UNL     1     -40.073  54.258 -55.486  1.00  0.00    -0.366 N 
HETATM   15  H   UNL     1     -39.143  53.875 -55.424  1.00  0.00     0.159 HD
HETATM   16  H   UNL     1     -40.341  54.685 -56.363  1.00  0.00     0.159 HD
HETATM   17  O   UNL     1     -42.227  54.276 -54.833  1.00  0.00    -0.268 OA
ENDBRANCH  11  13
ENDBRANCH   2   5
BRANCH   1  18
HETATM   18  C   UNL     1     -42.365  57.092 -51.127  1.00  0.00     0.335 C 
BRANCH  18  19
HETATM   19  N   UNL     1     -43.761  57.541 -50.765  1.00  0.00    -0.057 N 
HETATM   20  H   UNL     1     -43.706  57.796 -49.760  1.00  0.00     0.278 HD
HETATM   21  H   UNL     1     -44.418  56.757 -50.823  1.00  0.00     0.278 HD
BRANCH  19  22
HETATM   22  C   UNL     1     -44.332  58.749 -51.457  1.00  0.00     0.239 C 
HETATM   23  C   UNL     1     -45.676  59.128 -50.845  1.00  0.00     0.047 C 
BRANCH  22  24
HETATM   24  C   UNL     1     -44.362  58.589 -52.935  1.00  0.00     0.082 A 
HETATM   25  O   UNL     1     -44.914  57.417 -53.367  1.00  0.00    -0.325 OA
HETATM   26  C   UNL     1     -44.894  57.439 -54.724  1.00  0.00     0.142 A 
HETATM   27  C   UNL     1     -44.335  58.611 -55.174  1.00  0.00     0.027 A 
HETATM   28  C   UNL     1     -43.988  59.357 -54.019  1.00  0.00     0.037 A 
ENDBRANCH  22  24
ENDBRANCH  19  22
ENDBRANCH  18  19
ENDBRANCH   1  18
TORSDOF 6
ENDMDL
MODEL 8
REMARK VINA RESULT:      -7.0      1.390      2.290
REMARK  6 active torsions:
REMARK  status: ('A' for Active; 'I' for Inactive)
REMARK    1  A    between atoms: C_2  and  N_3 
REMARK    2  A    between atoms: C_2  and  C_21 
REMARK    3  A    between atoms: N_3  and  C_6 
REMARK    4  A    between atoms: C_6  and  C_7 
REMARK       I    between atoms: C_7  and  N_8 
REMARK    5  A    between atoms: N_8  and  C_9 
REMARK    6  A    between atoms: C_16  and  C_17 
REMARK       I    between atoms: C_17  and  N_18 
ROOT
HETATM    1  C   UNL     1     -43.621  56.015 -51.306  1.00  0.00     0.248 C 
HETATM    2  N   UNL     1     -42.559  55.858 -52.166  1.00  0.00    -0.319 N 
HETATM    3  O   UNL     1     -44.210  55.169 -50.638  1.00  0.00    -0.271 OA
HETATM    4  H   UNL     1     -42.158  56.675 -52.632  1.00  0.00     0.169 HD
ENDROOT
BRANCH   2   5
HETATM    5  C   UNL     1     -41.815  54.705 -52.384  1.00  0.00     0.093 A 
HETATM    6  S   UNL     1     -40.906  53.976 -51.137  1.00  0.00    -0.075 SA
HETATM    7  C   UNL     1     -40.337  52.822 -52.195  1.00  0.00    -0.008 A 
HETATM    8  C   UNL     1     -40.824  52.933 -53.470  1.00  0.00    -0.026 A 
HETATM    9  C   UNL     1     -39.366  51.722 -51.993  1.00  0.00     0.047 C 
HETATM   10  C   UNL     1     -40.226  51.884 -54.341  1.00  0.00     0.041 C 
HETATM   11  C   UNL     1     -41.708  54.043 -53.614  1.00  0.00     0.072 A 
HETATM   12  C   UNL     1     -39.538  50.927 -53.318  1.00  0.00     0.010 C 
BRANCH  11  13
HETATM   13  C   UNL     1     -42.401  54.548 -54.800  1.00  0.00     0.252 C 
HETATM   14  N   UNL     1     -41.644  54.864 -55.886  1.00  0.00    -0.366 N 
HETATM   15  H   UNL     1     -40.668  54.626 -55.964  1.00  0.00     0.159 HD
HETATM   16  H   UNL     1     -42.127  55.132 -56.733  1.00  0.00     0.159 HD
HETATM   17  O   UNL     1     -43.627  54.667 -54.837  1.00  0.00    -0.268 OA
ENDBRANCH  11  13
ENDBRANCH   2   5
BRANCH   1  18
HETATM   18  C   UNL     1     -44.026  57.473 -51.109  1.00  0.00     0.335 C 
BRANCH  18  19
HETATM   19  N   UNL     1     -44.008  58.220 -52.422  1.00  0.00    -0.057 N 
HETATM   20  H   UNL     1     -44.998  58.483 -52.591  1.00  0.00     0.278 HD
HETATM   21  H   UNL     1     -43.745  57.594 -53.188  1.00  0.00     0.278 HD
BRANCH  19  22
HETATM   22  C   UNL     1     -43.229  59.504 -52.509  1.00  0.00     0.239 C 
HETATM   23  C   UNL     1     -42.956  59.862 -53.965  1.00  0.00     0.047 C 
BRANCH  22  24
HETATM   24  C   UNL     1     -42.015  59.485 -51.651  1.00  0.00     0.082 A 
HETATM   25  O   UNL     1     -41.035  58.634 -52.074  1.00  0.00    -0.325 OA
HETATM   26  C   UNL     1     -39.995  58.756 -51.211  1.00  0.00     0.142 A 
HETATM   27  C   UNL     1     -40.292  59.677 -50.234  1.00  0.00     0.027 A 
HETATM   28  C   UNL     1     -41.599  60.150 -50.515  1.00  0.00     0.037 A 
ENDBRANCH  22  24
ENDBRANCH  19  22
ENDBRANCH  18  19
ENDBRANCH   1  18
TORSDOF 6
ENDMDL
MODEL 9
REMARK VINA RESULT:      -6.9      1.797      3.058
REMARK  6 active torsions:
REMARK  status: ('A' for Active; 'I' for Inactive)
REMARK    1  A    between atoms: C_2  and  N_3 
REMARK    2  A    between atoms: C_2  and  C_21 
REMARK    3  A    between atoms: N_3  and  C_6 
REMARK    4  A    between atoms: C_6  and  C_7 
REMARK       I    between atoms: C_7  and  N_8 
REMARK    5  A    between atoms: N_8  and  C_9 
REMARK    6  A    between atoms: C_16  and  C_17 
REMARK       I    between atoms: C_17  and  N_18 
ROOT
HETATM    1  C   UNL     1     -42.337  55.451 -52.105  1.00  0.00     0.248 C 
HETATM    2  N   UNL     1     -41.095  55.035 -52.524  1.00  0.00    -0.319 N 
HETATM    3  O   UNL     1     -43.368  54.798 -51.968  1.00  0.00    -0.271 OA
HETATM    4  H   UNL     1     -40.321  55.703 -52.558  1.00  0.00     0.169 HD
ENDROOT
BRANCH   2   5
HETATM    5  C   UNL     1     -40.682  53.732 -52.772  1.00  0.00     0.093 A 
HETATM    6  S   UNL     1     -40.778  53.044 -54.331  1.00  0.00    -0.075 SA
HETATM    7  C   UNL     1     -40.206  51.591 -53.749  1.00  0.00    -0.008 A 
HETATM    8  C   UNL     1     -39.909  51.593 -52.413  1.00  0.00    -0.026 A 
HETATM    9  C   UNL     1     -40.003  50.291 -54.430  1.00  0.00     0.047 C 
HETATM   10  C   UNL     1     -39.447  50.243 -51.987  1.00  0.00     0.041 C 
HETATM   11  C   UNL     1     -40.180  52.854 -51.803  1.00  0.00     0.072 A 
HETATM   12  C   UNL     1     -39.215  49.507 -53.343  1.00  0.00     0.010 C 
BRANCH  11  13
HETATM   13  C   UNL     1     -40.055  53.271 -50.405  1.00  0.00     0.252 C 
HETATM   14  N   UNL     1     -40.580  52.452 -49.454  1.00  0.00    -0.366 N 
HETATM   15  H   UNL     1     -40.905  51.519 -49.651  1.00  0.00     0.159 HD
HETATM   16  H   UNL     1     -40.422  52.695 -48.485  1.00  0.00     0.159 HD
HETATM   17  O   UNL     1     -39.480  54.312 -50.086  1.00  0.00    -0.268 OA
ENDBRANCH  11  13
ENDBRANCH   2   5
BRANCH   1  18
HETATM   18  C   UNL     1     -42.368  56.912 -51.665  1.00  0.00     0.335 C 
BRANCH  18  19
HETATM   19  N   UNL     1     -42.533  57.830 -52.854  1.00  0.00    -0.057 N 
HETATM   20  H   UNL     1     -43.558  57.888 -53.004  1.00  0.00     0.278 HD
HETATM   21  H   UNL     1     -42.146  57.397 -53.698  1.00  0.00     0.278 HD
BRANCH  19  22
HETATM   22  C   UNL     1     -42.060  59.253 -52.736  1.00  0.00     0.239 C 
HETATM   23  C   UNL     1     -41.761  59.830 -54.114  1.00  0.00     0.047 C 
BRANCH  22  24
HETATM   24  C   UNL     1     -40.945  59.398 -51.763  1.00  0.00     0.082 A 
HETATM   25  O   UNL     1     -39.707  59.137 -52.277  1.00  0.00    -0.325 OA
HETATM   26  C   UNL     1     -38.807  59.341 -51.282  1.00  0.00     0.142 A 
HETATM   27  C   UNL     1     -39.450  59.730 -50.130  1.00  0.00     0.027 A 
HETATM   28  C   UNL     1     -40.833  59.766 -50.437  1.00  0.00     0.037 A 
ENDBRANCH  22  24
ENDBRANCH  19  22
ENDBRANCH  18  19
ENDBRANCH   1  18
TORSDOF 6
ENDMDL
MODEL 10
REMARK VINA RESULT:      -6.8      3.362      4.979
REMARK  6 active torsions:
REMARK  status: ('A' for Active; 'I' for Inactive)
REMARK    1  A    between atoms: C_2  and  N_3 
REMARK    2  A    between atoms: C_2  and  C_21 
REMARK    3  A    between atoms: N_3  and  C_6 
REMARK    4  A    between atoms: C_6  and  C_7 
REMARK       I    between atoms: C_7  and  N_8 
REMARK    5  A    between atoms: N_8  and  C_9 
REMARK    6  A    between atoms: C_16  and  C_17 
REMARK       I    between atoms: C_17  and  N_18 
ROOT
HETATM    1  C   UNL     1     -43.851  56.854 -53.874  1.00  0.00     0.248 C 
HETATM    2  N   UNL     1     -43.863  55.481 -53.786  1.00  0.00    -0.319 N 
HETATM    3  O   UNL     1     -42.996  57.648 -53.492  1.00  0.00    -0.271 OA
HETATM    4  H   UNL     1     -44.645  54.954 -54.181  1.00  0.00     0.169 HD
ENDROOT
BRANCH   2   5
HETATM    5  C   UNL     1     -42.834  54.656 -53.349  1.00  0.00     0.093 A 
HETATM    6  S   UNL     1     -41.899  53.735 -54.440  1.00  0.00    -0.075 SA
HETATM    7  C   UNL     1     -41.047  53.062 -53.177  1.00  0.00    -0.008 A 
HETATM    8  C   UNL     1     -41.413  53.518 -51.939  1.00  0.00    -0.026 A 
HETATM    9  C   UNL     1     -39.990  52.025 -53.170  1.00  0.00     0.047 C 
HETATM   10  C   UNL     1     -40.623  52.827 -50.883  1.00  0.00     0.041 C 
HETATM   11  C   UNL     1     -42.474  54.470 -52.008  1.00  0.00     0.072 A 
HETATM   12  C   UNL     1     -39.503  52.106 -51.696  1.00  0.00     0.010 C 
BRANCH  11  13
HETATM   13  C   UNL     1     -43.190  55.162 -50.935  1.00  0.00     0.252 C 
HETATM   14  N   UNL     1     -42.686  56.351 -50.506  1.00  0.00    -0.366 N 
HETATM   15  H   UNL     1     -41.950  56.842 -50.987  1.00  0.00     0.159 HD
HETATM   16  H   UNL     1     -43.224  56.871 -49.825  1.00  0.00     0.159 HD
HETATM   17  O   UNL     1     -44.223  54.707 -50.444  1.00  0.00    -0.268 OA
ENDBRANCH  11  13
ENDBRANCH   2   5
BRANCH   1  18
HETATM   18  C   UNL     1     -45.037  57.418 -54.651  1.00  0.00     0.335 C 
BRANCH  18  19
HETATM   19  N   UNL     1     -44.829  57.266 -56.139  1.00  0.00    -0.057 N 
HETATM   20  H   UNL     1     -45.744  57.511 -56.563  1.00  0.00     0.278 HD
HETATM   21  H   UNL     1     -44.658  56.285 -56.380  1.00  0.00     0.278 HD
BRANCH  19  22
HETATM   22  C   UNL     1     -43.819  58.150 -56.820  1.00  0.00     0.239 C 
HETATM   23  C   UNL     1     -44.406  59.535 -57.067  1.00  0.00     0.047 C 
BRANCH  22  24
HETATM   24  C   UNL     1     -43.237  57.513 -58.030  1.00  0.00     0.082 A 
HETATM   25  O   UNL     1     -43.723  56.266 -58.304  1.00  0.00    -0.325 OA
HETATM   26  C   UNL     1     -43.121  55.841 -59.443  1.00  0.00     0.142 A 
HETATM   27  C   UNL     1     -42.251  56.797 -59.909  1.00  0.00     0.027 A 
HETATM   28  C   UNL     1     -42.322  57.880 -58.996  1.00  0.00     0.037 A 
ENDBRANCH  22  24
ENDBRANCH  19  22
ENDBRANCH  18  19
ENDBRANCH   1  18
TORSDOF 6
ENDMDL
