MODEL 1
REMARK VINA RESULT:      -9.0      0.000      0.000
REMARK  6 active torsions:
REMARK  status: ('A' for Active; 'I' for Inactive)
REMARK    1  A    between atoms: O_2  and  C_3 
REMARK    2  A    between atoms: C_5  and  C_6 
REMARK    3  A    between atoms: C_12  and  C_13 
REMARK       I    between atoms: C_13  and  N_14 
REMARK    4  A    between atoms: N_14  and  C_15 
REMARK    5  A    between atoms: C_17  and  O_18 
REMARK    6  A    between atoms: C_23  and  C_24 
ROOT
HETATM    1  C   UNL     1     -43.380  55.168 -52.404  1.00  0.00     0.118 C 
HETATM    2  N   UNL     1     -43.673  55.468 -53.807  1.00  0.00    -0.365 N 
HETATM    3  C   UNL     1     -43.275  56.642 -54.369  1.00  0.00     0.138 A 
HETATM    4  N   UNL     1     -42.773  57.667 -53.609  1.00  0.00    -0.240 N 
HETATM    5  N   UNL     1     -42.451  58.758 -54.322  1.00  0.00    -0.181 NA
HETATM    6  C   UNL     1     -42.676  58.380 -55.584  1.00  0.00     0.160 A 
HETATM    7  C   UNL     1     -43.223  57.079 -55.680  1.00  0.00     0.096 A 
HETATM    8  C   UNL     1     -42.594  57.627 -52.171  1.00  0.00     0.221 C 
HETATM    9  C   UNL     1     -43.376  56.451 -51.558  1.00  0.00     0.066 C 
HETATM   10  H   UNL     1     -43.686  54.624 -54.383  1.00  0.00     0.161 HD
ENDROOT
BRANCH   7  11
HETATM   11  C   UNL     1     -43.607  56.371 -56.889  1.00  0.00     0.261 C 
HETATM   12  N   UNL     1     -44.374  57.142 -57.742  1.00  0.00    -0.323 N 
HETATM   13  H   UNL     1     -44.413  58.130 -57.514  1.00  0.00     0.169 HD
HETATM   14  O   UNL     1     -43.238  55.222 -57.093  1.00  0.00    -0.267 OA
BRANCH  12  15
HETATM   15  C   UNL     1     -45.053  56.734 -58.905  1.00  0.00     0.037 A 
HETATM   16  C   UNL     1     -44.519  55.844 -59.841  1.00  0.00     0.066 A 
HETATM   17  C   UNL     1     -45.282  55.460 -60.942  1.00  0.00     0.067 A 
HETATM   18  C   UNL     1     -46.567  55.952 -61.133  1.00  0.00     0.036 A 
HETATM   19  C   UNL     1     -47.104  56.842 -60.207  1.00  0.00     0.005 A 
HETATM   20  C   UNL     1     -46.352  57.226 -59.095  1.00  0.00     0.029 A 
BRANCH  17  21
HETATM   21  O   UNL     1     -44.798  54.579 -61.866  1.00  0.00    -0.361 OA
HETATM   22  H   UNL     1     -44.986  54.931 -62.753  1.00  0.00     0.217 HD
ENDBRANCH  17  21
ENDBRANCH  12  15
ENDBRANCH   7  11
BRANCH   1  23
HETATM   23  C   UNL     1     -42.174  54.263 -52.239  1.00  0.00    -0.033 A 
HETATM   24  C   UNL     1     -41.756  53.918 -50.940  1.00  0.00     0.046 A 
HETATM   25  C   UNL     1     -40.682  53.048 -50.719  1.00  0.00     0.068 A 
HETATM   26  C   UNL     1     -39.994  52.524 -51.809  1.00  0.00     0.037 A 
HETATM   27  C   UNL     1     -40.385  52.857 -53.106  1.00  0.00     0.003 A 
HETATM   28  C   UNL     1     -41.469  53.711 -53.319  1.00  0.00     0.009 A 
BRANCH  25  29
HETATM   29  O   UNL     1     -40.415  52.794 -49.402  1.00  0.00    -0.356 OA
HETATM   30  C   UNL     1     -40.587  53.877 -48.496  1.00  0.00     0.210 C 
ENDBRANCH  25  29
ENDBRANCH   1  23
BRANCH   8  31
HETATM   31  C   UNL     1     -41.122  57.630 -51.814  1.00  0.00     0.409 C 
HETATM   32  F   UNL     1     -40.584  58.860 -51.738  1.00  0.00    -0.169 F 
HETATM   33  F   UNL     1     -40.880  57.006 -50.639  1.00  0.00    -0.169 F 
HETATM   34  F   UNL     1     -40.417  56.945 -52.753  1.00  0.00    -0.169 F 
ENDBRANCH   8  31
TORSDOF 6
ENDMDL
MODEL 2
REMARK VINA RESULT:      -8.8      1.869      2.281
REMARK  6 active torsions:
REMARK  status: ('A' for Active; 'I' for Inactive)
REMARK    1  A    between atoms: O_2  and  C_3 
REMARK    2  A    between atoms: C_5  and  C_6 
REMARK    3  A    between atoms: C_12  and  C_13 
REMARK       I    between atoms: C_13  and  N_14 
REMARK    4  A    between atoms: N_14  and  C_15 
REMARK    5  A    between atoms: C_17  and  O_18 
REMARK    6  A    between atoms: C_23  and  C_24 
ROOT
HETATM    1  C   UNL     1     -43.367  54.481 -52.251  1.00  0.00     0.118 C 
HETATM    2  N   UNL     1     -43.962  55.340 -53.277  1.00  0.00    -0.365 N 
HETATM    3  C   UNL     1     -43.763  56.686 -53.262  1.00  0.00     0.138 A 
HETATM    4  N   UNL     1     -43.180  57.315 -52.191  1.00  0.00    -0.240 N 
HETATM    5  N   UNL     1     -43.083  58.646 -52.335  1.00  0.00    -0.181 NA
HETATM    6  C   UNL     1     -43.540  58.857 -53.573  1.00  0.00     0.160 A 
HETATM    7  C   UNL     1     -44.012  57.677 -54.196  1.00  0.00     0.096 A 
HETATM    8  C   UNL     1     -42.706  56.649 -50.994  1.00  0.00     0.221 C 
HETATM    9  C   UNL     1     -43.269  55.219 -50.907  1.00  0.00     0.066 C 
HETATM   10  H   UNL     1     -44.041  54.862 -54.177  1.00  0.00     0.161 HD
ENDROOT
BRANCH   7  11
HETATM   11  C   UNL     1     -44.593  57.551 -55.521  1.00  0.00     0.261 C 
HETATM   12  N   UNL     1     -43.734  56.963 -56.430  1.00  0.00    -0.323 N 
HETATM   13  H   UNL     1     -42.907  56.535 -56.028  1.00  0.00     0.169 HD
HETATM   14  O   UNL     1     -45.739  57.919 -55.745  1.00  0.00    -0.267 OA
BRANCH  12  15
HETATM   15  C   UNL     1     -43.898  56.839 -57.822  1.00  0.00     0.037 A 
HETATM   16  C   UNL     1     -44.335  57.880 -58.645  1.00  0.00     0.066 A 
HETATM   17  C   UNL     1     -44.424  57.681 -60.022  1.00  0.00     0.067 A 
HETATM   18  C   UNL     1     -44.094  56.458 -60.594  1.00  0.00     0.036 A 
HETATM   19  C   UNL     1     -43.662  55.416 -59.779  1.00  0.00     0.005 A 
HETATM   20  C   UNL     1     -43.559  55.607 -58.400  1.00  0.00     0.029 A 
BRANCH  17  21
HETATM   21  O   UNL     1     -44.831  58.681 -60.857  1.00  0.00    -0.361 OA
HETATM   22  H   UNL     1     -45.620  58.378 -61.337  1.00  0.00     0.217 HD
ENDBRANCH  17  21
ENDBRANCH  12  15
ENDBRANCH   7  11
BRANCH   1  23
HETATM   23  C   UNL     1     -42.099  53.797 -52.725  1.00  0.00    -0.033 A 
HETATM   24  C   UNL     1     -41.338  53.059 -51.800  1.00  0.00     0.046 A 
HETATM   25  C   UNL     1     -40.186  52.363 -52.182  1.00  0.00     0.068 A 
HETATM   26  C   UNL     1     -39.765  52.418 -53.508  1.00  0.00     0.037 A 
HETATM   27  C   UNL     1     -40.498  53.150 -54.442  1.00  0.00     0.003 A 
HETATM   28  C   UNL     1     -41.657  53.826 -54.056  1.00  0.00     0.009 A 
BRANCH  25  29
HETATM   29  O   UNL     1     -39.573  51.675 -51.172  1.00  0.00    -0.356 OA
HETATM   30  C   UNL     1     -39.483  50.263 -51.324  1.00  0.00     0.210 C 
ENDBRANCH  25  29
ENDBRANCH   1  23
BRANCH   8  31
HETATM   31  C   UNL     1     -41.195  56.714 -50.909  1.00  0.00     0.409 C 
HETATM   32  F   UNL     1     -40.579  56.615 -52.100  1.00  0.00    -0.169 F 
HETATM   33  F   UNL     1     -40.764  57.854 -50.322  1.00  0.00    -0.169 F 
HETATM   34  F   UNL     1     -40.731  55.697 -50.135  1.00  0.00    -0.169 F 
ENDBRANCH   8  31
TORSDOF 6
ENDMDL
MODEL 3
REMARK VINA RESULT:      -8.4      3.662      6.648
REMARK  6 active torsions:
REMARK  status: ('A' for Active; 'I' for Inactive)
REMARK    1  A    between atoms: O_2  and  C_3 
REMARK    2  A    between atoms: C_5  and  C_6 
REMARK    3  A    between atoms: C_12  and  C_13 
REMARK       I    between atoms: C_13  and  N_14 
REMARK    4  A    between atoms: N_14  and  C_15 
REMARK    5  A    between atoms: C_17  and  O_18 
REMARK    6  A    between atoms: C_23  and  C_24 
ROOT
HETATM    1  C   UNL     1     -44.723  58.367 -52.753  1.00  0.00     0.118 C 
HETATM    2  N   UNL     1     -44.212  57.015 -52.990  1.00  0.00    -0.365 N 
HETATM    3  C   UNL     1     -43.553  56.709 -54.141  1.00  0.00     0.138 A 
HETATM    4  N   UNL     1     -43.518  57.579 -55.201  1.00  0.00    -0.240 N 
HETATM    5  N   UNL     1     -42.844  57.108 -56.262  1.00  0.00    -0.181 NA
HETATM    6  C   UNL     1     -42.364  55.938 -55.829  1.00  0.00     0.160 A 
HETATM    7  C   UNL     1     -42.798  55.614 -54.521  1.00  0.00     0.096 A 
HETATM    8  C   UNL     1     -44.139  58.888 -55.224  1.00  0.00     0.221 C 
HETATM    9  C   UNL     1     -45.150  59.032 -54.071  1.00  0.00     0.066 C 
HETATM   10  H   UNL     1     -43.929  56.556 -52.122  1.00  0.00     0.161 HD
ENDROOT
BRANCH   7  11
HETATM   11  C   UNL     1     -42.487  54.417 -53.761  1.00  0.00     0.261 C 
HETATM   12  N   UNL     1     -41.231  53.913 -54.042  1.00  0.00    -0.323 N 
HETATM   13  H   UNL     1     -40.632  54.526 -54.584  1.00  0.00     0.169 HD
HETATM   14  O   UNL     1     -43.280  53.962 -52.947  1.00  0.00    -0.267 OA
BRANCH  12  15
HETATM   15  C   UNL     1     -40.674  52.690 -53.624  1.00  0.00     0.037 A 
HETATM   16  C   UNL     1     -40.590  51.559 -54.440  1.00  0.00     0.066 A 
HETATM   17  C   UNL     1     -39.980  50.403 -53.956  1.00  0.00     0.067 A 
HETATM   18  C   UNL     1     -39.460  50.349 -52.669  1.00  0.00     0.036 A 
HETATM   19  C   UNL     1     -39.544  51.471 -51.849  1.00  0.00     0.005 A 
HETATM   20  C   UNL     1     -40.144  52.639 -52.327  1.00  0.00     0.029 A 
BRANCH  17  21
HETATM   21  O   UNL     1     -39.865  49.286 -54.731  1.00  0.00    -0.361 OA
HETATM   22  H   UNL     1     -39.624  49.561 -55.633  1.00  0.00     0.217 HD
ENDBRANCH  17  21
ENDBRANCH  12  15
ENDBRANCH   7  11
BRANCH   1  23
HETATM   23  C   UNL     1     -43.811  59.189 -51.862  1.00  0.00    -0.033 A 
HETATM   24  C   UNL     1     -42.560  58.658 -51.496  1.00  0.00     0.046 A 
HETATM   25  C   UNL     1     -41.652  59.384 -50.718  1.00  0.00     0.068 A 
HETATM   26  C   UNL     1     -41.999  60.657 -50.274  1.00  0.00     0.037 A 
HETATM   27  C   UNL     1     -43.236  61.201 -50.617  1.00  0.00     0.003 A 
HETATM   28  C   UNL     1     -44.130  60.478 -51.409  1.00  0.00     0.009 A 
BRANCH  25  29
HETATM   29  O   UNL     1     -40.472  58.740 -50.468  1.00  0.00    -0.356 OA
HETATM   30  C   UNL     1     -39.285  59.516 -50.578  1.00  0.00     0.210 C 
ENDBRANCH  25  29
ENDBRANCH   1  23
BRANCH   8  31
HETATM   31  C   UNL     1     -43.089  59.979 -55.250  1.00  0.00     0.409 C 
HETATM   32  F   UNL     1     -41.950  59.651 -54.614  1.00  0.00    -0.169 F 
HETATM   33  F   UNL     1     -42.760  60.343 -56.511  1.00  0.00    -0.169 F 
HETATM   34  F   UNL     1     -43.570  61.100 -54.651  1.00  0.00    -0.169 F 
ENDBRANCH   8  31
TORSDOF 6
ENDMDL
MODEL 4
REMARK VINA RESULT:      -8.4      3.536      7.560
REMARK  6 active torsions:
REMARK  status: ('A' for Active; 'I' for Inactive)
REMARK    1  A    between atoms: O_2  and  C_3 
REMARK    2  A    between atoms: C_5  and  C_6 
REMARK    3  A    between atoms: C_12  and  C_13 
REMARK       I    between atoms: C_13  and  N_14 
REMARK    4  A    between atoms: N_14  and  C_15 
REMARK    5  A    between atoms: C_17  and  O_18 
REMARK    6  A    between atoms: C_23  and  C_24 
ROOT
HETATM    1  C   UNL     1     -41.392  58.107 -54.181  1.00  0.00     0.118 C 
HETATM    2  N   UNL     1     -41.252  56.827 -53.482  1.00  0.00    -0.365 N 
HETATM    3  C   UNL     1     -41.282  56.766 -52.124  1.00  0.00     0.138 A 
HETATM    4  N   UNL     1     -41.237  57.899 -51.352  1.00  0.00    -0.240 N 
HETATM    5  N   UNL     1     -41.252  57.654 -50.033  1.00  0.00    -0.181 NA
HETATM    6  C   UNL     1     -41.398  56.327 -49.967  1.00  0.00     0.160 A 
HETATM    7  C   UNL     1     -41.391  55.708 -51.239  1.00  0.00     0.096 A 
HETATM    8  C   UNL     1     -41.172  59.253 -51.867  1.00  0.00     0.221 C 
HETATM    9  C   UNL     1     -40.783  59.251 -53.357  1.00  0.00     0.066 C 
HETATM   10  H   UNL     1     -41.647  56.053 -54.021  1.00  0.00     0.161 HD
ENDROOT
BRANCH   7  11
HETATM   11  C   UNL     1     -41.503  54.289 -51.529  1.00  0.00     0.261 C 
HETATM   12  N   UNL     1     -40.317  53.736 -51.973  1.00  0.00    -0.323 N 
HETATM   13  H   UNL     1     -39.499  54.325 -51.864  1.00  0.00     0.169 HD
HETATM   14  O   UNL     1     -42.556  53.690 -51.353  1.00  0.00    -0.267 OA
BRANCH  12  15
HETATM   15  C   UNL     1     -40.105  52.448 -52.499  1.00  0.00     0.037 A 
HETATM   16  C   UNL     1     -39.738  51.346 -51.723  1.00  0.00     0.066 A 
HETATM   17  C   UNL     1     -39.594  50.096 -52.324  1.00  0.00     0.067 A 
HETATM   18  C   UNL     1     -39.801  49.925 -53.687  1.00  0.00     0.036 A 
HETATM   19  C   UNL     1     -40.163  51.020 -54.467  1.00  0.00     0.005 A 
HETATM   20  C   UNL     1     -40.320  52.275 -53.874  1.00  0.00     0.029 A 
BRANCH  17  21
HETATM   21  O   UNL     1     -39.253  48.995 -51.593  1.00  0.00    -0.361 OA
HETATM   22  H   UNL     1     -39.916  48.874 -50.892  1.00  0.00     0.217 HD
ENDBRANCH  17  21
ENDBRANCH  12  15
ENDBRANCH   7  11
BRANCH   1  23
HETATM   23  C   UNL     1     -42.799  58.339 -54.698  1.00  0.00    -0.033 A 
HETATM   24  C   UNL     1     -43.043  59.450 -55.527  1.00  0.00     0.046 A 
HETATM   25  C   UNL     1     -44.306  59.694 -56.078  1.00  0.00     0.068 A 
HETATM   26  C   UNL     1     -45.357  58.830 -55.784  1.00  0.00     0.037 A 
HETATM   27  C   UNL     1     -45.141  57.726 -54.959  1.00  0.00     0.003 A 
HETATM   28  C   UNL     1     -43.873  57.479 -54.427  1.00  0.00     0.009 A 
BRANCH  25  29
HETATM   29  O   UNL     1     -44.375  60.800 -56.879  1.00  0.00    -0.356 OA
HETATM   30  C   UNL     1     -43.571  60.789 -58.053  1.00  0.00     0.210 C 
ENDBRANCH  25  29
ENDBRANCH   1  23
BRANCH   8  31
HETATM   31  C   UNL     1     -42.457  59.999 -51.575  1.00  0.00     0.409 C 
HETATM   32  F   UNL     1     -43.548  59.213 -51.552  1.00  0.00    -0.169 F 
HETATM   33  F   UNL     1     -42.408  60.662 -50.397  1.00  0.00    -0.169 F 
HETATM   34  F   UNL     1     -42.670  60.945 -52.528  1.00  0.00    -0.169 F 
ENDBRANCH   8  31
TORSDOF 6
ENDMDL
MODEL 5
REMARK VINA RESULT:      -8.3      2.827      7.625
REMARK  6 active torsions:
REMARK  status: ('A' for Active; 'I' for Inactive)
REMARK    1  A    between atoms: O_2  and  C_3 
REMARK    2  A    between atoms: C_5  and  C_6 
REMARK    3  A    between atoms: C_12  and  C_13 
REMARK       I    between atoms: C_13  and  N_14 
REMARK    4  A    between atoms: N_14  and  C_15 
REMARK    5  A    between atoms: C_17  and  O_18 
REMARK    6  A    between atoms: C_23  and  C_24 
ROOT
HETATM    1  C   UNL     1     -41.354  57.664 -54.606  1.00  0.00     0.118 C 
HETATM    2  N   UNL     1     -40.944  56.671 -53.610  1.00  0.00    -0.365 N 
HETATM    3  C   UNL     1     -41.672  56.476 -52.477  1.00  0.00     0.138 A 
HETATM    4  N   UNL     1     -42.688  57.326 -52.120  1.00  0.00    -0.240 N 
HETATM    5  N   UNL     1     -43.284  56.998 -50.964  1.00  0.00    -0.181 NA
HETATM    6  C   UNL     1     -42.683  55.854 -50.620  1.00  0.00     0.160 A 
HETATM    7  C   UNL     1     -41.642  55.490 -51.507  1.00  0.00     0.096 A 
HETATM    8  C   UNL     1     -43.110  58.484 -52.884  1.00  0.00     0.221 C 
HETATM    9  C   UNL     1     -42.049  58.859 -53.935  1.00  0.00     0.066 C 
HETATM   10  H   UNL     1     -40.474  55.871 -54.039  1.00  0.00     0.161 HD
ENDROOT
BRANCH   7  11
HETATM   11  C   UNL     1     -40.775  54.328 -51.418  1.00  0.00     0.261 C 
HETATM   12  N   UNL     1     -40.910  53.473 -52.496  1.00  0.00    -0.323 N 
HETATM   13  H   UNL     1     -41.440  53.845 -53.277  1.00  0.00     0.169 HD
HETATM   14  O   UNL     1     -40.004  54.186 -50.478  1.00  0.00    -0.267 OA
BRANCH  12  15
HETATM   15  C   UNL     1     -40.361  52.188 -52.656  1.00  0.00     0.037 A 
HETATM   16  C   UNL     1     -39.922  51.396 -51.593  1.00  0.00     0.066 A 
HETATM   17  C   UNL     1     -39.432  50.115 -51.843  1.00  0.00     0.067 A 
HETATM   18  C   UNL     1     -39.364  49.610 -53.136  1.00  0.00     0.036 A 
HETATM   19  C   UNL     1     -39.796  50.396 -54.200  1.00  0.00     0.005 A 
HETATM   20  C   UNL     1     -40.298  51.677 -53.961  1.00  0.00     0.029 A 
BRANCH  17  21
HETATM   21  O   UNL     1     -39.011  49.308 -50.826  1.00  0.00    -0.361 OA
HETATM   22  H   UNL     1     -38.248  49.729 -50.395  1.00  0.00     0.217 HD
ENDBRANCH  17  21
ENDBRANCH  12  15
ENDBRANCH   7  11
BRANCH   1  23
HETATM   23  C   UNL     1     -42.089  57.045 -55.780  1.00  0.00    -0.033 A 
HETATM   24  C   UNL     1     -42.495  57.875 -56.841  1.00  0.00     0.046 A 
HETATM   25  C   UNL     1     -43.132  57.361 -57.976  1.00  0.00     0.068 A 
HETATM   26  C   UNL     1     -43.392  55.996 -58.052  1.00  0.00     0.037 A 
HETATM   27  C   UNL     1     -43.005  55.154 -57.009  1.00  0.00     0.003 A 
HETATM   28  C   UNL     1     -42.353  55.672 -55.888  1.00  0.00     0.009 A 
BRANCH  25  29
HETATM   29  O   UNL     1     -43.443  58.293 -58.927  1.00  0.00    -0.356 OA
HETATM   30  C   UNL     1     -43.526  57.831 -60.270  1.00  0.00     0.210 C 
ENDBRANCH  25  29
ENDBRANCH   1  23
BRANCH   8  31
HETATM   31  C   UNL     1     -44.491  58.268 -53.465  1.00  0.00     0.409 C 
HETATM   32  F   UNL     1     -44.754  56.987 -53.780  1.00  0.00    -0.169 F 
HETATM   33  F   UNL     1     -45.469  58.690 -52.631  1.00  0.00    -0.169 F 
HETATM   34  F   UNL     1     -44.633  58.994 -54.605  1.00  0.00    -0.169 F 
ENDBRANCH   8  31
TORSDOF 6
ENDMDL
MODEL 6
REMARK VINA RESULT:      -8.3      3.414      7.954
REMARK  6 active torsions:
REMARK  status: ('A' for Active; 'I' for Inactive)
REMARK    1  A    between atoms: O_2  and  C_3 
REMARK    2  A    between atoms: C_5  and  C_6 
REMARK    3  A    between atoms: C_12  and  C_13 
REMARK       I    between atoms: C_13  and  N_14 
REMARK    4  A    between atoms: N_14  and  C_15 
REMARK    5  A    between atoms: C_17  and  O_18 
REMARK    6  A    between atoms: C_23  and  C_24 
ROOT
HETATM    1  C   UNL     1     -42.360  59.617 -56.556  1.00  0.00     0.118 C 
HETATM    2  N   UNL     1     -41.998  58.473 -55.715  1.00  0.00    -0.365 N 
HETATM    3  C   UNL     1     -42.955  57.645 -55.213  1.00  0.00     0.138 A 
HETATM    4  N   UNL     1     -44.288  57.954 -55.297  1.00  0.00    -0.240 N 
HETATM    5  N   UNL     1     -45.090  57.038 -54.731  1.00  0.00    -0.181 NA
HETATM    6  C   UNL     1     -44.242  56.076 -54.354  1.00  0.00     0.160 A 
HETATM    7  C   UNL     1     -42.888  56.408 -54.596  1.00  0.00     0.096 A 
HETATM    8  C   UNL     1     -44.828  59.146 -55.920  1.00  0.00     0.221 C 
HETATM    9  C   UNL     1     -43.722  60.194 -56.140  1.00  0.00     0.066 C 
HETATM   10  H   UNL     1     -41.091  58.081 -55.974  1.00  0.00     0.161 HD
ENDROOT
BRANCH   7  11
HETATM   11  C   UNL     1     -41.716  55.608 -54.289  1.00  0.00     0.261 C 
HETATM   12  N   UNL     1     -42.027  54.303 -53.959  1.00  0.00    -0.323 N 
HETATM   13  H   UNL     1     -42.984  54.026 -54.150  1.00  0.00     0.169 HD
HETATM   14  O   UNL     1     -40.590  56.085 -54.358  1.00  0.00    -0.267 OA
BRANCH  12  15
HETATM   15  C   UNL     1     -41.170  53.310 -53.449  1.00  0.00     0.037 A 
HETATM   16  C   UNL     1     -40.724  52.216 -54.194  1.00  0.00     0.066 A 
HETATM   17  C   UNL     1     -39.839  51.305 -53.619  1.00  0.00     0.067 A 
HETATM   18  C   UNL     1     -39.396  51.459 -52.311  1.00  0.00     0.036 A 
HETATM   19  C   UNL     1     -39.841  52.545 -51.562  1.00  0.00     0.005 A 
HETATM   20  C   UNL     1     -40.720  53.470 -52.131  1.00  0.00     0.029 A 
BRANCH  17  21
HETATM   21  O   UNL     1     -39.369  50.235 -54.323  1.00  0.00    -0.361 OA
HETATM   22  H   UNL     1     -38.690  49.789 -53.789  1.00  0.00     0.217 HD
ENDBRANCH  17  21
ENDBRANCH  12  15
ENDBRANCH   7  11
BRANCH   1  23
HETATM   23  C   UNL     1     -42.184  59.333 -58.035  1.00  0.00    -0.033 A 
HETATM   24  C   UNL     1     -42.166  57.996 -58.474  1.00  0.00     0.046 A 
HETATM   25  C   UNL     1     -42.057  57.667 -59.829  1.00  0.00     0.068 A 
HETATM   26  C   UNL     1     -41.941  58.686 -60.771  1.00  0.00     0.037 A 
HETATM   27  C   UNL     1     -41.949  60.019 -60.360  1.00  0.00     0.003 A 
HETATM   28  C   UNL     1     -42.076  60.340 -59.007  1.00  0.00     0.009 A 
BRANCH  25  29
HETATM   29  O   UNL     1     -42.078  56.326 -60.095  1.00  0.00    -0.356 OA
HETATM   30  C   UNL     1     -43.210  55.601 -59.630  1.00  0.00     0.210 C 
ENDBRANCH  25  29
ENDBRANCH   1  23
BRANCH   8  31
HETATM   31  C   UNL     1     -45.590  58.793 -57.181  1.00  0.00     0.409 C 
HETATM   32  F   UNL     1     -45.151  57.675 -57.786  1.00  0.00    -0.169 F 
HETATM   33  F   UNL     1     -46.914  58.637 -56.951  1.00  0.00    -0.169 F 
HETATM   34  F   UNL     1     -45.484  59.802 -58.085  1.00  0.00    -0.169 F 
ENDBRANCH   8  31
TORSDOF 6
ENDMDL
MODEL 7
REMARK VINA RESULT:      -7.9      2.764      7.263
REMARK  6 active torsions:
REMARK  status: ('A' for Active; 'I' for Inactive)
REMARK    1  A    between atoms: O_2  and  C_3 
REMARK    2  A    between atoms: C_5  and  C_6 
REMARK    3  A    between atoms: C_12  and  C_13 
REMARK       I    between atoms: C_13  and  N_14 
REMARK    4  A    between atoms: N_14  and  C_15 
REMARK    5  A    between atoms: C_17  and  O_18 
REMARK    6  A    between atoms: C_23  and  C_24 
ROOT
HETATM    1  C   UNL     1     -41.458  58.606 -53.836  1.00  0.00     0.118 C 
HETATM    2  N   UNL     1     -41.659  57.341 -53.124  1.00  0.00    -0.365 N 
HETATM    3  C   UNL     1     -42.710  57.178 -52.275  1.00  0.00     0.138 A 
HETATM    4  N   UNL     1     -43.497  58.234 -51.893  1.00  0.00    -0.240 N 
HETATM    5  N   UNL     1     -44.472  57.897 -51.036  1.00  0.00    -0.181 NA
HETATM    6  C   UNL     1     -44.353  56.570 -50.938  1.00  0.00     0.160 A 
HETATM    7  C   UNL     1     -43.249  56.060 -51.662  1.00  0.00     0.096 A 
HETATM    8  C   UNL     1     -43.326  59.602 -52.342  1.00  0.00     0.221 C 
HETATM    9  C   UNL     1     -41.944  59.794 -52.992  1.00  0.00     0.066 C 
HETATM   10  H   UNL     1     -41.335  56.540 -53.669  1.00  0.00     0.161 HD
ENDROOT
BRANCH   7  11
HETATM   11  C   UNL     1     -42.818  54.677 -51.753  1.00  0.00     0.261 C 
HETATM   12  N   UNL     1     -41.504  54.550 -52.164  1.00  0.00    -0.323 N 
HETATM   13  H   UNL     1     -40.968  55.411 -52.168  1.00  0.00     0.169 HD
HETATM   14  O   UNL     1     -43.572  53.759 -51.457  1.00  0.00    -0.267 OA
BRANCH  12  15
HETATM   15  C   UNL     1     -40.817  53.374 -52.519  1.00  0.00     0.037 A 
HETATM   16  C   UNL     1     -40.279  52.481 -51.589  1.00  0.00     0.066 A 
HETATM   17  C   UNL     1     -39.654  51.317 -52.033  1.00  0.00     0.067 A 
HETATM   18  C   UNL     1     -39.547  51.028 -53.387  1.00  0.00     0.036 A 
HETATM   19  C   UNL     1     -40.078  51.916 -54.320  1.00  0.00     0.005 A 
HETATM   20  C   UNL     1     -40.715  53.081 -53.887  1.00  0.00     0.029 A 
BRANCH  17  21
HETATM   21  O   UNL     1     -39.133  50.414 -51.151  1.00  0.00    -0.361 OA
HETATM   22  H   UNL     1     -38.406  49.941 -51.590  1.00  0.00     0.217 HD
ENDBRANCH  17  21
ENDBRANCH  12  15
ENDBRANCH   7  11
BRANCH   1  23
HETATM   23  C   UNL     1     -41.963  58.558 -55.266  1.00  0.00    -0.033 A 
HETATM   24  C   UNL     1     -42.329  57.316 -55.816  1.00  0.00     0.046 A 
HETATM   25  C   UNL     1     -42.849  57.209 -57.111  1.00  0.00     0.068 A 
HETATM   26  C   UNL     1     -42.988  58.356 -57.887  1.00  0.00     0.037 A 
HETATM   27  C   UNL     1     -42.624  59.598 -57.366  1.00  0.00     0.003 A 
HETATM   28  C   UNL     1     -42.123  59.699 -56.066  1.00  0.00     0.009 A 
BRANCH  25  29
HETATM   29  O   UNL     1     -43.179  55.938 -57.490  1.00  0.00    -0.356 OA
HETATM   30  C   UNL     1     -43.662  55.772 -58.817  1.00  0.00     0.210 C 
ENDBRANCH  25  29
ENDBRANCH   1  23
BRANCH   8  31
HETATM   31  C   UNL     1     -44.479  60.023 -53.229  1.00  0.00     0.409 C 
HETATM   32  F   UNL     1     -44.185  61.043 -54.055  1.00  0.00    -0.169 F 
HETATM   33  F   UNL     1     -44.936  59.002 -53.991  1.00  0.00    -0.169 F 
HETATM   34  F   UNL     1     -45.531  60.420 -52.466  1.00  0.00    -0.169 F 
ENDBRANCH   8  31
TORSDOF 6
ENDMDL
MODEL 8
REMARK VINA RESULT:      -7.9      3.656      7.037
REMARK  6 active torsions:
REMARK  status: ('A' for Active; 'I' for Inactive)
REMARK    1  A    between atoms: O_2  and  C_3 
REMARK    2  A    between atoms: C_5  and  C_6 
REMARK    3  A    between atoms: C_12  and  C_13 
REMARK       I    between atoms: C_13  and  N_14 
REMARK    4  A    between atoms: N_14  and  C_15 
REMARK    5  A    between atoms: C_17  and  O_18 
REMARK    6  A    between atoms: C_23  and  C_24 
ROOT
HETATM    1  C   UNL     1     -44.599  58.525 -53.018  1.00  0.00     0.118 C 
HETATM    2  N   UNL     1     -44.105  57.159 -53.208  1.00  0.00    -0.365 N 
HETATM    3  C   UNL     1     -43.384  56.824 -54.312  1.00  0.00     0.138 A 
HETATM    4  N   UNL     1     -43.264  57.678 -55.378  1.00  0.00    -0.240 N 
HETATM    5  N   UNL     1     -42.537  57.179 -56.390  1.00  0.00    -0.181 NA
HETATM    6  C   UNL     1     -42.112  56.005 -55.914  1.00  0.00     0.160 A 
HETATM    7  C   UNL     1     -42.632  55.708 -54.632  1.00  0.00     0.096 A 
HETATM    8  C   UNL     1     -43.853  59.001 -55.455  1.00  0.00     0.221 C 
HETATM    9  C   UNL     1     -44.929  59.182 -54.368  1.00  0.00     0.066 C 
HETATM   10  H   UNL     1     -43.887  56.705 -52.319  1.00  0.00     0.161 HD
ENDROOT
BRANCH   7  11
HETATM   11  C   UNL     1     -42.395  54.514 -53.840  1.00  0.00     0.261 C 
HETATM   12  N   UNL     1     -41.109  54.026 -53.973  1.00  0.00    -0.323 N 
HETATM   13  H   UNL     1     -40.459  54.648 -54.443  1.00  0.00     0.169 HD
HETATM   14  O   UNL     1     -43.272  54.048 -53.123  1.00  0.00    -0.267 OA
BRANCH  12  15
HETATM   15  C   UNL     1     -40.589  52.811 -53.493  1.00  0.00     0.037 A 
HETATM   16  C   UNL     1     -40.427  51.672 -54.285  1.00  0.00     0.066 A 
HETATM   17  C   UNL     1     -39.860  50.523 -53.734  1.00  0.00     0.067 A 
HETATM   18  C   UNL     1     -39.459  50.486 -52.405  1.00  0.00     0.036 A 
HETATM   19  C   UNL     1     -39.622  51.616 -51.609  1.00  0.00     0.005 A 
HETATM   20  C   UNL     1     -40.179  52.775 -52.153  1.00  0.00     0.029 A 
BRANCH  17  21
HETATM   21  O   UNL     1     -39.671  49.398 -54.484  1.00  0.00    -0.361 OA
HETATM   22  H   UNL     1     -38.982  48.858 -54.060  1.00  0.00     0.217 HD
ENDBRANCH  17  21
ENDBRANCH  12  15
ENDBRANCH   7  11
BRANCH   1  23
HETATM   23  C   UNL     1     -43.725  59.338 -52.083  1.00  0.00    -0.033 A 
HETATM   24  C   UNL     1     -44.153  60.622 -51.696  1.00  0.00     0.046 A 
HETATM   25  C   UNL     1     -43.419  61.404 -50.797  1.00  0.00     0.068 A 
HETATM   26  C   UNL     1     -42.222  60.911 -50.286  1.00  0.00     0.037 A 
HETATM   27  C   UNL     1     -41.773  59.645 -50.660  1.00  0.00     0.003 A 
HETATM   28  C   UNL     1     -42.520  58.863 -51.543  1.00  0.00     0.009 A 
BRANCH  25  29
HETATM   29  O   UNL     1     -43.981  62.615 -50.505  1.00  0.00    -0.356 OA
HETATM   30  C   UNL     1     -44.473  62.788 -49.181  1.00  0.00     0.210 C 
ENDBRANCH  25  29
ENDBRANCH   1  23
BRANCH   8  31
HETATM   31  C   UNL     1     -42.778  60.068 -55.429  1.00  0.00     0.409 C 
HETATM   32  F   UNL     1     -41.698  59.733 -54.701  1.00  0.00    -0.169 F 
HETATM   33  F   UNL     1     -42.348  60.391 -56.670  1.00  0.00    -0.169 F 
HETATM   34  F   UNL     1     -43.276  61.214 -54.895  1.00  0.00    -0.169 F 
ENDBRANCH   8  31
TORSDOF 6
ENDMDL
MODEL 9
REMARK VINA RESULT:      -7.8      4.621      7.697
REMARK  6 active torsions:
REMARK  status: ('A' for Active; 'I' for Inactive)
REMARK    1  A    between atoms: O_2  and  C_3 
REMARK    2  A    between atoms: C_5  and  C_6 
REMARK    3  A    between atoms: C_12  and  C_13 
REMARK       I    between atoms: C_13  and  N_14 
REMARK    4  A    between atoms: N_14  and  C_15 
REMARK    5  A    between atoms: C_17  and  O_18 
REMARK    6  A    between atoms: C_23  and  C_24 
ROOT
HETATM    1  C   UNL     1     -40.648  56.305 -52.146  1.00  0.00     0.118 C 
HETATM    2  N   UNL     1     -41.283  57.557 -51.727  1.00  0.00    -0.365 N 
HETATM    3  C   UNL     1     -42.552  57.860 -52.113  1.00  0.00     0.138 A 
HETATM    4  N   UNL     1     -43.209  57.121 -53.063  1.00  0.00    -0.240 N 
HETATM    5  N   UNL     1     -44.442  57.573 -53.339  1.00  0.00    -0.181 NA
HETATM    6  C   UNL     1     -44.603  58.579 -52.474  1.00  0.00     0.160 A 
HETATM    7  C   UNL     1     -43.446  58.832 -51.700  1.00  0.00     0.096 A 
HETATM    8  C   UNL     1     -42.664  55.960 -53.738  1.00  0.00     0.221 C 
HETATM    9  C   UNL     1     -41.139  55.880 -53.539  1.00  0.00     0.066 C 
HETATM   10  H   UNL     1     -40.962  57.858 -50.804  1.00  0.00     0.161 HD
ENDROOT
BRANCH   7  11
HETATM   11  C   UNL     1     -43.268  59.859 -50.689  1.00  0.00     0.261 C 
HETATM   12  N   UNL     1     -44.452  60.217 -50.072  1.00  0.00    -0.323 N 
HETATM   13  H   UNL     1     -45.239  59.605 -50.262  1.00  0.00     0.169 HD
HETATM   14  O   UNL     1     -42.157  60.306 -50.432  1.00  0.00    -0.267 OA
BRANCH  12  15
HETATM   15  C   UNL     1     -44.677  61.282 -49.181  1.00  0.00     0.037 A 
HETATM   16  C   UNL     1     -44.965  61.109 -47.825  1.00  0.00     0.066 A 
HETATM   17  C   UNL     1     -45.129  62.225 -47.006  1.00  0.00     0.067 A 
HETATM   18  C   UNL     1     -45.019  63.513 -47.516  1.00  0.00     0.036 A 
HETATM   19  C   UNL     1     -44.737  63.693 -48.867  1.00  0.00     0.005 A 
HETATM   20  C   UNL     1     -44.561  62.581 -49.695  1.00  0.00     0.029 A 
BRANCH  17  21
HETATM   21  O   UNL     1     -45.393  62.092 -45.674  1.00  0.00    -0.361 OA
HETATM   22  H   UNL     1     -45.015  62.857 -45.208  1.00  0.00     0.217 HD
ENDBRANCH  17  21
ENDBRANCH  12  15
ENDBRANCH   7  11
BRANCH   1  23
HETATM   23  C   UNL     1     -40.698  55.236 -51.072  1.00  0.00    -0.033 A 
HETATM   24  C   UNL     1     -40.343  53.917 -51.409  1.00  0.00     0.046 A 
HETATM   25  C   UNL     1     -40.320  52.893 -50.454  1.00  0.00     0.068 A 
HETATM   26  C   UNL     1     -40.678  53.179 -49.140  1.00  0.00     0.037 A 
HETATM   27  C   UNL     1     -41.040  54.478 -48.783  1.00  0.00     0.003 A 
HETATM   28  C   UNL     1     -41.043  55.497 -49.737  1.00  0.00     0.009 A 
BRANCH  25  29
HETATM   29  O   UNL     1     -39.932  51.674 -50.935  1.00  0.00    -0.356 OA
HETATM   30  C   UNL     1     -39.559  51.616 -52.306  1.00  0.00     0.210 C 
ENDBRANCH  25  29
ENDBRANCH   1  23
BRANCH   8  31
HETATM   31  C   UNL     1     -43.398  54.703 -53.319  1.00  0.00     0.409 C 
HETATM   32  F   UNL     1     -43.785  54.705 -52.031  1.00  0.00    -0.169 F 
HETATM   33  F   UNL     1     -44.497  54.477 -54.074  1.00  0.00    -0.169 F 
HETATM   34  F   UNL     1     -42.596  53.619 -53.492  1.00  0.00    -0.169 F 
ENDBRANCH   8  31
TORSDOF 6
ENDMDL
MODEL 10
REMARK VINA RESULT:      -7.7      5.006      8.109
REMARK  6 active torsions:
REMARK  status: ('A' for Active; 'I' for Inactive)
REMARK    1  A    between atoms: O_2  and  C_3 
REMARK    2  A    between atoms: C_5  and  C_6 
REMARK    3  A    between atoms: C_12  and  C_13 
REMARK       I    between atoms: C_13  and  N_14 
REMARK    4  A    between atoms: N_14  and  C_15 
REMARK    5  A    between atoms: C_17  and  O_18 
REMARK    6  A    between atoms: C_23  and  C_24 
ROOT
HETATM    1  C   UNL     1     -41.656  57.772 -51.528  1.00  0.00     0.118 C 
HETATM    2  N   UNL     1     -42.737  58.589 -50.971  1.00  0.00    -0.365 N 
HETATM    3  C   UNL     1     -43.627  59.219 -51.784  1.00  0.00     0.138 A 
HETATM    4  N   UNL     1     -43.437  59.288 -53.141  1.00  0.00    -0.240 N 
HETATM    5  N   UNL     1     -44.400  59.965 -53.786  1.00  0.00    -0.181 NA
HETATM    6  C   UNL     1     -45.272  60.260 -52.818  1.00  0.00     0.160 A 
HETATM    7  C   UNL     1     -44.833  59.851 -51.536  1.00  0.00     0.096 A 
HETATM    8  C   UNL     1     -42.316  58.707 -53.854  1.00  0.00     0.221 C 
HETATM    9  C   UNL     1     -41.185  58.334 -52.879  1.00  0.00     0.066 C 
HETATM   10  H   UNL     1     -43.058  58.233 -50.068  1.00  0.00     0.161 HD
ENDROOT
BRANCH   7  11
HETATM   11  C   UNL     1     -45.519  60.034 -50.269  1.00  0.00     0.261 C 
HETATM   12  N   UNL     1     -45.291  61.277 -49.710  1.00  0.00    -0.323 N 
HETATM   13  H   UNL     1     -44.843  61.950 -50.322  1.00  0.00     0.169 HD
HETATM   14  O   UNL     1     -46.235  59.155 -49.806  1.00  0.00    -0.267 OA
BRANCH  12  15
HETATM   15  C   UNL     1     -45.652  61.729 -48.427  1.00  0.00     0.037 A 
HETATM   16  C   UNL     1     -46.780  62.512 -48.172  1.00  0.00     0.066 A 
HETATM   17  C   UNL     1     -47.085  62.876 -46.861  1.00  0.00     0.067 A 
HETATM   18  C   UNL     1     -46.282  62.481 -45.799  1.00  0.00     0.036 A 
HETATM   19  C   UNL     1     -45.154  61.703 -46.047  1.00  0.00     0.005 A 
HETATM   20  C   UNL     1     -44.844  61.324 -47.355  1.00  0.00     0.029 A 
BRANCH  17  21
HETATM   21  O   UNL     1     -48.189  63.626 -46.574  1.00  0.00    -0.361 OA
HETATM   22  H   UNL     1     -47.913  64.554 -46.475  1.00  0.00     0.217 HD
ENDBRANCH  17  21
ENDBRANCH  12  15
ENDBRANCH   7  11
BRANCH   1  23
HETATM   23  C   UNL     1     -41.971  56.289 -51.502  1.00  0.00    -0.033 A 
HETATM   24  C   UNL     1     -41.021  55.383 -52.008  1.00  0.00     0.046 A 
HETATM   25  C   UNL     1     -41.228  54.000 -51.968  1.00  0.00     0.068 A 
HETATM   26  C   UNL     1     -42.413  53.503 -51.434  1.00  0.00     0.037 A 
HETATM   27  C   UNL     1     -43.374  54.382 -50.933  1.00  0.00     0.003 A 
HETATM   28  C   UNL     1     -43.152  55.760 -50.960  1.00  0.00     0.009 A 
BRANCH  25  29
HETATM   29  O   UNL     1     -40.201  53.254 -52.477  1.00  0.00    -0.356 OA
HETATM   30  C   UNL     1     -39.735  52.176 -51.675  1.00  0.00     0.210 C 
ENDBRANCH  25  29
ENDBRANCH   1  23
BRANCH   8  31
HETATM   31  C   UNL     1     -42.774  57.555 -54.723  1.00  0.00     0.409 C 
HETATM   32  F   UNL     1     -43.229  57.933 -55.931  1.00  0.00    -0.169 F 
HETATM   33  F   UNL     1     -41.793  56.645 -54.924  1.00  0.00    -0.169 F 
HETATM   34  F   UNL     1     -43.785  56.885 -54.110  1.00  0.00    -0.169 F 
ENDBRANCH   8  31
TORSDOF 6
ENDMDL
