MODEL 1
REMARK VINA RESULT:      -9.6      0.000      0.000
REMARK  5 active torsions:
REMARK  status: ('A' for Active; 'I' for Inactive)
REMARK    1  A    between atoms: C_7  and  C_8 
REMARK    2  A    between atoms: C_16  and  C_17 
REMARK    3  A    between atoms: C_19  and  O_20 
REMARK    4  A    between atoms: C_24  and  C_25 
REMARK       I    between atoms: C_25  and  N_26 
REMARK    5  A    between atoms: N_26  and  C_27 
ROOT
HETATM    1  C   UNL     1     -43.413  57.595 -53.588  1.00  0.00     0.070 C 
HETATM    2  C   UNL     1     -43.133  57.803 -55.056  1.00  0.00     0.037 C 
HETATM    3  N   UNL     1     -43.171  59.130 -55.493  1.00  0.00    -0.192 N 
HETATM    4  C   UNL     1     -42.652  59.506 -56.681  1.00  0.00     0.726 A 
HETATM    5  N   UNL     1     -42.358  58.549 -57.607  1.00  0.00    -0.083 N 
HETATM    6  N   UNL     1     -41.727  59.065 -58.678  1.00  0.00    -0.135 NA
HETATM    7  C   UNL     1     -41.705  60.375 -58.362  1.00  0.00     0.199 A 
HETATM    8  N   UNL     1     -42.282  60.673 -57.137  1.00  0.00    -0.041 NA
HETATM    9  C   UNL     1     -42.605  57.122 -57.408  1.00  0.00     0.202 C 
HETATM   10  C   UNL     1     -42.839  56.807 -55.933  1.00  0.00     0.062 C 
HETATM   11  H   UNL     1     -43.237  59.841 -54.768  1.00  0.00     0.184 HD
ENDROOT
BRANCH  10  12
HETATM   12  C   UNL     1     -42.502  55.430 -55.450  1.00  0.00     0.256 C 
HETATM   13  N   UNL     1     -41.296  55.325 -54.793  1.00  0.00    -0.323 N 
HETATM   14  H   UNL     1     -40.680  56.127 -54.775  1.00  0.00     0.169 HD
HETATM   15  O   UNL     1     -43.318  54.528 -55.609  1.00  0.00    -0.267 OA
BRANCH  13  16
HETATM   16  C   UNL     1     -40.796  54.199 -54.101  1.00  0.00     0.035 A 
HETATM   17  C   UNL     1     -40.322  53.040 -54.721  1.00  0.00     0.029 A 
HETATM   18  C   UNL     1     -39.866  51.962 -53.956  1.00  0.00     0.002 A 
HETATM   19  C   UNL     1     -39.884  52.028 -52.566  1.00  0.00     0.000 A 
HETATM   20  C   UNL     1     -40.352  53.178 -51.937  1.00  0.00     0.002 A 
HETATM   21  C   UNL     1     -40.799  54.260 -52.701  1.00  0.00     0.029 A 
ENDBRANCH  13  16
ENDBRANCH  10  12
BRANCH   9  22
HETATM   22  C   UNL     1     -43.760  56.690 -58.315  1.00  0.00    -0.025 A 
HETATM   23  C   UNL     1     -43.713  55.500 -59.068  1.00  0.00     0.046 A 
HETATM   24  C   UNL     1     -44.777  55.158 -59.900  1.00  0.00     0.066 A 
HETATM   25  C   UNL     1     -45.901  55.967 -59.989  1.00  0.00     0.036 A 
HETATM   26  C   UNL     1     -45.974  57.132 -59.231  1.00  0.00     0.003 A 
HETATM   27  C   UNL     1     -44.912  57.492 -58.397  1.00  0.00     0.010 A 
BRANCH  24  28
HETATM   28  O   UNL     1     -44.752  54.023 -60.654  1.00  0.00    -0.361 OA
HETATM   29  H   UNL     1     -44.193  54.170 -61.436  1.00  0.00     0.217 HD
ENDBRANCH  24  28
ENDBRANCH   9  22
BRANCH   7  30
HETATM   30  C   UNL     1     -41.082  61.395 -59.202  1.00  0.00     0.014 A 
HETATM   31  C   UNL     1     -41.388  61.487 -60.569  1.00  0.00     0.017 A 
HETATM   32  C   UNL     1     -40.772  62.449 -61.375  1.00  0.00     0.025 A 
HETATM   33  C   UNL     1     -39.844  63.326 -60.818  1.00  0.00     0.034 A 
HETATM   34 CL   UNL     1     -39.077  64.504 -61.810  1.00  0.00    -0.084 Cl
HETATM   35  C   UNL     1     -39.530  63.251 -59.463  1.00  0.00     0.025 A 
HETATM   36  C   UNL     1     -40.149  62.289 -58.658  1.00  0.00     0.017 A 
ENDBRANCH   7  30
TORSDOF 5
ENDMDL
MODEL 2
REMARK VINA RESULT:      -9.4      0.776      1.643
REMARK  5 active torsions:
REMARK  status: ('A' for Active; 'I' for Inactive)
REMARK    1  A    between atoms: C_7  and  C_8 
REMARK    2  A    between atoms: C_16  and  C_17 
REMARK    3  A    between atoms: C_19  and  O_20 
REMARK    4  A    between atoms: C_24  and  C_25 
REMARK       I    between atoms: C_25  and  N_26 
REMARK    5  A    between atoms: N_26  and  C_27 
ROOT
HETATM    1  C   UNL     1     -44.027  57.558 -53.686  1.00  0.00     0.070 C 
HETATM    2  C   UNL     1     -43.579  57.718 -55.117  1.00  0.00     0.037 C 
HETATM    3  N   UNL     1     -43.630  59.021 -55.622  1.00  0.00    -0.192 N 
HETATM    4  C   UNL     1     -42.987  59.374 -56.755  1.00  0.00     0.726 A 
HETATM    5  N   UNL     1     -42.532  58.396 -57.589  1.00  0.00    -0.083 N 
HETATM    6  N   UNL     1     -41.801  58.900 -58.601  1.00  0.00    -0.135 NA
HETATM    7  C   UNL     1     -41.886  60.221 -58.350  1.00  0.00     0.199 A 
HETATM    8  N   UNL     1     -42.625  60.539 -57.221  1.00  0.00    -0.041 NA
HETATM    9  C   UNL     1     -42.728  56.967 -57.351  1.00  0.00     0.202 C 
HETATM   10  C   UNL     1     -43.127  56.703 -55.901  1.00  0.00     0.062 C 
HETATM   11  H   UNL     1     -43.822  59.757 -54.947  1.00  0.00     0.184 HD
ENDROOT
BRANCH  10  12
HETATM   12  C   UNL     1     -42.782  55.370 -55.312  1.00  0.00     0.256 C 
HETATM   13  N   UNL     1     -41.538  55.300 -54.725  1.00  0.00    -0.323 N 
HETATM   14  H   UNL     1     -40.910  56.086 -54.820  1.00  0.00     0.169 HD
HETATM   15  O   UNL     1     -43.621  54.475 -55.335  1.00  0.00    -0.267 OA
BRANCH  13  16
HETATM   16  C   UNL     1     -41.014  54.232 -53.961  1.00  0.00     0.035 A 
HETATM   17  C   UNL     1     -41.010  54.191 -52.565  1.00  0.00     0.029 A 
HETATM   18  C   UNL     1     -40.448  53.103 -51.889  1.00  0.00     0.002 A 
HETATM   19  C   UNL     1     -39.879  52.050 -52.601  1.00  0.00     0.000 A 
HETATM   20  C   UNL     1     -39.879  52.080 -53.992  1.00  0.00     0.002 A 
HETATM   21  C   UNL     1     -40.449  53.162 -54.669  1.00  0.00     0.029 A 
ENDBRANCH  13  16
ENDBRANCH  10  12
BRANCH   9  22
HETATM   22  C   UNL     1     -43.738  56.431 -58.369  1.00  0.00    -0.025 A 
HETATM   23  C   UNL     1     -44.887  57.159 -58.736  1.00  0.00     0.046 A 
HETATM   24  C   UNL     1     -45.793  56.621 -59.647  1.00  0.00     0.066 A 
HETATM   25  C   UNL     1     -45.574  55.376 -60.221  1.00  0.00     0.036 A 
HETATM   26  C   UNL     1     -44.429  54.656 -59.889  1.00  0.00     0.003 A 
HETATM   27  C   UNL     1     -43.515  55.179 -58.971  1.00  0.00     0.010 A 
BRANCH  24  28
HETATM   28  O   UNL     1     -46.923  57.294 -60.007  1.00  0.00    -0.361 OA
HETATM   29  H   UNL     1     -47.277  56.911 -60.826  1.00  0.00     0.217 HD
ENDBRANCH  24  28
ENDBRANCH   9  22
BRANCH   7  30
HETATM   30  C   UNL     1     -41.217  61.238 -59.158  1.00  0.00     0.014 A 
HETATM   31  C   UNL     1     -40.306  62.135 -58.577  1.00  0.00     0.017 A 
HETATM   32  C   UNL     1     -39.686  63.122 -59.349  1.00  0.00     0.025 A 
HETATM   33  C   UNL     1     -39.975  63.220 -60.708  1.00  0.00     0.034 A 
HETATM   34 CL   UNL     1     -39.220  64.441 -61.656  1.00  0.00    -0.084 Cl
HETATM   35  C   UNL     1     -40.874  62.339 -61.302  1.00  0.00     0.025 A 
HETATM   36  C   UNL     1     -41.492  61.349 -60.529  1.00  0.00     0.017 A 
ENDBRANCH   7  30
TORSDOF 5
ENDMDL
MODEL 3
REMARK VINA RESULT:      -9.3      4.231      9.375
REMARK  5 active torsions:
REMARK  status: ('A' for Active; 'I' for Inactive)
REMARK    1  A    between atoms: C_7  and  C_8 
REMARK    2  A    between atoms: C_16  and  C_17 
REMARK    3  A    between atoms: C_19  and  O_20 
REMARK    4  A    between atoms: C_24  and  C_25 
REMARK       I    between atoms: C_25  and  N_26 
REMARK    5  A    between atoms: N_26  and  C_27 
ROOT
HETATM    1  C   UNL     1     -45.147  58.366 -55.732  1.00  0.00     0.070 C 
HETATM    2  C   UNL     1     -43.910  57.837 -55.047  1.00  0.00     0.037 C 
HETATM    3  N   UNL     1     -44.045  56.581 -54.449  1.00  0.00    -0.192 N 
HETATM    4  C   UNL     1     -42.974  55.850 -54.074  1.00  0.00     0.726 A 
HETATM    5  N   UNL     1     -41.755  56.456 -53.992  1.00  0.00    -0.083 N 
HETATM    6  N   UNL     1     -40.772  55.573 -53.738  1.00  0.00    -0.135 NA
HETATM    7  C   UNL     1     -41.473  54.427 -53.628  1.00  0.00     0.199 A 
HETATM    8  N   UNL     1     -42.838  54.575 -53.819  1.00  0.00    -0.041 NA
HETATM    9  C   UNL     1     -41.534  57.877 -54.255  1.00  0.00     0.202 C 
HETATM   10  C   UNL     1     -42.717  58.486 -55.004  1.00  0.00     0.062 C 
HETATM   11  H   UNL     1     -44.905  56.077 -54.650  1.00  0.00     0.184 HD
ENDROOT
BRANCH  10  12
HETATM   12  C   UNL     1     -42.455  59.676 -55.874  1.00  0.00     0.256 C 
HETATM   13  N   UNL     1     -41.905  59.387 -57.104  1.00  0.00    -0.323 N 
HETATM   14  H   UNL     1     -41.617  58.436 -57.296  1.00  0.00     0.169 HD
HETATM   15  O   UNL     1     -42.790  60.788 -55.477  1.00  0.00    -0.267 OA
BRANCH  13  16
HETATM   16  C   UNL     1     -41.700  60.280 -58.179  1.00  0.00     0.035 A 
HETATM   17  C   UNL     1     -41.006  61.488 -58.077  1.00  0.00     0.029 A 
HETATM   18  C   UNL     1     -40.869  62.324 -59.189  1.00  0.00     0.002 A 
HETATM   19  C   UNL     1     -41.429  61.966 -60.412  1.00  0.00     0.000 A 
HETATM   20  C   UNL     1     -42.121  60.763 -60.526  1.00  0.00     0.002 A 
HETATM   21  C   UNL     1     -42.250  59.922 -59.417  1.00  0.00     0.029 A 
ENDBRANCH  13  16
ENDBRANCH  10  12
BRANCH   9  22
HETATM   22  C   UNL     1     -41.223  58.581 -52.931  1.00  0.00    -0.025 A 
HETATM   23  C   UNL     1     -39.901  58.820 -52.505  1.00  0.00     0.046 A 
HETATM   24  C   UNL     1     -39.664  59.441 -51.281  1.00  0.00     0.066 A 
HETATM   25  C   UNL     1     -40.716  59.850 -50.473  1.00  0.00     0.036 A 
HETATM   26  C   UNL     1     -42.027  59.645 -50.893  1.00  0.00     0.003 A 
HETATM   27  C   UNL     1     -42.282  59.017 -52.114  1.00  0.00     0.010 A 
BRANCH  24  28
HETATM   28  O   UNL     1     -38.396  59.668 -50.834  1.00  0.00    -0.361 OA
HETATM   29  H   UNL     1     -38.408  60.400 -50.195  1.00  0.00     0.217 HD
ENDBRANCH  24  28
ENDBRANCH   9  22
BRANCH   7  30
HETATM   30  C   UNL     1     -40.855  53.126 -53.382  1.00  0.00     0.014 A 
HETATM   31  C   UNL     1     -40.771  52.165 -54.402  1.00  0.00     0.017 A 
HETATM   32  C   UNL     1     -40.201  50.912 -54.158  1.00  0.00     0.025 A 
HETATM   33  C   UNL     1     -39.713  50.611 -52.889  1.00  0.00     0.034 A 
HETATM   34 CL   UNL     1     -39.021  49.066 -52.583  1.00  0.00    -0.084 Cl
HETATM   35  C   UNL     1     -39.786  51.552 -51.864  1.00  0.00     0.025 A 
HETATM   36  C   UNL     1     -40.354  52.806 -52.112  1.00  0.00     0.017 A 
ENDBRANCH   7  30
TORSDOF 5
ENDMDL
MODEL 4
REMARK VINA RESULT:      -9.2      4.129      9.277
REMARK  5 active torsions:
REMARK  status: ('A' for Active; 'I' for Inactive)
REMARK    1  A    between atoms: C_7  and  C_8 
REMARK    2  A    between atoms: C_16  and  C_17 
REMARK    3  A    between atoms: C_19  and  O_20 
REMARK    4  A    between atoms: C_24  and  C_25 
REMARK       I    between atoms: C_25  and  N_26 
REMARK    5  A    between atoms: N_26  and  C_27 
ROOT
HETATM    1  C   UNL     1     -45.300  58.178 -56.100  1.00  0.00     0.070 C 
HETATM    2  C   UNL     1     -44.095  57.694 -55.332  1.00  0.00     0.037 C 
HETATM    3  N   UNL     1     -44.216  56.424 -54.760  1.00  0.00    -0.192 N 
HETATM    4  C   UNL     1     -43.143  55.736 -54.316  1.00  0.00     0.726 A 
HETATM    5  N   UNL     1     -41.962  56.394 -54.137  1.00  0.00    -0.083 N 
HETATM    6  N   UNL     1     -40.961  55.552 -53.822  1.00  0.00    -0.135 NA
HETATM    7  C   UNL     1     -41.616  54.375 -53.776  1.00  0.00     0.199 A 
HETATM    8  N   UNL     1     -42.969  54.465 -54.066  1.00  0.00    -0.041 NA
HETATM    9  C   UNL     1     -41.787  57.827 -54.366  1.00  0.00     0.202 C 
HETATM   10  C   UNL     1     -42.938  58.394 -55.194  1.00  0.00     0.062 C 
HETATM   11  H   UNL     1     -45.035  55.886 -55.029  1.00  0.00     0.184 HD
ENDROOT
BRANCH  10  12
HETATM   12  C   UNL     1     -42.667  59.608 -56.028  1.00  0.00     0.256 C 
HETATM   13  N   UNL     1     -42.017  59.361 -57.217  1.00  0.00    -0.323 N 
HETATM   14  H   UNL     1     -41.673  58.427 -57.399  1.00  0.00     0.169 HD
HETATM   15  O   UNL     1     -43.080  60.697 -55.645  1.00  0.00    -0.267 OA
BRANCH  13  16
HETATM   16  C   UNL     1     -41.774  60.279 -58.264  1.00  0.00     0.035 A 
HETATM   17  C   UNL     1     -42.337  60.185 -59.539  1.00  0.00     0.029 A 
HETATM   18  C   UNL     1     -42.023  61.126 -60.524  1.00  0.00     0.002 A 
HETATM   19  C   UNL     1     -41.139  62.166 -60.248  1.00  0.00     0.000 A 
HETATM   20  C   UNL     1     -40.573  62.270 -58.981  1.00  0.00     0.002 A 
HETATM   21  C   UNL     1     -40.894  61.335 -57.993  1.00  0.00     0.029 A 
ENDBRANCH  13  16
ENDBRANCH  10  12
BRANCH   9  22
HETATM   22  C   UNL     1     -41.605  58.524 -53.015  1.00  0.00    -0.025 A 
HETATM   23  C   UNL     1     -42.703  58.956 -52.244  1.00  0.00     0.046 A 
HETATM   24  C   UNL     1     -42.491  59.608 -51.032  1.00  0.00     0.066 A 
HETATM   25  C   UNL     1     -41.205  59.829 -50.556  1.00  0.00     0.036 A 
HETATM   26  C   UNL     1     -40.111  59.385 -51.294  1.00  0.00     0.003 A 
HETATM   27  C   UNL     1     -40.308  58.735 -52.515  1.00  0.00     0.010 A 
BRANCH  24  28
HETATM   28  O   UNL     1     -43.532  60.054 -50.274  1.00  0.00    -0.361 OA
HETATM   29  H   UNL     1     -43.223  60.213 -49.366  1.00  0.00     0.217 HD
ENDBRANCH  24  28
ENDBRANCH   9  22
BRANCH   7  30
HETATM   30  C   UNL     1     -40.960  53.099 -53.501  1.00  0.00     0.014 A 
HETATM   31  C   UNL     1     -40.928  52.082 -54.469  1.00  0.00     0.017 A 
HETATM   32  C   UNL     1     -40.321  50.853 -54.194  1.00  0.00     0.025 A 
HETATM   33  C   UNL     1     -39.741  50.633 -52.946  1.00  0.00     0.034 A 
HETATM   34 CL   UNL     1     -39.002  49.118 -52.603  1.00  0.00    -0.084 Cl
HETATM   35  C   UNL     1     -39.761  51.630 -51.974  1.00  0.00     0.025 A 
HETATM   36  C   UNL     1     -40.367  52.860 -52.253  1.00  0.00     0.017 A 
ENDBRANCH   7  30
TORSDOF 5
ENDMDL
MODEL 5
REMARK VINA RESULT:      -8.5      4.127      8.395
REMARK  5 active torsions:
REMARK  status: ('A' for Active; 'I' for Inactive)
REMARK    1  A    between atoms: C_7  and  C_8 
REMARK    2  A    between atoms: C_16  and  C_17 
REMARK    3  A    between atoms: C_19  and  O_20 
REMARK    4  A    between atoms: C_24  and  C_25 
REMARK       I    between atoms: C_25  and  N_26 
REMARK    5  A    between atoms: N_26  and  C_27 
ROOT
HETATM    1  C   UNL     1     -42.450  60.483 -53.792  1.00  0.00     0.070 C 
HETATM    2  C   UNL     1     -42.435  59.089 -54.368  1.00  0.00     0.037 C 
HETATM    3  N   UNL     1     -41.331  58.306 -54.019  1.00  0.00    -0.192 N 
HETATM    4  C   UNL     1     -41.321  56.968 -54.195  1.00  0.00     0.726 A 
HETATM    5  N   UNL     1     -42.265  56.398 -54.997  1.00  0.00    -0.083 N 
HETATM    6  N   UNL     1     -42.206  55.054 -54.966  1.00  0.00    -0.135 NA
HETATM    7  C   UNL     1     -41.155  54.859 -54.145  1.00  0.00     0.199 A 
HETATM    8  N   UNL     1     -40.584  56.028 -53.665  1.00  0.00    -0.041 NA
HETATM    9  C   UNL     1     -43.283  57.158 -55.720  1.00  0.00     0.202 C 
HETATM   10  C   UNL     1     -43.412  58.572 -55.160  1.00  0.00     0.062 C 
HETATM   11  H   UNL     1     -40.719  58.686 -53.302  1.00  0.00     0.184 HD
ENDROOT
BRANCH  10  12
HETATM   12  C   UNL     1     -44.731  59.267 -55.309  1.00  0.00     0.256 C 
HETATM   13  N   UNL     1     -44.955  59.827 -56.548  1.00  0.00    -0.323 N 
HETATM   14  H   UNL     1     -44.201  59.835 -57.222  1.00  0.00     0.169 HD
HETATM   15  O   UNL     1     -45.524  59.241 -54.374  1.00  0.00    -0.267 OA
BRANCH  13  16
HETATM   16  C   UNL     1     -46.157  60.399 -57.020  1.00  0.00     0.035 A 
HETATM   17  C   UNL     1     -46.570  61.705 -56.743  1.00  0.00     0.029 A 
HETATM   18  C   UNL     1     -47.788  62.184 -57.233  1.00  0.00     0.002 A 
HETATM   19  C   UNL     1     -48.609  61.362 -58.001  1.00  0.00     0.000 A 
HETATM   20  C   UNL     1     -48.208  60.060 -58.286  1.00  0.00     0.002 A 
HETATM   21  C   UNL     1     -46.986  59.584 -57.803  1.00  0.00     0.029 A 
ENDBRANCH  13  16
ENDBRANCH  10  12
BRANCH   9  22
HETATM   22  C   UNL     1     -42.958  57.121 -57.216  1.00  0.00    -0.025 A 
HETATM   23  C   UNL     1     -43.472  56.124 -58.068  1.00  0.00     0.046 A 
HETATM   24  C   UNL     1     -43.130  56.115 -59.418  1.00  0.00     0.066 A 
HETATM   25  C   UNL     1     -42.297  57.090 -59.949  1.00  0.00     0.036 A 
HETATM   26  C   UNL     1     -41.802  58.097 -59.126  1.00  0.00     0.003 A 
HETATM   27  C   UNL     1     -42.131  58.116 -57.768  1.00  0.00     0.010 A 
BRANCH  24  28
HETATM   28  O   UNL     1     -43.597  55.152 -60.262  1.00  0.00    -0.361 OA
HETATM   29  H   UNL     1     -42.896  54.908 -60.890  1.00  0.00     0.217 HD
ENDBRANCH  24  28
ENDBRANCH   9  22
BRANCH   7  30
HETATM   30  C   UNL     1     -40.683  53.536 -53.743  1.00  0.00     0.014 A 
HETATM   31  C   UNL     1     -40.588  52.491 -54.676  1.00  0.00     0.017 A 
HETATM   32  C   UNL     1     -40.158  51.220 -54.284  1.00  0.00     0.025 A 
HETATM   33  C   UNL     1     -39.822  50.985 -52.952  1.00  0.00     0.034 A 
HETATM   34 CL   UNL     1     -39.303  49.419 -52.466  1.00  0.00    -0.084 Cl
HETATM   35  C   UNL     1     -39.908  52.010 -52.013  1.00  0.00     0.025 A 
HETATM   36  C   UNL     1     -40.335  53.282 -52.409  1.00  0.00     0.017 A 
ENDBRANCH   7  30
TORSDOF 5
ENDMDL
MODEL 6
REMARK VINA RESULT:      -8.3      5.069      9.108
REMARK  5 active torsions:
REMARK  status: ('A' for Active; 'I' for Inactive)
REMARK    1  A    between atoms: C_7  and  C_8 
REMARK    2  A    between atoms: C_16  and  C_17 
REMARK    3  A    between atoms: C_19  and  O_20 
REMARK    4  A    between atoms: C_24  and  C_25 
REMARK       I    between atoms: C_25  and  N_26 
REMARK    5  A    between atoms: N_26  and  C_27 
ROOT
HETATM    1  C   UNL     1     -42.965  60.683 -49.846  1.00  0.00     0.070 C 
HETATM    2  C   UNL     1     -43.038  59.666 -50.958  1.00  0.00     0.037 C 
HETATM    3  N   UNL     1     -41.891  58.888 -51.138  1.00  0.00    -0.192 N 
HETATM    4  C   UNL     1     -41.905  57.753 -51.868  1.00  0.00     0.726 A 
HETATM    5  N   UNL     1     -42.962  57.511 -52.694  1.00  0.00    -0.083 N 
HETATM    6  N   UNL     1     -42.896  56.286 -53.248  1.00  0.00    -0.135 NA
HETATM    7  C   UNL     1     -41.728  55.837 -52.748  1.00  0.00     0.199 A 
HETATM    8  N   UNL     1     -41.091  56.731 -51.901  1.00  0.00    -0.041 NA
HETATM    9  C   UNL     1     -44.084  58.431 -52.871  1.00  0.00     0.202 C 
HETATM   10  C   UNL     1     -44.126  59.465 -51.748  1.00  0.00     0.062 C 
HETATM   11  H   UNL     1     -41.174  58.972 -50.421  1.00  0.00     0.184 HD
ENDROOT
BRANCH  10  12
HETATM   12  C   UNL     1     -45.454  60.063 -51.397  1.00  0.00     0.256 C 
HETATM   13  N   UNL     1     -45.685  61.313 -51.929  1.00  0.00    -0.323 N 
HETATM   14  H   UNL     1     -44.932  61.783 -52.413  1.00  0.00     0.169 HD
HETATM   15  O   UNL     1     -46.247  59.403 -50.734  1.00  0.00    -0.267 OA
BRANCH  13  16
HETATM   16  C   UNL     1     -46.895  62.043 -51.898  1.00  0.00     0.035 A 
HETATM   17  C   UNL     1     -47.918  61.911 -52.839  1.00  0.00     0.029 A 
HETATM   18  C   UNL     1     -49.074  62.692 -52.745  1.00  0.00     0.002 A 
HETATM   19  C   UNL     1     -49.217  63.617 -51.714  1.00  0.00     0.000 A 
HETATM   20  C   UNL     1     -48.204  63.755 -50.769  1.00  0.00     0.002 A 
HETATM   21  C   UNL     1     -47.053  62.968 -50.857  1.00  0.00     0.029 A 
ENDBRANCH  13  16
ENDBRANCH  10  12
BRANCH   9  22
HETATM   22  C   UNL     1     -43.999  59.051 -54.268  1.00  0.00    -0.025 A 
HETATM   23  C   UNL     1     -42.828  59.681 -54.735  1.00  0.00     0.046 A 
HETATM   24  C   UNL     1     -42.803  60.254 -56.004  1.00  0.00     0.066 A 
HETATM   25  C   UNL     1     -43.915  60.200 -56.834  1.00  0.00     0.036 A 
HETATM   26  C   UNL     1     -45.070  59.557 -56.396  1.00  0.00     0.003 A 
HETATM   27  C   UNL     1     -45.113  58.984 -55.123  1.00  0.00     0.010 A 
BRANCH  24  28
HETATM   28  O   UNL     1     -41.691  60.887 -56.476  1.00  0.00    -0.361 OA
HETATM   29  H   UNL     1     -41.403  60.458 -57.299  1.00  0.00     0.217 HD
ENDBRANCH  24  28
ENDBRANCH   9  22
BRANCH   7  30
HETATM   30  C   UNL     1     -41.195  54.504 -53.021  1.00  0.00     0.014 A 
HETATM   31  C   UNL     1     -40.598  53.745 -52.002  1.00  0.00     0.017 A 
HETATM   32  C   UNL     1     -40.067  52.480 -52.272  1.00  0.00     0.025 A 
HETATM   33  C   UNL     1     -40.128  51.967 -53.565  1.00  0.00     0.034 A 
HETATM   34 CL   UNL     1     -39.466  50.415 -53.901  1.00  0.00    -0.084 Cl
HETATM   35  C   UNL     1     -40.718  52.704 -54.589  1.00  0.00     0.025 A 
HETATM   36  C   UNL     1     -41.251  53.969 -54.316  1.00  0.00     0.017 A 
ENDBRANCH   7  30
TORSDOF 5
ENDMDL
MODEL 7
REMARK VINA RESULT:      -8.2      4.148      6.043
REMARK  5 active torsions:
REMARK  status: ('A' for Active; 'I' for Inactive)
REMARK    1  A    between atoms: C_7  and  C_8 
REMARK    2  A    between atoms: C_16  and  C_17 
REMARK    3  A    between atoms: C_19  and  O_20 
REMARK    4  A    between atoms: C_24  and  C_25 
REMARK       I    between atoms: C_25  and  N_26 
REMARK    5  A    between atoms: N_26  and  C_27 
ROOT
HETATM    1  C   UNL     1     -40.668  54.652 -55.417  1.00  0.00     0.070 C 
HETATM    2  C   UNL     1     -41.787  55.662 -55.364  1.00  0.00     0.037 C 
HETATM    3  N   UNL     1     -42.061  56.321 -56.565  1.00  0.00    -0.192 N 
HETATM    4  C   UNL     1     -43.205  57.010 -56.757  1.00  0.00     0.726 A 
HETATM    5  N   UNL     1     -43.973  57.332 -55.678  1.00  0.00    -0.083 N 
HETATM    6  N   UNL     1     -45.139  57.897 -56.041  1.00  0.00    -0.135 NA
HETATM    7  C   UNL     1     -45.002  57.937 -57.381  1.00  0.00     0.199 A 
HETATM    8  N   UNL     1     -43.809  57.405 -57.847  1.00  0.00    -0.041 NA
HETATM    9  C   UNL     1     -43.615  57.004 -54.298  1.00  0.00     0.202 C 
HETATM   10  C   UNL     1     -42.525  55.936 -54.255  1.00  0.00     0.062 C 
HETATM   11  H   UNL     1     -41.589  55.963 -57.392  1.00  0.00     0.184 HD
ENDROOT
BRANCH  10  12
HETATM   12  C   UNL     1     -42.459  55.052 -53.048  1.00  0.00     0.256 C 
HETATM   13  N   UNL     1     -41.359  55.250 -52.243  1.00  0.00    -0.323 N 
HETATM   14  H   UNL     1     -40.631  55.876 -52.559  1.00  0.00     0.169 HD
HETATM   15  O   UNL     1     -43.385  54.279 -52.827  1.00  0.00    -0.267 OA
BRANCH  13  16
HETATM   16  C   UNL     1     -41.116  54.679 -50.973  1.00  0.00     0.035 A 
HETATM   17  C   UNL     1     -41.261  55.360 -49.763  1.00  0.00     0.029 A 
HETATM   18  C   UNL     1     -40.977  54.724 -48.551  1.00  0.00     0.002 A 
HETATM   19  C   UNL     1     -40.539  53.402 -48.536  1.00  0.00     0.000 A 
HETATM   20  C   UNL     1     -40.392  52.712 -49.736  1.00  0.00     0.002 A 
HETATM   21  C   UNL     1     -40.686  53.345 -50.947  1.00  0.00     0.029 A 
ENDBRANCH  13  16
ENDBRANCH  10  12
BRANCH   9  22
HETATM   22  C   UNL     1     -43.236  58.294 -53.566  1.00  0.00    -0.025 A 
HETATM   23  C   UNL     1     -43.575  58.514 -52.216  1.00  0.00     0.046 A 
HETATM   24  C   UNL     1     -43.232  59.713 -51.597  1.00  0.00     0.066 A 
HETATM   25  C   UNL     1     -42.539  60.699 -52.286  1.00  0.00     0.036 A 
HETATM   26  C   UNL     1     -42.173  60.485 -53.612  1.00  0.00     0.003 A 
HETATM   27  C   UNL     1     -42.516  59.290 -54.250  1.00  0.00     0.010 A 
BRANCH  24  28
HETATM   28  O   UNL     1     -43.563  59.962 -50.299  1.00  0.00    -0.361 OA
HETATM   29  H   UNL     1     -43.995  60.830 -50.239  1.00  0.00     0.217 HD
ENDBRANCH  24  28
ENDBRANCH   9  22
BRANCH   7  30
HETATM   30  C   UNL     1     -46.036  58.443 -58.281  1.00  0.00     0.014 A 
HETATM   31  C   UNL     1     -46.092  58.025 -59.620  1.00  0.00     0.017 A 
HETATM   32  C   UNL     1     -47.068  58.529 -60.486  1.00  0.00     0.025 A 
HETATM   33  C   UNL     1     -47.994  59.457 -60.016  1.00  0.00     0.034 A 
HETATM   34 CL   UNL     1     -49.189  60.086 -61.082  1.00  0.00    -0.084 Cl
HETATM   35  C   UNL     1     -47.956  59.882 -58.690  1.00  0.00     0.025 A 
HETATM   36  C   UNL     1     -46.980  59.374 -57.826  1.00  0.00     0.017 A 
ENDBRANCH   7  30
TORSDOF 5
ENDMDL
MODEL 8
REMARK VINA RESULT:      -8.2      5.145      8.931
REMARK  5 active torsions:
REMARK  status: ('A' for Active; 'I' for Inactive)
REMARK    1  A    between atoms: C_7  and  C_8 
REMARK    2  A    between atoms: C_16  and  C_17 
REMARK    3  A    between atoms: C_19  and  O_20 
REMARK    4  A    between atoms: C_24  and  C_25 
REMARK       I    between atoms: C_25  and  N_26 
REMARK    5  A    between atoms: N_26  and  C_27 
ROOT
HETATM    1  C   UNL     1     -41.998  60.744 -50.454  1.00  0.00     0.070 C 
HETATM    2  C   UNL     1     -42.369  59.557 -51.308  1.00  0.00     0.037 C 
HETATM    3  N   UNL     1     -41.302  58.750 -51.712  1.00  0.00    -0.192 N 
HETATM    4  C   UNL     1     -41.492  57.509 -52.207  1.00  0.00     0.726 A 
HETATM    5  N   UNL     1     -42.743  57.141 -52.608  1.00  0.00    -0.083 N 
HETATM    6  N   UNL     1     -42.798  55.841 -52.950  1.00  0.00    -0.135 NA
HETATM    7  C   UNL     1     -41.514  55.471 -52.777  1.00  0.00     0.199 A 
HETATM    8  N   UNL     1     -40.685  56.489 -52.330  1.00  0.00    -0.041 NA
HETATM    9  C   UNL     1     -43.903  58.029 -52.568  1.00  0.00     0.202 C 
HETATM   10  C   UNL     1     -43.639  59.236 -51.672  1.00  0.00     0.062 C 
HETATM   11  H   UNL     1     -40.401  58.946 -51.281  1.00  0.00     0.184 HD
ENDROOT
BRANCH  10  12
HETATM   12  C   UNL     1     -44.816  59.896 -51.022  1.00  0.00     0.256 C 
HETATM   13  N   UNL     1     -44.644  60.211 -49.692  1.00  0.00    -0.323 N 
HETATM   14  H   UNL     1     -43.809  59.890 -49.221  1.00  0.00     0.169 HD
HETATM   15  O   UNL     1     -45.800  60.161 -51.704  1.00  0.00    -0.267 OA
BRANCH  13  16
HETATM   16  C   UNL     1     -45.512  60.970 -48.875  1.00  0.00     0.035 A 
HETATM   17  C   UNL     1     -46.254  62.066 -49.320  1.00  0.00     0.029 A 
HETATM   18  C   UNL     1     -47.073  62.775 -48.436  1.00  0.00     0.002 A 
HETATM   19  C   UNL     1     -47.153  62.401 -47.097  1.00  0.00     0.000 A 
HETATM   20  C   UNL     1     -46.418  61.309 -46.642  1.00  0.00     0.002 A 
HETATM   21  C   UNL     1     -45.608  60.594 -47.528  1.00  0.00     0.029 A 
ENDBRANCH  13  16
ENDBRANCH  10  12
BRANCH   9  22
HETATM   22  C   UNL     1     -44.286  58.406 -54.002  1.00  0.00    -0.025 A 
HETATM   23  C   UNL     1     -45.416  57.860 -54.641  1.00  0.00     0.046 A 
HETATM   24  C   UNL     1     -45.713  58.213 -55.956  1.00  0.00     0.066 A 
HETATM   25  C   UNL     1     -44.917  59.115 -56.649  1.00  0.00     0.036 A 
HETATM   26  C   UNL     1     -43.812  59.683 -56.022  1.00  0.00     0.003 A 
HETATM   27  C   UNL     1     -43.498  59.334 -54.706  1.00  0.00     0.010 A 
BRANCH  24  28
HETATM   28  O   UNL     1     -46.788  57.687 -56.607  1.00  0.00    -0.361 OA
HETATM   29  H   UNL     1     -46.586  56.775 -56.877  1.00  0.00     0.217 HD
ENDBRANCH  24  28
ENDBRANCH   9  22
BRANCH   7  30
HETATM   30  C   UNL     1     -41.034  54.107 -52.985  1.00  0.00     0.014 A 
HETATM   31  C   UNL     1     -40.368  53.414 -51.962  1.00  0.00     0.017 A 
HETATM   32  C   UNL     1     -39.888  52.118 -52.173  1.00  0.00     0.025 A 
HETATM   33  C   UNL     1     -40.071  51.506 -53.411  1.00  0.00     0.034 A 
HETATM   34 CL   UNL     1     -39.472  49.915 -53.675  1.00  0.00    -0.084 Cl
HETATM   35  C   UNL     1     -40.731  52.177 -54.437  1.00  0.00     0.025 A 
HETATM   36  C   UNL     1     -41.212  53.473 -54.224  1.00  0.00     0.017 A 
ENDBRANCH   7  30
TORSDOF 5
ENDMDL
MODEL 9
REMARK VINA RESULT:      -8.1      4.157      9.397
REMARK  5 active torsions:
REMARK  status: ('A' for Active; 'I' for Inactive)
REMARK    1  A    between atoms: C_7  and  C_8 
REMARK    2  A    between atoms: C_16  and  C_17 
REMARK    3  A    between atoms: C_19  and  O_20 
REMARK    4  A    between atoms: C_24  and  C_25 
REMARK       I    between atoms: C_25  and  N_26 
REMARK    5  A    between atoms: N_26  and  C_27 
ROOT
HETATM    1  C   UNL     1     -44.544  57.824 -57.635  1.00  0.00     0.070 C 
HETATM    2  C   UNL     1     -43.751  57.543 -56.382  1.00  0.00     0.037 C 
HETATM    3  N   UNL     1     -43.878  56.249 -55.868  1.00  0.00    -0.192 N 
HETATM    4  C   UNL     1     -43.016  55.757 -54.954  1.00  0.00     0.726 A 
HETATM    5  N   UNL     1     -42.191  56.617 -54.291  1.00  0.00    -0.083 N 
HETATM    6  N   UNL     1     -41.304  55.965 -53.516  1.00  0.00    -0.135 NA
HETATM    7  C   UNL     1     -41.674  54.685 -53.717  1.00  0.00     0.199 A 
HETATM    8  N   UNL     1     -42.738  54.532 -54.593  1.00  0.00    -0.041 NA
HETATM    9  C   UNL     1     -42.204  58.066 -54.482  1.00  0.00     0.202 C 
HETATM   10  C   UNL     1     -42.938  58.442 -55.767  1.00  0.00     0.062 C 
HETATM   11  H   UNL     1     -44.369  55.579 -56.454  1.00  0.00     0.184 HD
ENDROOT
BRANCH  10  12
HETATM   12  C   UNL     1     -42.552  59.721 -56.444  1.00  0.00     0.256 C 
HETATM   13  N   UNL     1     -43.506  60.714 -56.397  1.00  0.00    -0.323 N 
HETATM   14  H   UNL     1     -44.419  60.493 -56.022  1.00  0.00     0.169 HD
HETATM   15  O   UNL     1     -41.429  59.822 -56.928  1.00  0.00    -0.267 OA
BRANCH  13  16
HETATM   16  C   UNL     1     -43.360  62.058 -56.808  1.00  0.00     0.035 A 
HETATM   17  C   UNL     1     -43.221  62.464 -58.137  1.00  0.00     0.029 A 
HETATM   18  C   UNL     1     -43.059  63.816 -58.453  1.00  0.00     0.002 A 
HETATM   19  C   UNL     1     -43.028  64.776 -57.444  1.00  0.00     0.000 A 
HETATM   20  C   UNL     1     -43.168  64.383 -56.116  1.00  0.00     0.002 A 
HETATM   21  C   UNL     1     -43.340  63.032 -55.801  1.00  0.00     0.029 A 
ENDBRANCH  13  16
ENDBRANCH  10  12
BRANCH   9  22
HETATM   22  C   UNL     1     -42.790  58.725 -53.230  1.00  0.00    -0.025 A 
HETATM   23  C   UNL     1     -42.001  59.011 -52.099  1.00  0.00     0.046 A 
HETATM   24  C   UNL     1     -42.581  59.588 -50.971  1.00  0.00     0.066 A 
HETATM   25  C   UNL     1     -43.932  59.906 -50.948  1.00  0.00     0.036 A 
HETATM   26  C   UNL     1     -44.719  59.653 -52.068  1.00  0.00     0.003 A 
HETATM   27  C   UNL     1     -44.153  59.069 -53.204  1.00  0.00     0.010 A 
BRANCH  24  28
HETATM   28  O   UNL     1     -41.847  59.860 -49.855  1.00  0.00    -0.361 OA
HETATM   29  H   UNL     1     -42.421  60.266 -49.185  1.00  0.00     0.217 HD
ENDBRANCH  24  28
ENDBRANCH   9  22
BRANCH   7  30
HETATM   30  C   UNL     1     -40.987  53.545 -53.115  1.00  0.00     0.014 A 
HETATM   31  C   UNL     1     -40.497  52.497 -53.911  1.00  0.00     0.017 A 
HETATM   32  C   UNL     1     -39.862  51.396 -53.329  1.00  0.00     0.025 A 
HETATM   33  C   UNL     1     -39.714  51.335 -51.946  1.00  0.00     0.034 A 
HETATM   34 CL   UNL     1     -38.942  49.975 -51.228  1.00  0.00    -0.084 Cl
HETATM   35  C   UNL     1     -40.193  52.365 -51.140  1.00  0.00     0.025 A 
HETATM   36  C   UNL     1     -40.826  53.467 -51.724  1.00  0.00     0.017 A 
ENDBRANCH   7  30
TORSDOF 5
ENDMDL
MODEL 10
REMARK VINA RESULT:      -7.9      5.379      9.729
REMARK  5 active torsions:
REMARK  status: ('A' for Active; 'I' for Inactive)
REMARK    1  A    between atoms: C_7  and  C_8 
REMARK    2  A    between atoms: C_16  and  C_17 
REMARK    3  A    between atoms: C_19  and  O_20 
REMARK    4  A    between atoms: C_24  and  C_25 
REMARK       I    between atoms: C_25  and  N_26 
REMARK    5  A    between atoms: N_26  and  C_27 
ROOT
HETATM    1  C   UNL     1     -45.914  58.599 -51.517  1.00  0.00     0.070 C 
HETATM    2  C   UNL     1     -44.527  58.088 -51.817  1.00  0.00     0.037 C 
HETATM    3  N   UNL     1     -44.268  56.776 -51.411  1.00  0.00    -0.192 N 
HETATM    4  C   UNL     1     -43.205  56.083 -51.870  1.00  0.00     0.726 A 
HETATM    5  N   UNL     1     -42.198  56.754 -52.498  1.00  0.00    -0.083 N 
HETATM    6  N   UNL     1     -41.280  55.916 -53.013  1.00  0.00    -0.135 NA
HETATM    7  C   UNL     1     -41.768  54.723 -52.619  1.00  0.00     0.199 A 
HETATM    8  N   UNL     1     -42.951  54.802 -51.900  1.00  0.00    -0.041 NA
HETATM    9  C   UNL     1     -42.177  58.205 -52.680  1.00  0.00     0.202 C 
HETATM   10  C   UNL     1     -43.563  58.805 -52.455  1.00  0.00     0.062 C 
HETATM   11  H   UNL     1     -45.069  56.240 -51.086  1.00  0.00     0.184 HD
ENDROOT
BRANCH  10  12
HETATM   12  C   UNL     1     -43.893  60.085 -53.158  1.00  0.00     0.256 C 
HETATM   13  N   UNL     1     -44.202  59.950 -54.494  1.00  0.00    -0.323 N 
HETATM   14  H   UNL     1     -44.083  59.046 -54.932  1.00  0.00     0.169 HD
HETATM   15  O   UNL     1     -43.927  61.127 -52.512  1.00  0.00    -0.267 OA
BRANCH  13  16
HETATM   16  C   UNL     1     -44.699  60.950 -55.360  1.00  0.00     0.035 A 
HETATM   17  C   UNL     1     -46.051  61.125 -55.666  1.00  0.00     0.029 A 
HETATM   18  C   UNL     1     -46.454  62.127 -56.553  1.00  0.00     0.002 A 
HETATM   19  C   UNL     1     -45.510  62.960 -57.150  1.00  0.00     0.000 A 
HETATM   20  C   UNL     1     -44.161  62.795 -56.852  1.00  0.00     0.002 A 
HETATM   21  C   UNL     1     -43.758  61.800 -55.957  1.00  0.00     0.029 A 
ENDBRANCH  13  16
ENDBRANCH  10  12
BRANCH   9  22
HETATM   22  C   UNL     1     -41.099  58.801 -51.770  1.00  0.00    -0.025 A 
HETATM   23  C   UNL     1     -39.728  58.719 -52.084  1.00  0.00     0.046 A 
HETATM   24  C   UNL     1     -38.780  59.254 -51.215  1.00  0.00     0.066 A 
HETATM   25  C   UNL     1     -39.165  59.888 -50.042  1.00  0.00     0.036 A 
HETATM   26  C   UNL     1     -40.518  60.000 -49.731  1.00  0.00     0.003 A 
HETATM   27  C   UNL     1     -41.480  59.463 -50.589  1.00  0.00     0.010 A 
BRANCH  24  28
HETATM   28  O   UNL     1     -37.446  59.173 -51.483  1.00  0.00    -0.361 OA
HETATM   29  H   UNL     1     -36.981  58.840 -50.698  1.00  0.00     0.217 HD
ENDBRANCH  24  28
ENDBRANCH   9  22
BRANCH   7  30
HETATM   30  C   UNL     1     -41.144  53.446 -52.959  1.00  0.00     0.014 A 
HETATM   31  C   UNL     1     -40.247  52.824 -52.076  1.00  0.00     0.017 A 
HETATM   32  C   UNL     1     -39.634  51.615 -52.415  1.00  0.00     0.025 A 
HETATM   33  C   UNL     1     -39.913  51.019 -53.643  1.00  0.00     0.034 A 
HETATM   34 CL   UNL     1     -39.151  49.536 -54.066  1.00  0.00    -0.084 Cl
HETATM   35  C   UNL     1     -40.801  51.620 -54.532  1.00  0.00     0.025 A 
HETATM   36  C   UNL     1     -41.416  52.829 -54.189  1.00  0.00     0.017 A 
ENDBRANCH   7  30
TORSDOF 5
ENDMDL
