MODEL 1
REMARK VINA RESULT:      -7.8      0.000      0.000
REMARK  9 active torsions:
REMARK  status: ('A' for Active; 'I' for Inactive)
REMARK    1  A    between atoms: C_6  and  C_7 
REMARK    2  A    between atoms: C_7  and  C_8 
REMARK    3  A    between atoms: C_11  and  N_12 
REMARK       I    between atoms: N_12  and  C_13 
REMARK       I    between atoms: C_13  and  N_14 
REMARK    4  A    between atoms: N_14  and  C_15 
REMARK    5  A    between atoms: C_15  and  C_16 
REMARK    6  A    between atoms: C_16  and  C_17 
REMARK    7  A    between atoms: C_16  and  C_19 
REMARK    8  A    between atoms: C_17  and  O_18 
REMARK    9  A    between atoms: C_19  and  C_20 
ROOT
HETATM    1  N   UNL     1     -44.033  55.569 -52.694  1.00  0.00    -0.309 N 
HETATM    2  C   UNL     1     -43.360  55.320 -51.543  1.00  0.00     0.320 C 
HETATM    3  N   UNL     1     -42.001  55.348 -51.556  1.00  0.00    -0.342 N 
HETATM    4  O   UNL     1     -44.009  55.108 -50.520  1.00  0.00    -0.247 OA
HETATM    5  H   UNL     1     -45.021  55.660 -52.492  1.00  0.00     0.170 HD
HETATM    6  H   UNL     1     -41.604  56.024 -52.202  1.00  0.00     0.164 HD
ENDROOT
BRANCH   1   7
HETATM    7  C   UNL     1     -43.671  55.661 -54.048  1.00  0.00     0.036 A 
HETATM    8  C   UNL     1     -43.219  54.602 -54.834  1.00  0.00     0.030 A 
HETATM    9  C   UNL     1     -42.909  54.802 -56.186  1.00  0.00     0.010 A 
HETATM   10  C   UNL     1     -43.065  56.063 -56.780  1.00  0.00    -0.051 A 
HETATM   11  C   UNL     1     -43.540  57.120 -55.998  1.00  0.00     0.010 A 
HETATM   12  C   UNL     1     -43.838  56.917 -54.649  1.00  0.00     0.030 A 
BRANCH  10  13
HETATM   13  C   UNL     1     -42.799  56.259 -58.255  1.00  0.00     0.118 C 
BRANCH  13  14
HETATM   14  C   UNL     1     -43.963  55.953 -59.138  1.00  0.00     0.126 A 
HETATM   15  N   UNL     1     -44.022  54.889 -59.997  1.00  0.00    -0.263 N 
HETATM   16  N   UNL     1     -45.181  54.865 -60.672  1.00  0.00    -0.158 NA
HETATM   17  H   UNL     1     -43.330  54.166 -60.164  1.00  0.00     0.190 HD
HETATM   18  C   UNL     1     -45.799  55.946 -60.185  1.00  0.00     0.144 A 
HETATM   19  C   UNL     1     -47.147  56.359 -60.620  1.00  0.00     0.095 C 
HETATM   20  N   UNL     1     -45.085  56.637 -59.241  1.00  0.00    -0.217 NA
ENDBRANCH  13  14
ENDBRANCH  10  13
ENDBRANCH   1   7
BRANCH   3  21
HETATM   21  C   UNL     1     -41.282  55.216 -50.304  1.00  0.00     0.131 C 
BRANCH  21  22
HETATM   22  C   UNL     1     -40.776  53.795 -50.010  1.00  0.00     0.033 C 
BRANCH  22  23
HETATM   23  C   UNL     1     -40.618  53.561 -48.501  1.00  0.00     0.170 C 
BRANCH  23  24
HETATM   24  O   UNL     1     -40.873  54.745 -47.754  1.00  0.00    -0.400 OA
HETATM   25  H   UNL     1     -41.344  55.349 -48.360  1.00  0.00     0.209 HD
ENDBRANCH  23  24
ENDBRANCH  22  23
BRANCH  22  26
HETATM   26  C   UNL     1     -39.496  53.504 -50.813  1.00  0.00     0.073 C 
BRANCH  26  27
HETATM   27  C   UNL     1     -39.764  52.623 -51.981  1.00  0.00     0.053 A 
HETATM   28  O   UNL     1     -40.391  53.195 -53.047  1.00  0.00    -0.327 OA
HETATM   29  C   UNL     1     -40.520  52.228 -53.992  1.00  0.00     0.142 A 
HETATM   30  C   UNL     1     -39.986  51.042 -53.545  1.00  0.00     0.027 A 
HETATM   31  C   UNL     1     -39.499  51.296 -52.242  1.00  0.00     0.034 A 
ENDBRANCH  26  27
ENDBRANCH  22  26
ENDBRANCH  21  22
ENDBRANCH   3  21
TORSDOF 9
ENDMDL
MODEL 2
REMARK VINA RESULT:      -7.5      4.465      6.938
REMARK  9 active torsions:
REMARK  status: ('A' for Active; 'I' for Inactive)
REMARK    1  A    between atoms: C_6  and  C_7 
REMARK    2  A    between atoms: C_7  and  C_8 
REMARK    3  A    between atoms: C_11  and  N_12 
REMARK       I    between atoms: N_12  and  C_13 
REMARK       I    between atoms: C_13  and  N_14 
REMARK    4  A    between atoms: N_14  and  C_15 
REMARK    5  A    between atoms: C_15  and  C_16 
REMARK    6  A    between atoms: C_16  and  C_17 
REMARK    7  A    between atoms: C_16  and  C_19 
REMARK    8  A    between atoms: C_17  and  O_18 
REMARK    9  A    between atoms: C_19  and  C_20 
ROOT
HETATM    1  N   UNL     1     -41.165  53.873 -49.861  1.00  0.00    -0.309 N 
HETATM    2  C   UNL     1     -40.643  52.787 -50.484  1.00  0.00     0.320 C 
HETATM    3  N   UNL     1     -40.386  52.854 -51.817  1.00  0.00    -0.342 N 
HETATM    4  O   UNL     1     -40.393  51.789 -49.809  1.00  0.00    -0.247 OA
HETATM    5  H   UNL     1     -41.158  53.721 -48.859  1.00  0.00     0.170 HD
HETATM    6  H   UNL     1     -40.096  53.772 -52.141  1.00  0.00     0.164 HD
ENDROOT
BRANCH   1   7
HETATM    7  C   UNL     1     -41.742  55.077 -50.296  1.00  0.00     0.036 A 
HETATM    8  C   UNL     1     -41.048  56.264 -50.528  1.00  0.00     0.030 A 
HETATM    9  C   UNL     1     -41.723  57.404 -50.987  1.00  0.00     0.010 A 
HETATM   10  C   UNL     1     -43.102  57.369 -51.240  1.00  0.00    -0.051 A 
HETATM   11  C   UNL     1     -43.794  56.173 -51.029  1.00  0.00     0.010 A 
HETATM   12  C   UNL     1     -43.119  55.043 -50.563  1.00  0.00     0.030 A 
BRANCH  10  13
HETATM   13  C   UNL     1     -43.813  58.579 -51.804  1.00  0.00     0.118 C 
BRANCH  13  14
HETATM   14  C   UNL     1     -44.370  59.504 -50.773  1.00  0.00     0.126 A 
HETATM   15  N   UNL     1     -45.509  59.262 -50.054  1.00  0.00    -0.263 N 
HETATM   16  N   UNL     1     -45.778  60.267 -49.206  1.00  0.00    -0.158 NA
HETATM   17  H   UNL     1     -46.128  58.459 -50.092  1.00  0.00     0.190 HD
HETATM   18  C   UNL     1     -44.765  61.104 -49.451  1.00  0.00     0.144 A 
HETATM   19  C   UNL     1     -44.604  62.390 -48.745  1.00  0.00     0.095 C 
HETATM   20  N   UNL     1     -43.880  60.669 -50.402  1.00  0.00    -0.217 NA
ENDBRANCH  13  14
ENDBRANCH  10  13
ENDBRANCH   1   7
BRANCH   3  21
HETATM   21  C   UNL     1     -39.705  51.746 -52.459  1.00  0.00     0.131 C 
BRANCH  21  22
HETATM   22  C   UNL     1     -40.214  51.422 -53.872  1.00  0.00     0.033 C 
BRANCH  22  23
HETATM   23  C   UNL     1     -39.724  50.044 -54.339  1.00  0.00     0.170 C 
BRANCH  23  24
HETATM   24  O   UNL     1     -39.494  49.167 -53.243  1.00  0.00    -0.400 OA
HETATM   25  H   UNL     1     -40.291  48.605 -53.177  1.00  0.00     0.209 HD
ENDBRANCH  23  24
ENDBRANCH  22  23
BRANCH  22  26
HETATM   26  C   UNL     1     -39.859  52.560 -54.845  1.00  0.00     0.073 C 
BRANCH  26  27
HETATM   27  C   UNL     1     -40.732  53.747 -54.651  1.00  0.00     0.053 A 
HETATM   28  O   UNL     1     -42.050  53.503 -54.403  1.00  0.00    -0.327 OA
HETATM   29  C   UNL     1     -42.651  54.712 -54.246  1.00  0.00     0.142 A 
HETATM   30  C   UNL     1     -41.736  55.728 -54.392  1.00  0.00     0.027 A 
HETATM   31  C   UNL     1     -40.494  55.105 -54.657  1.00  0.00     0.034 A 
ENDBRANCH  26  27
ENDBRANCH  22  26
ENDBRANCH  21  22
ENDBRANCH   3  21
TORSDOF 9
ENDMDL
MODEL 3
REMARK VINA RESULT:      -7.4      3.493      7.696
REMARK  9 active torsions:
REMARK  status: ('A' for Active; 'I' for Inactive)
REMARK    1  A    between atoms: C_6  and  C_7 
REMARK    2  A    between atoms: C_7  and  C_8 
REMARK    3  A    between atoms: C_11  and  N_12 
REMARK       I    between atoms: N_12  and  C_13 
REMARK       I    between atoms: C_13  and  N_14 
REMARK    4  A    between atoms: N_14  and  C_15 
REMARK    5  A    between atoms: C_15  and  C_16 
REMARK    6  A    between atoms: C_16  and  C_17 
REMARK    7  A    between atoms: C_16  and  C_19 
REMARK    8  A    between atoms: C_17  and  O_18 
REMARK    9  A    between atoms: C_19  and  C_20 
ROOT
HETATM    1  N   UNL     1     -44.113  56.612 -52.898  1.00  0.00    -0.309 N 
HETATM    2  C   UNL     1     -44.570  57.791 -53.389  1.00  0.00     0.320 C 
HETATM    3  N   UNL     1     -44.303  58.113 -54.683  1.00  0.00    -0.342 N 
HETATM    4  O   UNL     1     -45.238  58.512 -52.649  1.00  0.00    -0.247 OA
HETATM    5  H   UNL     1     -44.515  56.450 -51.983  1.00  0.00     0.170 HD
HETATM    6  H   UNL     1     -44.271  57.317 -55.313  1.00  0.00     0.164 HD
ENDROOT
BRANCH   1   7
HETATM    7  C   UNL     1     -43.196  55.647 -53.346  1.00  0.00     0.036 A 
HETATM    8  C   UNL     1     -43.480  54.622 -54.247  1.00  0.00     0.030 A 
HETATM    9  C   UNL     1     -42.478  53.726 -54.645  1.00  0.00     0.010 A 
HETATM   10  C   UNL     1     -41.168  53.853 -54.161  1.00  0.00    -0.051 A 
HETATM   11  C   UNL     1     -40.877  54.894 -53.275  1.00  0.00     0.010 A 
HETATM   12  C   UNL     1     -41.881  55.778 -52.875  1.00  0.00     0.030 A 
BRANCH  10  13
HETATM   13  C   UNL     1     -40.073  52.931 -54.648  1.00  0.00     0.118 C 
BRANCH  13  14
HETATM   14  C   UNL     1     -39.901  51.692 -53.833  1.00  0.00     0.126 A 
HETATM   15  N   UNL     1     -39.890  50.424 -54.347  1.00  0.00    -0.263 N 
HETATM   16  N   UNL     1     -39.728  49.504 -53.385  1.00  0.00    -0.158 NA
HETATM   17  H   UNL     1     -39.985  50.128 -55.313  1.00  0.00     0.190 HD
HETATM   18  C   UNL     1     -39.645  50.269 -52.292  1.00  0.00     0.144 A 
HETATM   19  C   UNL     1     -39.453  49.711 -50.940  1.00  0.00     0.095 C 
HETATM   20  N   UNL     1     -39.744  51.616 -52.527  1.00  0.00    -0.217 NA
ENDBRANCH  13  14
ENDBRANCH  10  13
ENDBRANCH   1   7
BRANCH   3  21
HETATM   21  C   UNL     1     -44.903  59.306 -55.248  1.00  0.00     0.131 C 
BRANCH  21  22
HETATM   22  C   UNL     1     -44.939  59.329 -56.784  1.00  0.00     0.033 C 
BRANCH  22  23
HETATM   23  C   UNL     1     -45.978  58.339 -57.332  1.00  0.00     0.170 C 
BRANCH  23  24
HETATM   24  O   UNL     1     -46.669  57.667 -56.285  1.00  0.00    -0.400 OA
HETATM   25  H   UNL     1     -47.615  57.880 -56.408  1.00  0.00     0.209 HD
ENDBRANCH  23  24
ENDBRANCH  22  23
BRANCH  22  26
HETATM   26  C   UNL     1     -43.528  59.114 -57.359  1.00  0.00     0.073 C 
BRANCH  26  27
HETATM   27  C   UNL     1     -43.378  57.767 -57.970  1.00  0.00     0.053 A 
HETATM   28  O   UNL     1     -43.182  56.725 -57.112  1.00  0.00    -0.327 OA
HETATM   29  C   UNL     1     -43.088  55.603 -57.873  1.00  0.00     0.142 A 
HETATM   30  C   UNL     1     -43.218  55.912 -59.207  1.00  0.00     0.027 A 
HETATM   31  C   UNL     1     -43.404  57.312 -59.271  1.00  0.00     0.034 A 
ENDBRANCH  26  27
ENDBRANCH  22  26
ENDBRANCH  21  22
ENDBRANCH   3  21
TORSDOF 9
ENDMDL
MODEL 4
REMARK VINA RESULT:      -7.4      4.699      7.751
REMARK  9 active torsions:
REMARK  status: ('A' for Active; 'I' for Inactive)
REMARK    1  A    between atoms: C_6  and  C_7 
REMARK    2  A    between atoms: C_7  and  C_8 
REMARK    3  A    between atoms: C_11  and  N_12 
REMARK       I    between atoms: N_12  and  C_13 
REMARK       I    between atoms: C_13  and  N_14 
REMARK    4  A    between atoms: N_14  and  C_15 
REMARK    5  A    between atoms: C_15  and  C_16 
REMARK    6  A    between atoms: C_16  and  C_17 
REMARK    7  A    between atoms: C_16  and  C_19 
REMARK    8  A    between atoms: C_17  and  O_18 
REMARK    9  A    between atoms: C_19  and  C_20 
ROOT
HETATM    1  N   UNL     1     -44.296  56.250 -50.627  1.00  0.00    -0.309 N 
HETATM    2  C   UNL     1     -44.732  57.353 -51.287  1.00  0.00     0.320 C 
HETATM    3  N   UNL     1     -44.130  57.701 -52.455  1.00  0.00    -0.342 N 
HETATM    4  O   UNL     1     -45.681  57.979 -50.816  1.00  0.00    -0.247 OA
HETATM    5  H   UNL     1     -44.932  56.039 -49.868  1.00  0.00     0.170 HD
HETATM    6  H   UNL     1     -43.805  56.914 -53.008  1.00  0.00     0.164 HD
ENDROOT
BRANCH   1   7
HETATM    7  C   UNL     1     -43.170  55.418 -50.733  1.00  0.00     0.036 A 
HETATM    8  C   UNL     1     -43.128  54.202 -51.413  1.00  0.00     0.030 A 
HETATM    9  C   UNL     1     -41.939  53.463 -51.477  1.00  0.00     0.010 A 
HETATM   10  C   UNL     1     -40.765  53.939 -50.877  1.00  0.00    -0.051 A 
HETATM   11  C   UNL     1     -40.799  55.170 -50.214  1.00  0.00     0.010 A 
HETATM   12  C   UNL     1     -41.989  55.898 -50.145  1.00  0.00     0.030 A 
BRANCH  10  13
HETATM   13  C   UNL     1     -39.466  53.175 -51.009  1.00  0.00     0.118 C 
BRANCH  13  14
HETATM   14  C   UNL     1     -39.571  51.910 -51.793  1.00  0.00     0.126 A 
HETATM   15  N   UNL     1     -39.600  50.659 -51.239  1.00  0.00    -0.263 N 
HETATM   16  N   UNL     1     -39.689  49.706 -52.179  1.00  0.00    -0.158 NA
HETATM   17  H   UNL     1     -39.562  50.394 -50.260  1.00  0.00     0.190 HD
HETATM   18  C   UNL     1     -39.712  50.435 -53.299  1.00  0.00     0.144 A 
HETATM   19  C   UNL     1     -39.812  49.831 -54.642  1.00  0.00     0.095 C 
HETATM   20  N   UNL     1     -39.644  51.789 -53.103  1.00  0.00    -0.217 NA
ENDBRANCH  13  14
ENDBRANCH  10  13
ENDBRANCH   1   7
BRANCH   3  21
HETATM   21  C   UNL     1     -44.679  58.797 -53.229  1.00  0.00     0.131 C 
BRANCH  21  22
HETATM   22  C   UNL     1     -44.184  60.187 -52.800  1.00  0.00     0.033 C 
BRANCH  22  23
HETATM   23  C   UNL     1     -45.088  61.297 -53.354  1.00  0.00     0.170 C 
BRANCH  23  24
HETATM   24  O   UNL     1     -46.249  60.766 -53.984  1.00  0.00    -0.400 OA
HETATM   25  H   UNL     1     -46.265  59.815 -53.760  1.00  0.00     0.209 HD
ENDBRANCH  23  24
ENDBRANCH  22  23
BRANCH  22  26
HETATM   26  C   UNL     1     -42.700  60.366 -53.169  1.00  0.00     0.073 C 
BRANCH  26  27
HETATM   27  C   UNL     1     -41.801  59.957 -52.057  1.00  0.00     0.053 A 
HETATM   28  O   UNL     1     -40.597  59.424 -52.410  1.00  0.00    -0.327 OA
HETATM   29  C   UNL     1     -39.940  59.139 -51.254  1.00  0.00     0.142 A 
HETATM   30  C   UNL     1     -40.709  59.480 -50.166  1.00  0.00     0.027 A 
HETATM   31  C   UNL     1     -41.915  60.007 -50.684  1.00  0.00     0.034 A 
ENDBRANCH  26  27
ENDBRANCH  22  26
ENDBRANCH  21  22
ENDBRANCH   3  21
TORSDOF 9
ENDMDL
MODEL 5
REMARK VINA RESULT:      -7.4      3.663      7.313
REMARK  9 active torsions:
REMARK  status: ('A' for Active; 'I' for Inactive)
REMARK    1  A    between atoms: C_6  and  C_7 
REMARK    2  A    between atoms: C_7  and  C_8 
REMARK    3  A    between atoms: C_11  and  N_12 
REMARK       I    between atoms: N_12  and  C_13 
REMARK       I    between atoms: C_13  and  N_14 
REMARK    4  A    between atoms: N_14  and  C_15 
REMARK    5  A    between atoms: C_15  and  C_16 
REMARK    6  A    between atoms: C_16  and  C_17 
REMARK    7  A    between atoms: C_16  and  C_19 
REMARK    8  A    between atoms: C_17  and  O_18 
REMARK    9  A    between atoms: C_19  and  C_20 
ROOT
HETATM    1  N   UNL     1     -44.292  56.284 -50.646  1.00  0.00    -0.309 N 
HETATM    2  C   UNL     1     -44.690  57.412 -51.284  1.00  0.00     0.320 C 
HETATM    3  N   UNL     1     -44.041  57.792 -52.417  1.00  0.00    -0.342 N 
HETATM    4  O   UNL     1     -45.649  58.035 -50.828  1.00  0.00    -0.247 OA
HETATM    5  H   UNL     1     -44.958  56.055 -49.918  1.00  0.00     0.170 HD
HETATM    6  H   UNL     1     -43.705  57.019 -52.984  1.00  0.00     0.164 HD
ENDROOT
BRANCH   1   7
HETATM    7  C   UNL     1     -43.171  55.442 -50.739  1.00  0.00     0.036 A 
HETATM    8  C   UNL     1     -43.116  54.251 -51.461  1.00  0.00     0.030 A 
HETATM    9  C   UNL     1     -41.934  53.499 -51.505  1.00  0.00     0.010 A 
HETATM   10  C   UNL     1     -40.780  53.938 -50.841  1.00  0.00    -0.051 A 
HETATM   11  C   UNL     1     -40.827  55.143 -50.135  1.00  0.00     0.010 A 
HETATM   12  C   UNL     1     -42.011  55.883 -50.086  1.00  0.00     0.030 A 
BRANCH  10  13
HETATM   13  C   UNL     1     -39.486  53.163 -50.950  1.00  0.00     0.118 C 
BRANCH  13  14
HETATM   14  C   UNL     1     -39.585  51.904 -51.746  1.00  0.00     0.126 A 
HETATM   15  N   UNL     1     -39.644  50.649 -51.203  1.00  0.00    -0.263 N 
HETATM   16  N   UNL     1     -39.719  49.705 -52.152  1.00  0.00    -0.158 NA
HETATM   17  H   UNL     1     -39.637  50.378 -50.225  1.00  0.00     0.190 HD
HETATM   18  C   UNL     1     -39.702  50.442 -53.267  1.00  0.00     0.144 A 
HETATM   19  C   UNL     1     -39.772  49.849 -54.617  1.00  0.00     0.095 C 
HETATM   20  N   UNL     1     -39.623  51.794 -53.059  1.00  0.00    -0.217 NA
ENDBRANCH  13  14
ENDBRANCH  10  13
ENDBRANCH   1   7
BRANCH   3  21
HETATM   21  C   UNL     1     -44.548  58.919 -53.174  1.00  0.00     0.131 C 
BRANCH  21  22
HETATM   22  C   UNL     1     -44.589  58.695 -54.694  1.00  0.00     0.033 C 
BRANCH  22  23
HETATM   23  C   UNL     1     -45.511  57.523 -55.060  1.00  0.00     0.170 C 
BRANCH  23  24
HETATM   24  O   UNL     1     -46.376  57.851 -56.141  1.00  0.00    -0.400 OA
HETATM   25  H   UNL     1     -46.705  58.752 -55.959  1.00  0.00     0.209 HD
ENDBRANCH  23  24
ENDBRANCH  22  23
BRANCH  22  26
HETATM   26  C   UNL     1     -43.164  58.550 -55.254  1.00  0.00     0.073 C 
BRANCH  26  27
HETATM   27  C   UNL     1     -42.816  57.129 -55.519  1.00  0.00     0.053 A 
HETATM   28  O   UNL     1     -42.400  56.392 -54.450  1.00  0.00    -0.327 OA
HETATM   29  C   UNL     1     -42.153  55.137 -54.911  1.00  0.00     0.142 A 
HETATM   30  C   UNL     1     -42.402  55.061 -56.261  1.00  0.00     0.027 A 
HETATM   31  C   UNL     1     -42.828  56.350 -56.657  1.00  0.00     0.034 A 
ENDBRANCH  26  27
ENDBRANCH  22  26
ENDBRANCH  21  22
ENDBRANCH   3  21
TORSDOF 9
ENDMDL
MODEL 6
REMARK VINA RESULT:      -7.3      3.365      5.380
REMARK  9 active torsions:
REMARK  status: ('A' for Active; 'I' for Inactive)
REMARK    1  A    between atoms: C_6  and  C_7 
REMARK    2  A    between atoms: C_7  and  C_8 
REMARK    3  A    between atoms: C_11  and  N_12 
REMARK       I    between atoms: N_12  and  C_13 
REMARK       I    between atoms: C_13  and  N_14 
REMARK    4  A    between atoms: N_14  and  C_15 
REMARK    5  A    between atoms: C_15  and  C_16 
REMARK    6  A    between atoms: C_16  and  C_17 
REMARK    7  A    between atoms: C_16  and  C_19 
REMARK    8  A    between atoms: C_17  and  O_18 
REMARK    9  A    between atoms: C_19  and  C_20 
ROOT
HETATM    1  N   UNL     1     -41.197  53.939 -49.763  1.00  0.00    -0.309 N 
HETATM    2  C   UNL     1     -40.646  52.833 -50.322  1.00  0.00     0.320 C 
HETATM    3  N   UNL     1     -40.219  52.891 -51.612  1.00  0.00    -0.342 N 
HETATM    4  O   UNL     1     -40.526  51.825 -49.627  1.00  0.00    -0.247 OA
HETATM    5  H   UNL     1     -41.324  53.787 -48.770  1.00  0.00     0.170 HD
HETATM    6  H   UNL     1     -39.852  53.796 -51.890  1.00  0.00     0.164 HD
ENDROOT
BRANCH   1   7
HETATM    7  C   UNL     1     -41.662  55.168 -50.260  1.00  0.00     0.036 A 
HETATM    8  C   UNL     1     -40.897  56.326 -50.391  1.00  0.00     0.030 A 
HETATM    9  C   UNL     1     -41.459  57.494 -50.924  1.00  0.00     0.010 A 
HETATM   10  C   UNL     1     -42.793  57.517 -51.355  1.00  0.00    -0.051 A 
HETATM   11  C   UNL     1     -43.555  56.350 -51.245  1.00  0.00     0.010 A 
HETATM   12  C   UNL     1     -42.993  55.191 -50.704  1.00  0.00     0.030 A 
BRANCH  10  13
HETATM   13  C   UNL     1     -43.376  58.756 -51.997  1.00  0.00     0.118 C 
BRANCH  13  14
HETATM   14  C   UNL     1     -42.901  59.011 -53.389  1.00  0.00     0.126 A 
HETATM   15  N   UNL     1     -41.881  59.864 -53.712  1.00  0.00    -0.263 N 
HETATM   16  N   UNL     1     -41.675  59.906 -55.037  1.00  0.00    -0.158 NA
HETATM   17  H   UNL     1     -41.304  60.430 -53.098  1.00  0.00     0.190 HD
HETATM   18  C   UNL     1     -42.604  59.053 -55.480  1.00  0.00     0.144 A 
HETATM   19  C   UNL     1     -42.783  58.741 -56.911  1.00  0.00     0.095 C 
HETATM   20  N   UNL     1     -43.373  58.483 -54.499  1.00  0.00    -0.217 NA
ENDBRANCH  13  14
ENDBRANCH  10  13
ENDBRANCH   1   7
BRANCH   3  21
HETATM   21  C   UNL     1     -39.509  51.756 -52.169  1.00  0.00     0.131 C 
BRANCH  21  22
HETATM   22  C   UNL     1     -40.077  51.247 -53.504  1.00  0.00     0.033 C 
BRANCH  22  23
HETATM   23  C   UNL     1     -39.531  49.853 -53.846  1.00  0.00     0.170 C 
BRANCH  23  24
HETATM   24  O   UNL     1     -39.468  49.015 -52.697  1.00  0.00    -0.400 OA
HETATM   25  H   UNL     1     -40.351  49.060 -52.283  1.00  0.00     0.209 HD
ENDBRANCH  23  24
ENDBRANCH  22  23
BRANCH  22  26
HETATM   26  C   UNL     1     -39.845  52.285 -54.616  1.00  0.00     0.073 C 
BRANCH  26  27
HETATM   27  C   UNL     1     -40.775  53.439 -54.498  1.00  0.00     0.053 A 
HETATM   28  O   UNL     1     -40.221  54.640 -54.171  1.00  0.00    -0.327 OA
HETATM   29  C   UNL     1     -41.236  55.543 -54.133  1.00  0.00     0.142 A 
HETATM   30  C   UNL     1     -42.433  54.936 -54.429  1.00  0.00     0.027 A 
HETATM   31  C   UNL     1     -42.137  53.574 -54.663  1.00  0.00     0.034 A 
ENDBRANCH  26  27
ENDBRANCH  22  26
ENDBRANCH  21  22
ENDBRANCH   3  21
TORSDOF 9
ENDMDL
MODEL 7
REMARK VINA RESULT:      -7.3      1.898      2.297
REMARK  9 active torsions:
REMARK  status: ('A' for Active; 'I' for Inactive)
REMARK    1  A    between atoms: C_6  and  C_7 
REMARK    2  A    between atoms: C_7  and  C_8 
REMARK    3  A    between atoms: C_11  and  N_12 
REMARK       I    between atoms: N_12  and  C_13 
REMARK       I    between atoms: C_13  and  N_14 
REMARK    4  A    between atoms: N_14  and  C_15 
REMARK    5  A    between atoms: C_15  and  C_16 
REMARK    6  A    between atoms: C_16  and  C_17 
REMARK    7  A    between atoms: C_16  and  C_19 
REMARK    8  A    between atoms: C_17  and  O_18 
REMARK    9  A    between atoms: C_19  and  C_20 
ROOT
HETATM    1  N   UNL     1     -44.151  57.796 -52.394  1.00  0.00    -0.309 N 
HETATM    2  C   UNL     1     -44.154  56.652 -51.665  1.00  0.00     0.320 C 
HETATM    3  N   UNL     1     -43.574  55.538 -52.186  1.00  0.00    -0.342 N 
HETATM    4  O   UNL     1     -44.656  56.676 -50.542  1.00  0.00    -0.247 OA
HETATM    5  H   UNL     1     -44.479  58.562 -51.819  1.00  0.00     0.170 HD
HETATM    6  H   UNL     1     -42.768  55.724 -52.775  1.00  0.00     0.164 HD
ENDROOT
BRANCH   1   7
HETATM    7  C   UNL     1     -43.861  58.112 -53.731  1.00  0.00     0.036 A 
HETATM    8  C   UNL     1     -42.583  58.295 -54.257  1.00  0.00     0.030 A 
HETATM    9  C   UNL     1     -42.408  58.584 -55.617  1.00  0.00     0.010 A 
HETATM   10  C   UNL     1     -43.510  58.676 -56.479  1.00  0.00    -0.051 A 
HETATM   11  C   UNL     1     -44.791  58.470 -55.958  1.00  0.00     0.010 A 
HETATM   12  C   UNL     1     -44.960  58.191 -54.600  1.00  0.00     0.030 A 
BRANCH  10  13
HETATM   13  C   UNL     1     -43.314  58.916 -57.960  1.00  0.00     0.118 C 
BRANCH  13  14
HETATM   14  C   UNL     1     -43.295  57.675 -58.789  1.00  0.00     0.126 A 
HETATM   15  N   UNL     1     -42.161  57.107 -59.303  1.00  0.00    -0.263 N 
HETATM   16  N   UNL     1     -42.441  56.005 -60.015  1.00  0.00    -0.158 NA
HETATM   17  H   UNL     1     -41.197  57.411 -59.208  1.00  0.00     0.190 HD
HETATM   18  C   UNL     1     -43.772  55.945 -59.904  1.00  0.00     0.144 A 
HETATM   19  C   UNL     1     -44.576  54.876 -60.527  1.00  0.00     0.095 C 
HETATM   20  N   UNL     1     -44.331  56.949 -59.158  1.00  0.00    -0.217 NA
ENDBRANCH  13  14
ENDBRANCH  10  13
ENDBRANCH   1   7
BRANCH   3  21
HETATM   21  C   UNL     1     -43.456  54.354 -51.358  1.00  0.00     0.131 C 
BRANCH  21  22
HETATM   22  C   UNL     1     -42.022  54.037 -50.905  1.00  0.00     0.033 C 
BRANCH  22  23
HETATM   23  C   UNL     1     -41.706  54.698 -49.555  1.00  0.00     0.170 C 
BRANCH  23  24
HETATM   24  O   UNL     1     -41.655  56.117 -49.662  1.00  0.00    -0.400 OA
HETATM   25  H   UNL     1     -42.503  56.386 -50.066  1.00  0.00     0.209 HD
ENDBRANCH  23  24
ENDBRANCH  22  23
BRANCH  22  26
HETATM   26  C   UNL     1     -41.017  54.396 -52.013  1.00  0.00     0.073 C 
BRANCH  26  27
HETATM   27  C   UNL     1     -40.569  53.194 -52.763  1.00  0.00     0.053 A 
HETATM   28  O   UNL     1     -39.888  52.249 -52.055  1.00  0.00    -0.327 OA
HETATM   29  C   UNL     1     -39.592  51.246 -52.922  1.00  0.00     0.142 A 
HETATM   30  C   UNL     1     -40.071  51.536 -54.178  1.00  0.00     0.027 A 
HETATM   31  C   UNL     1     -40.702  52.798 -54.077  1.00  0.00     0.034 A 
ENDBRANCH  26  27
ENDBRANCH  22  26
ENDBRANCH  21  22
ENDBRANCH   3  21
TORSDOF 9
ENDMDL
MODEL 8
REMARK VINA RESULT:      -7.3      3.382      7.170
REMARK  9 active torsions:
REMARK  status: ('A' for Active; 'I' for Inactive)
REMARK    1  A    between atoms: C_6  and  C_7 
REMARK    2  A    between atoms: C_7  and  C_8 
REMARK    3  A    between atoms: C_11  and  N_12 
REMARK       I    between atoms: N_12  and  C_13 
REMARK       I    between atoms: C_13  and  N_14 
REMARK    4  A    between atoms: N_14  and  C_15 
REMARK    5  A    between atoms: C_15  and  C_16 
REMARK    6  A    between atoms: C_16  and  C_17 
REMARK    7  A    between atoms: C_16  and  C_19 
REMARK    8  A    between atoms: C_17  and  O_18 
REMARK    9  A    between atoms: C_19  and  C_20 
ROOT
HETATM    1  N   UNL     1     -44.054  56.688 -55.621  1.00  0.00    -0.309 N 
HETATM    2  C   UNL     1     -44.723  57.651 -54.937  1.00  0.00     0.320 C 
HETATM    3  N   UNL     1     -44.322  57.959 -53.675  1.00  0.00    -0.342 N 
HETATM    4  O   UNL     1     -45.650  58.231 -55.500  1.00  0.00    -0.247 OA
HETATM    5  H   UNL     1     -44.369  56.680 -56.584  1.00  0.00     0.170 HD
HETATM    6  H   UNL     1     -43.322  57.877 -53.523  1.00  0.00     0.164 HD
ENDROOT
BRANCH   1   7
HETATM    7  C   UNL     1     -43.109  55.709 -55.275  1.00  0.00     0.036 A 
HETATM    8  C   UNL     1     -43.399  54.377 -54.983  1.00  0.00     0.030 A 
HETATM    9  C   UNL     1     -42.370  53.477 -54.674  1.00  0.00     0.010 A 
HETATM   10  C   UNL     1     -41.030  53.890 -54.671  1.00  0.00    -0.051 A 
HETATM   11  C   UNL     1     -40.737  55.220 -54.986  1.00  0.00     0.010 A 
HETATM   12  C   UNL     1     -41.766  56.116 -55.284  1.00  0.00     0.030 A 
BRANCH  10  13
HETATM   13  C   UNL     1     -39.918  52.900 -54.408  1.00  0.00     0.118 C 
BRANCH  13  14
HETATM   14  C   UNL     1     -39.935  52.300 -53.042  1.00  0.00     0.126 A 
HETATM   15  N   UNL     1     -40.213  52.996 -51.896  1.00  0.00    -0.263 N 
HETATM   16  N   UNL     1     -40.148  52.208 -50.813  1.00  0.00    -0.158 NA
HETATM   17  H   UNL     1     -40.447  53.977 -51.788  1.00  0.00     0.190 HD
HETATM   18  C   UNL     1     -39.823  51.030 -51.357  1.00  0.00     0.144 A 
HETATM   19  C   UNL     1     -39.635  49.806 -50.555  1.00  0.00     0.095 C 
HETATM   20  N   UNL     1     -39.686  51.047 -52.720  1.00  0.00    -0.217 NA
ENDBRANCH  13  14
ENDBRANCH  10  13
ENDBRANCH   1   7
BRANCH   3  21
HETATM   21  C   UNL     1     -44.946  59.076 -52.993  1.00  0.00     0.131 C 
BRANCH  21  22
HETATM   22  C   UNL     1     -44.623  59.163 -51.493  1.00  0.00     0.033 C 
BRANCH  22  23
HETATM   23  C   UNL     1     -45.867  59.538 -50.676  1.00  0.00     0.170 C 
BRANCH  23  24
HETATM   24  O   UNL     1     -45.884  58.885 -49.411  1.00  0.00    -0.400 OA
HETATM   25  H   UNL     1     -46.609  58.232 -49.455  1.00  0.00     0.209 HD
ENDBRANCH  23  24
ENDBRANCH  22  23
BRANCH  22  26
HETATM   26  C   UNL     1     -43.428  60.103 -51.254  1.00  0.00     0.073 C 
BRANCH  26  27
HETATM   27  C   UNL     1     -42.165  59.348 -51.041  1.00  0.00     0.053 A 
HETATM   28  O   UNL     1     -42.216  58.001 -51.241  1.00  0.00    -0.327 OA
HETATM   29  C   UNL     1     -40.966  57.522 -51.008  1.00  0.00     0.142 A 
HETATM   30  C   UNL     1     -40.115  58.544 -50.658  1.00  0.00     0.027 A 
HETATM   31  C   UNL     1     -40.890  59.726 -50.676  1.00  0.00     0.034 A 
ENDBRANCH  26  27
ENDBRANCH  22  26
ENDBRANCH  21  22
ENDBRANCH   3  21
TORSDOF 9
ENDMDL
MODEL 9
REMARK VINA RESULT:      -7.2     14.664     16.554
REMARK  9 active torsions:
REMARK  status: ('A' for Active; 'I' for Inactive)
REMARK    1  A    between atoms: C_6  and  C_7 
REMARK    2  A    between atoms: C_7  and  C_8 
REMARK    3  A    between atoms: C_11  and  N_12 
REMARK       I    between atoms: N_12  and  C_13 
REMARK       I    between atoms: C_13  and  N_14 
REMARK    4  A    between atoms: N_14  and  C_15 
REMARK    5  A    between atoms: C_15  and  C_16 
REMARK    6  A    between atoms: C_16  and  C_17 
REMARK    7  A    between atoms: C_16  and  C_19 
REMARK    8  A    between atoms: C_17  and  O_18 
REMARK    9  A    between atoms: C_19  and  C_20 
ROOT
HETATM    1  N   UNL     1     -35.441  42.343 -53.342  1.00  0.00    -0.309 N 
HETATM    2  C   UNL     1     -34.954  41.479 -52.417  1.00  0.00     0.320 C 
HETATM    3  N   UNL     1     -34.620  40.219 -52.805  1.00  0.00    -0.342 N 
HETATM    4  O   UNL     1     -34.804  41.880 -51.264  1.00  0.00    -0.247 OA
HETATM    5  H   UNL     1     -35.499  43.271 -52.939  1.00  0.00     0.170 HD
HETATM    6  H   UNL     1     -34.257  40.156 -53.751  1.00  0.00     0.164 HD
ENDROOT
BRANCH   1   7
HETATM    7  C   UNL     1     -35.917  42.215 -54.658  1.00  0.00     0.036 A 
HETATM    8  C   UNL     1     -37.233  41.922 -55.013  1.00  0.00     0.030 A 
HETATM    9  C   UNL     1     -37.604  41.843 -56.362  1.00  0.00     0.010 A 
HETATM   10  C   UNL     1     -36.668  42.074 -57.380  1.00  0.00    -0.051 A 
HETATM   11  C   UNL     1     -35.353  42.391 -57.024  1.00  0.00     0.010 A 
HETATM   12  C   UNL     1     -34.986  42.459 -55.678  1.00  0.00     0.030 A 
BRANCH  10  13
HETATM   13  C   UNL     1     -37.087  42.060 -58.833  1.00  0.00     0.118 C 
BRANCH  13  14
HETATM   14  C   UNL     1     -36.880  40.752 -59.522  1.00  0.00     0.126 A 
HETATM   15  N   UNL     1     -37.241  40.496 -60.817  1.00  0.00    -0.263 N 
HETATM   16  N   UNL     1     -36.944  39.237 -61.171  1.00  0.00    -0.158 NA
HETATM   17  H   UNL     1     -37.679  41.116 -61.490  1.00  0.00     0.190 HD
HETATM   18  C   UNL     1     -36.399  38.762 -60.046  1.00  0.00     0.144 A 
HETATM   19  C   UNL     1     -35.892  37.382 -59.926  1.00  0.00     0.095 C 
HETATM   20  N   UNL     1     -36.340  39.662 -59.015  1.00  0.00    -0.217 NA
ENDBRANCH  13  14
ENDBRANCH  10  13
ENDBRANCH   1   7
BRANCH   3  21
HETATM   21  C   UNL     1     -33.976  39.338 -51.852  1.00  0.00     0.131 C 
BRANCH  21  22
HETATM   22  C   UNL     1     -32.440  39.355 -51.911  1.00  0.00     0.033 C 
BRANCH  22  23
HETATM   23  C   UNL     1     -31.832  39.573 -50.518  1.00  0.00     0.170 C 
BRANCH  23  24
HETATM   24  O   UNL     1     -32.698  40.326 -49.676  1.00  0.00    -0.400 OA
HETATM   25  H   UNL     1     -32.283  40.322 -48.792  1.00  0.00     0.209 HD
ENDBRANCH  23  24
ENDBRANCH  22  23
BRANCH  22  26
HETATM   26  C   UNL     1     -31.954  40.373 -52.957  1.00  0.00     0.073 C 
BRANCH  26  27
HETATM   27  C   UNL     1     -31.677  39.729 -54.268  1.00  0.00     0.053 A 
HETATM   28  O   UNL     1     -31.795  40.517 -55.374  1.00  0.00    -0.327 OA
HETATM   29  C   UNL     1     -31.487  39.740 -56.445  1.00  0.00     0.142 A 
HETATM   30  C   UNL     1     -31.176  38.463 -56.041  1.00  0.00     0.027 A 
HETATM   31  C   UNL     1     -31.301  38.454 -54.632  1.00  0.00     0.034 A 
ENDBRANCH  26  27
ENDBRANCH  22  26
ENDBRANCH  21  22
ENDBRANCH   3  21
TORSDOF 9
ENDMDL
MODEL 10
REMARK VINA RESULT:      -7.2      4.305      7.453
REMARK  9 active torsions:
REMARK  status: ('A' for Active; 'I' for Inactive)
REMARK    1  A    between atoms: C_6  and  C_7 
REMARK    2  A    between atoms: C_7  and  C_8 
REMARK    3  A    between atoms: C_11  and  N_12 
REMARK       I    between atoms: N_12  and  C_13 
REMARK       I    between atoms: C_13  and  N_14 
REMARK    4  A    between atoms: N_14  and  C_15 
REMARK    5  A    between atoms: C_15  and  C_16 
REMARK    6  A    between atoms: C_16  and  C_17 
REMARK    7  A    between atoms: C_16  and  C_19 
REMARK    8  A    between atoms: C_17  and  O_18 
REMARK    9  A    between atoms: C_19  and  C_20 
ROOT
HETATM    1  N   UNL     1     -44.253  56.138 -51.979  1.00  0.00    -0.309 N 
HETATM    2  C   UNL     1     -44.506  57.470 -52.014  1.00  0.00     0.320 C 
HETATM    3  N   UNL     1     -43.946  58.220 -52.999  1.00  0.00    -0.342 N 
HETATM    4  O   UNL     1     -45.261  57.944 -51.166  1.00  0.00    -0.247 OA
HETATM    5  H   UNL     1     -44.853  55.700 -51.290  1.00  0.00     0.170 HD
HETATM    6  H   UNL     1     -43.838  57.734 -53.884  1.00  0.00     0.164 HD
ENDROOT
BRANCH   1   7
HETATM    7  C   UNL     1     -43.336  55.291 -52.622  1.00  0.00     0.036 A 
HETATM    8  C   UNL     1     -43.513  54.720 -53.881  1.00  0.00     0.030 A 
HETATM    9  C   UNL     1     -42.518  53.907 -54.440  1.00  0.00     0.010 A 
HETATM   10  C   UNL     1     -41.318  53.667 -53.755  1.00  0.00    -0.051 A 
HETATM   11  C   UNL     1     -41.130  54.257 -52.502  1.00  0.00     0.010 A 
HETATM   12  C   UNL     1     -42.129  55.059 -51.946  1.00  0.00     0.030 A 
BRANCH  10  13
HETATM   13  C   UNL     1     -40.216  52.849 -54.392  1.00  0.00     0.118 C 
BRANCH  13  14
HETATM   14  C   UNL     1     -39.927  51.559 -53.700  1.00  0.00     0.126 A 
HETATM   15  N   UNL     1     -39.808  50.352 -54.335  1.00  0.00    -0.263 N 
HETATM   16  N   UNL     1     -39.556  49.361 -53.467  1.00  0.00    -0.158 NA
HETATM   17  H   UNL     1     -39.886  50.143 -55.325  1.00  0.00     0.190 HD
HETATM   18  C   UNL     1     -39.531  50.022 -52.305  1.00  0.00     0.144 A 
HETATM   19  C   UNL     1     -39.276  49.356 -51.013  1.00  0.00     0.095 C 
HETATM   20  N   UNL     1     -39.751  51.371 -52.408  1.00  0.00    -0.217 NA
ENDBRANCH  13  14
ENDBRANCH  10  13
ENDBRANCH   1   7
BRANCH   3  21
HETATM   21  C   UNL     1     -44.320  59.616 -53.120  1.00  0.00     0.131 C 
BRANCH  21  22
HETATM   22  C   UNL     1     -43.131  60.582 -53.239  1.00  0.00     0.033 C 
BRANCH  22  23
HETATM   23  C   UNL     1     -43.358  61.611 -54.356  1.00  0.00     0.170 C 
BRANCH  23  24
HETATM   24  O   UNL     1     -42.720  62.850 -54.070  1.00  0.00    -0.400 OA
HETATM   25  H   UNL     1     -41.822  62.784 -54.449  1.00  0.00     0.209 HD
ENDBRANCH  23  24
ENDBRANCH  22  23
BRANCH  22  26
HETATM   26  C   UNL     1     -41.815  59.799 -53.387  1.00  0.00     0.073 C 
BRANCH  26  27
HETATM   27  C   UNL     1     -41.119  59.636 -52.083  1.00  0.00     0.053 A 
HETATM   28  O   UNL     1     -39.783  59.369 -52.132  1.00  0.00    -0.327 OA
HETATM   29  C   UNL     1     -39.354  59.274 -50.846  1.00  0.00     0.142 A 
HETATM   30  C   UNL     1     -40.398  59.474 -49.973  1.00  0.00     0.027 A 
HETATM   31  C   UNL     1     -41.541  59.706 -50.773  1.00  0.00     0.034 A 
ENDBRANCH  26  27
ENDBRANCH  22  26
ENDBRANCH  21  22
ENDBRANCH   3  21
TORSDOF 9
ENDMDL
