MODEL 1
REMARK VINA RESULT:      -8.9      0.000      0.000
REMARK  8 active torsions:
REMARK  status: ('A' for Active; 'I' for Inactive)
REMARK    1  A    between atoms: C_4  and  S_5 
REMARK    2  A    between atoms: S_5  and  C_6 
REMARK    3  A    between atoms: C_6  and  C_7 
REMARK       I    between atoms: C_7  and  N_8 
REMARK    4  A    between atoms: N_8  and  C_9 
REMARK    5  A    between atoms: C_20  and  C_21 
REMARK    6  A    between atoms: C_27  and  C_28 
REMARK       I    between atoms: C_28  and  N_29 
REMARK    7  A    between atoms: N_29  and  C_30 
REMARK    8  A    between atoms: C_31  and  O_32 
ROOT
HETATM    1  C   UNL     1     -43.247  54.290 -56.300  1.00  0.00     0.069 C 
HETATM    2  C   UNL     1     -43.071  55.399 -55.295  1.00  0.00     0.019 C 
HETATM    3  N   UNL     1     -43.953  56.452 -55.385  1.00  0.00    -0.353 N 
HETATM    4  C   UNL     1     -43.947  57.576 -54.581  1.00  0.00     0.088 C 
HETATM    5  C   UNL     1     -43.097  57.645 -53.525  1.00  0.00     0.069 C 
HETATM    6  C   UNL     1     -43.099  58.747 -52.612  1.00  0.00     0.099 C 
HETATM    7  N   UNL     1     -43.108  59.653 -51.887  1.00  0.00    -0.192 NA
HETATM    8  C   UNL     1     -42.004  56.577 -53.348  1.00  0.00     0.106 C 
HETATM    9  C   UNL     1     -42.105  55.441 -54.353  1.00  0.00     0.046 C 
HETATM   10  H   UNL     1     -44.683  56.419 -56.091  1.00  0.00     0.166 HD
ENDROOT
BRANCH   4  11
HETATM   11  S   UNL     1     -45.042  58.873 -55.023  1.00  0.00    -0.102 SA
BRANCH  11  12
HETATM   12  C   UNL     1     -44.170  59.739 -56.367  1.00  0.00     0.184 C 
BRANCH  12  13
HETATM   13  C   UNL     1     -44.455  59.216 -57.769  1.00  0.00     0.231 C 
HETATM   14  N   UNL     1     -44.842  57.890 -57.820  1.00  0.00    -0.325 N 
HETATM   15  H   UNL     1     -44.773  57.340 -56.969  1.00  0.00     0.169 HD
HETATM   16  O   UNL     1     -44.350  59.951 -58.750  1.00  0.00    -0.272 OA
BRANCH  14  17
HETATM   17  C   UNL     1     -45.330  57.185 -58.953  1.00  0.00     0.056 A 
HETATM   18  C   UNL     1     -44.434  56.385 -59.688  1.00  0.00     0.060 A 
HETATM   19 CL   UNL     1     -42.763  56.287 -59.247  1.00  0.00    -0.082 Cl
HETATM   20  C   UNL     1     -44.868  55.642 -60.791  1.00  0.00     0.026 A 
HETATM   21  C   UNL     1     -46.206  55.687 -61.178  1.00  0.00     0.002 A 
HETATM   22  C   UNL     1     -47.104  56.472 -60.464  1.00  0.00     0.002 A 
HETATM   23  C   UNL     1     -46.669  57.216 -59.359  1.00  0.00     0.031 A 
ENDBRANCH  14  17
ENDBRANCH  12  13
ENDBRANCH  11  12
ENDBRANCH   4  11
BRANCH   8  24
HETATM   24  C   UNL     1     -41.888  56.096 -51.904  1.00  0.00    -0.044 A 
HETATM   25  C   UNL     1     -40.772  56.394 -51.108  1.00  0.00     0.008 A 
HETATM   26  C   UNL     1     -40.693  55.920 -49.797  1.00  0.00     0.001 A 
HETATM   27  C   UNL     1     -41.717  55.135 -49.269  1.00  0.00     0.000 A 
HETATM   28  C   UNL     1     -42.826  54.822 -50.052  1.00  0.00     0.001 A 
HETATM   29  C   UNL     1     -42.911  55.299 -51.359  1.00  0.00     0.008 A 
ENDBRANCH   8  24
BRANCH   9  30
HETATM   30  C   UNL     1     -41.008  54.443 -54.401  1.00  0.00     0.255 C 
HETATM   31  N   UNL     1     -41.413  53.277 -53.781  1.00  0.00    -0.321 N 
HETATM   32  H   UNL     1     -42.322  53.318 -53.335  1.00  0.00     0.169 HD
HETATM   33  O   UNL     1     -39.906  54.772 -54.810  1.00  0.00    -0.268 OA
BRANCH  31  34
HETATM   34  C   UNL     1     -40.667  52.109 -53.501  1.00  0.00     0.068 A 
HETATM   35  C   UNL     1     -40.067  51.773 -52.280  1.00  0.00     0.095 A 
HETATM   36  C   UNL     1     -39.358  50.567 -52.154  1.00  0.00     0.039 A 
HETATM   37  C   UNL     1     -39.257  49.685 -53.228  1.00  0.00     0.003 A 
HETATM   38  C   UNL     1     -39.834  50.016 -54.447  1.00  0.00     0.002 A 
HETATM   39  C   UNL     1     -40.523  51.222 -54.585  1.00  0.00     0.032 A 
BRANCH  35  40
HETATM   40  O   UNL     1     -40.010  52.673 -51.252  1.00  0.00    -0.354 OA
HETATM   41  C   UNL     1     -40.322  52.072 -49.995  1.00  0.00     0.210 C 
ENDBRANCH  35  40
ENDBRANCH  31  34
ENDBRANCH   9  30
TORSDOF 8
ENDMDL
MODEL 2
REMARK VINA RESULT:      -8.9      2.875      3.983
REMARK  8 active torsions:
REMARK  status: ('A' for Active; 'I' for Inactive)
REMARK    1  A    between atoms: C_4  and  S_5 
REMARK    2  A    between atoms: S_5  and  C_6 
REMARK    3  A    between atoms: C_6  and  C_7 
REMARK       I    between atoms: C_7  and  N_8 
REMARK    4  A    between atoms: N_8  and  C_9 
REMARK    5  A    between atoms: C_20  and  C_21 
REMARK    6  A    between atoms: C_27  and  C_28 
REMARK       I    between atoms: C_28  and  N_29 
REMARK    7  A    between atoms: N_29  and  C_30 
REMARK    8  A    between atoms: C_31  and  O_32 
ROOT
HETATM    1  C   UNL     1     -43.342  54.006 -56.025  1.00  0.00     0.069 C 
HETATM    2  C   UNL     1     -43.024  55.463 -55.808  1.00  0.00     0.019 C 
HETATM    3  N   UNL     1     -43.872  56.370 -56.404  1.00  0.00    -0.353 N 
HETATM    4  C   UNL     1     -43.743  57.745 -56.352  1.00  0.00     0.088 C 
HETATM    5  C   UNL     1     -42.787  58.303 -55.565  1.00  0.00     0.069 C 
HETATM    6  C   UNL     1     -42.656  59.719 -55.410  1.00  0.00     0.099 C 
HETATM    7  N   UNL     1     -42.558  60.871 -55.304  1.00  0.00    -0.192 NA
HETATM    8  C   UNL     1     -41.721  57.413 -54.904  1.00  0.00     0.106 C 
HETATM    9  C   UNL     1     -41.966  55.927 -55.111  1.00  0.00     0.046 C 
HETATM   10  H   UNL     1     -44.671  56.021 -56.926  1.00  0.00     0.166 HD
ENDROOT
BRANCH   4  11
HETATM   11  S   UNL     1     -44.829  58.682 -57.361  1.00  0.00    -0.102 SA
BRANCH  11  12
HETATM   12  C   UNL     1     -44.192  58.419 -59.047  1.00  0.00     0.184 C 
BRANCH  12  13
HETATM   13  C   UNL     1     -42.832  59.043 -59.332  1.00  0.00     0.231 C 
HETATM   14  N   UNL     1     -42.862  60.405 -59.563  1.00  0.00    -0.325 N 
HETATM   15  H   UNL     1     -43.768  60.852 -59.666  1.00  0.00     0.169 HD
HETATM   16  O   UNL     1     -41.811  58.357 -59.334  1.00  0.00    -0.272 OA
BRANCH  14  17
HETATM   17  C   UNL     1     -41.746  61.276 -59.687  1.00  0.00     0.056 A 
HETATM   18  C   UNL     1     -41.382  61.729 -60.969  1.00  0.00     0.060 A 
HETATM   19 CL   UNL     1     -42.249  61.210 -62.375  1.00  0.00    -0.082 Cl
HETATM   20  C   UNL     1     -40.313  62.615 -61.146  1.00  0.00     0.026 A 
HETATM   21  C   UNL     1     -39.591  63.063 -60.042  1.00  0.00     0.002 A 
HETATM   22  C   UNL     1     -39.937  62.625 -58.768  1.00  0.00     0.002 A 
HETATM   23  C   UNL     1     -41.007  61.739 -58.592  1.00  0.00     0.031 A 
ENDBRANCH  14  17
ENDBRANCH  12  13
ENDBRANCH  11  12
ENDBRANCH   4  11
BRANCH   8  24
HETATM   24  C   UNL     1     -41.476  57.786 -53.444  1.00  0.00    -0.044 A 
HETATM   25  C   UNL     1     -42.356  57.405 -52.421  1.00  0.00     0.008 A 
HETATM   26  C   UNL     1     -42.109  57.782 -51.099  1.00  0.00     0.001 A 
HETATM   27  C   UNL     1     -40.989  58.551 -50.784  1.00  0.00     0.000 A 
HETATM   28  C   UNL     1     -40.112  58.945 -51.791  1.00  0.00     0.001 A 
HETATM   29  C   UNL     1     -40.353  58.566 -53.111  1.00  0.00     0.008 A 
ENDBRANCH   8  24
BRANCH   9  30
HETATM   30  C   UNL     1     -40.916  54.973 -54.674  1.00  0.00     0.255 C 
HETATM   31  N   UNL     1     -41.434  54.115 -53.723  1.00  0.00    -0.321 N 
HETATM   32  H   UNL     1     -42.380  54.321 -53.425  1.00  0.00     0.169 HD
HETATM   33  O   UNL     1     -39.765  55.124 -55.050  1.00  0.00    -0.268 OA
BRANCH  31  34
HETATM   34  C   UNL     1     -40.774  53.125 -52.961  1.00  0.00     0.068 A 
HETATM   35  C   UNL     1     -40.570  53.134 -51.574  1.00  0.00     0.095 A 
HETATM   36  C   UNL     1     -39.897  52.069 -50.955  1.00  0.00     0.039 A 
HETATM   37  C   UNL     1     -39.440  50.985 -51.703  1.00  0.00     0.003 A 
HETATM   38  C   UNL     1     -39.623  50.972 -53.080  1.00  0.00     0.002 A 
HETATM   39  C   UNL     1     -40.274  52.039 -53.703  1.00  0.00     0.032 A 
BRANCH  35  40
HETATM   40  O   UNL     1     -40.863  54.242 -50.827  1.00  0.00    -0.354 OA
HETATM   41  C   UNL     1     -39.958  54.406 -49.735  1.00  0.00     0.210 C 
ENDBRANCH  35  40
ENDBRANCH  31  34
ENDBRANCH   9  30
TORSDOF 8
ENDMDL
MODEL 3
REMARK VINA RESULT:      -8.7      2.767      8.853
REMARK  8 active torsions:
REMARK  status: ('A' for Active; 'I' for Inactive)
REMARK    1  A    between atoms: C_4  and  S_5 
REMARK    2  A    between atoms: S_5  and  C_6 
REMARK    3  A    between atoms: C_6  and  C_7 
REMARK       I    between atoms: C_7  and  N_8 
REMARK    4  A    between atoms: N_8  and  C_9 
REMARK    5  A    between atoms: C_20  and  C_21 
REMARK    6  A    between atoms: C_27  and  C_28 
REMARK       I    between atoms: C_28  and  N_29 
REMARK    7  A    between atoms: N_29  and  C_30 
REMARK    8  A    between atoms: C_31  and  O_32 
ROOT
HETATM    1  C   UNL     1     -42.896  55.798 -58.060  1.00  0.00     0.069 C 
HETATM    2  C   UNL     1     -42.930  57.049 -57.219  1.00  0.00     0.019 C 
HETATM    3  N   UNL     1     -42.512  56.919 -55.913  1.00  0.00    -0.353 N 
HETATM    4  C   UNL     1     -42.491  57.931 -54.973  1.00  0.00     0.088 C 
HETATM    5  C   UNL     1     -42.784  59.204 -55.345  1.00  0.00     0.069 C 
HETATM    6  C   UNL     1     -42.703  60.305 -54.435  1.00  0.00     0.099 C 
HETATM    7  N   UNL     1     -42.641  61.184 -53.680  1.00  0.00    -0.192 NA
HETATM    8  C   UNL     1     -43.340  59.484 -56.751  1.00  0.00     0.106 C 
HETATM    9  C   UNL     1     -43.363  58.254 -57.644  1.00  0.00     0.046 C 
HETATM   10  H   UNL     1     -42.182  56.013 -55.593  1.00  0.00     0.166 HD
ENDROOT
BRANCH   4  11
HETATM   11  S   UNL     1     -42.113  57.473 -53.322  1.00  0.00    -0.102 SA
BRANCH  11  12
HETATM   12  C   UNL     1     -43.420  56.279 -52.893  1.00  0.00     0.184 C 
BRANCH  12  13
HETATM   13  C   UNL     1     -42.963  54.831 -52.769  1.00  0.00     0.231 C 
HETATM   14  N   UNL     1     -41.755  54.557 -53.382  1.00  0.00    -0.325 N 
HETATM   15  H   UNL     1     -41.345  55.274 -53.973  1.00  0.00     0.169 HD
HETATM   16  O   UNL     1     -43.636  54.008 -52.151  1.00  0.00    -0.272 OA
BRANCH  14  17
HETATM   17  C   UNL     1     -41.005  53.353 -53.291  1.00  0.00     0.056 A 
HETATM   18  C   UNL     1     -40.300  53.084 -52.103  1.00  0.00     0.060 A 
HETATM   19 CL   UNL     1     -40.311  54.212 -50.789  1.00  0.00    -0.082 Cl
HETATM   20  C   UNL     1     -39.574  51.898 -51.946  1.00  0.00     0.026 A 
HETATM   21  C   UNL     1     -39.542  50.960 -52.976  1.00  0.00     0.002 A 
HETATM   22  C   UNL     1     -40.234  51.210 -54.156  1.00  0.00     0.002 A 
HETATM   23  C   UNL     1     -40.960  52.397 -54.313  1.00  0.00     0.031 A 
ENDBRANCH  14  17
ENDBRANCH  12  13
ENDBRANCH  11  12
ENDBRANCH   4  11
BRANCH   8  24
HETATM   24  C   UNL     1     -42.680  60.693 -57.409  1.00  0.00    -0.044 A 
HETATM   25  C   UNL     1     -43.371  61.897 -57.615  1.00  0.00     0.008 A 
HETATM   26  C   UNL     1     -42.740  62.975 -58.237  1.00  0.00     0.001 A 
HETATM   27  C   UNL     1     -41.419  62.864 -58.670  1.00  0.00     0.000 A 
HETATM   28  C   UNL     1     -40.724  61.672 -58.481  1.00  0.00     0.001 A 
HETATM   29  C   UNL     1     -41.350  60.595 -57.854  1.00  0.00     0.008 A 
ENDBRANCH   8  24
BRANCH   9  30
HETATM   30  C   UNL     1     -44.039  58.353 -58.962  1.00  0.00     0.255 C 
HETATM   31  N   UNL     1     -45.347  57.922 -58.847  1.00  0.00    -0.321 N 
HETATM   32  H   UNL     1     -45.598  57.541 -57.942  1.00  0.00     0.169 HD
HETATM   33  O   UNL     1     -43.390  58.634 -59.956  1.00  0.00    -0.268 OA
BRANCH  31  34
HETATM   34  C   UNL     1     -46.320  57.745 -59.857  1.00  0.00     0.068 A 
HETATM   35  C   UNL     1     -46.707  56.532 -60.442  1.00  0.00     0.095 A 
HETATM   36  C   UNL     1     -47.698  56.515 -61.436  1.00  0.00     0.039 A 
HETATM   37  C   UNL     1     -48.320  57.695 -61.841  1.00  0.00     0.003 A 
HETATM   38  C   UNL     1     -47.933  58.905 -61.279  1.00  0.00     0.002 A 
HETATM   39  C   UNL     1     -46.934  58.930 -60.304  1.00  0.00     0.032 A 
BRANCH  35  40
HETATM   40  O   UNL     1     -46.020  55.376 -60.188  1.00  0.00    -0.354 OA
HETATM   41  C   UNL     1     -45.017  55.122 -61.171  1.00  0.00     0.210 C 
ENDBRANCH  35  40
ENDBRANCH  31  34
ENDBRANCH   9  30
TORSDOF 8
ENDMDL
MODEL 4
REMARK VINA RESULT:      -8.6      4.213      7.634
REMARK  8 active torsions:
REMARK  status: ('A' for Active; 'I' for Inactive)
REMARK    1  A    between atoms: C_4  and  S_5 
REMARK    2  A    between atoms: S_5  and  C_6 
REMARK    3  A    between atoms: C_6  and  C_7 
REMARK       I    between atoms: C_7  and  N_8 
REMARK    4  A    between atoms: N_8  and  C_9 
REMARK    5  A    between atoms: C_20  and  C_21 
REMARK    6  A    between atoms: C_27  and  C_28 
REMARK       I    between atoms: C_28  and  N_29 
REMARK    7  A    between atoms: N_29  and  C_30 
REMARK    8  A    between atoms: C_31  and  O_32 
ROOT
HETATM    1  C   UNL     1     -40.827  57.645 -52.194  1.00  0.00     0.069 C 
HETATM    2  C   UNL     1     -41.995  57.619 -53.146  1.00  0.00     0.019 C 
HETATM    3  N   UNL     1     -43.015  58.506 -52.887  1.00  0.00    -0.353 N 
HETATM    4  C   UNL     1     -44.182  58.624 -53.618  1.00  0.00     0.088 C 
HETATM    5  C   UNL     1     -44.334  57.913 -54.766  1.00  0.00     0.069 C 
HETATM    6  C   UNL     1     -45.484  58.052 -55.605  1.00  0.00     0.099 C 
HETATM    7  N   UNL     1     -46.429  58.171 -56.269  1.00  0.00    -0.192 NA
HETATM    8  C   UNL     1     -43.309  56.828 -55.137  1.00  0.00     0.106 C 
HETATM    9  C   UNL     1     -42.117  56.779 -54.195  1.00  0.00     0.046 C 
HETATM   10  H   UNL     1     -42.922  59.141 -52.100  1.00  0.00     0.166 HD
ENDROOT
BRANCH   4  11
HETATM   11  S   UNL     1     -45.421  59.683 -52.970  1.00  0.00    -0.102 SA
BRANCH  11  12
HETATM   12  C   UNL     1     -45.402  59.331 -51.183  1.00  0.00     0.184 C 
BRANCH  12  13
HETATM   13  C   UNL     1     -45.794  60.499 -50.287  1.00  0.00     0.231 C 
HETATM   14  N   UNL     1     -45.155  60.521 -49.062  1.00  0.00    -0.325 N 
HETATM   15  H   UNL     1     -44.600  59.712 -48.797  1.00  0.00     0.169 HD
HETATM   16  O   UNL     1     -46.608  61.340 -50.665  1.00  0.00    -0.272 OA
BRANCH  14  17
HETATM   17  C   UNL     1     -45.191  61.565 -48.098  1.00  0.00     0.056 A 
HETATM   18  C   UNL     1     -45.677  61.278 -46.809  1.00  0.00     0.060 A 
HETATM   19 CL   UNL     1     -46.257  59.697 -46.409  1.00  0.00    -0.082 Cl
HETATM   20  C   UNL     1     -45.702  62.260 -45.811  1.00  0.00     0.026 A 
HETATM   21  C   UNL     1     -45.240  63.545 -46.088  1.00  0.00     0.002 A 
HETATM   22  C   UNL     1     -44.756  63.845 -47.356  1.00  0.00     0.002 A 
HETATM   23  C   UNL     1     -44.731  62.862 -48.354  1.00  0.00     0.031 A 
ENDBRANCH  14  17
ENDBRANCH  12  13
ENDBRANCH  11  12
ENDBRANCH   4  11
BRANCH   8  24
HETATM   24  C   UNL     1     -42.912  56.882 -56.610  1.00  0.00    -0.044 A 
HETATM   25  C   UNL     1     -42.295  58.009 -57.173  1.00  0.00     0.008 A 
HETATM   26  C   UNL     1     -41.964  58.029 -58.530  1.00  0.00     0.001 A 
HETATM   27  C   UNL     1     -42.253  56.933 -59.341  1.00  0.00     0.000 A 
HETATM   28  C   UNL     1     -42.874  55.811 -58.798  1.00  0.00     0.001 A 
HETATM   29  C   UNL     1     -43.201  55.785 -57.443  1.00  0.00     0.008 A 
ENDBRANCH   8  24
BRANCH   9  30
HETATM   30  C   UNL     1     -41.149  55.663 -54.342  1.00  0.00     0.255 C 
HETATM   31  N   UNL     1     -41.547  54.597 -53.559  1.00  0.00    -0.321 N 
HETATM   32  H   UNL     1     -42.352  54.771 -52.969  1.00  0.00     0.169 HD
HETATM   33  O   UNL     1     -40.113  55.837 -54.963  1.00  0.00    -0.268 OA
BRANCH  31  34
HETATM   34  C   UNL     1     -40.881  53.376 -53.310  1.00  0.00     0.068 A 
HETATM   35  C   UNL     1     -40.245  52.998 -52.119  1.00  0.00     0.095 A 
HETATM   36  C   UNL     1     -39.627  51.742 -52.019  1.00  0.00     0.039 A 
HETATM   37  C   UNL     1     -39.651  50.850 -53.090  1.00  0.00     0.003 A 
HETATM   38  C   UNL     1     -40.266  51.219 -54.280  1.00  0.00     0.002 A 
HETATM   39  C   UNL     1     -40.864  52.475 -54.391  1.00  0.00     0.032 A 
BRANCH  35  40
HETATM   40  O   UNL     1     -40.063  53.896 -51.102  1.00  0.00    -0.354 OA
HETATM   41  C   UNL     1     -40.301  53.311 -49.822  1.00  0.00     0.210 C 
ENDBRANCH  35  40
ENDBRANCH  31  34
ENDBRANCH   9  30
TORSDOF 8
ENDMDL
MODEL 5
REMARK VINA RESULT:      -8.6      3.184      9.411
REMARK  8 active torsions:
REMARK  status: ('A' for Active; 'I' for Inactive)
REMARK    1  A    between atoms: C_4  and  S_5 
REMARK    2  A    between atoms: S_5  and  C_6 
REMARK    3  A    between atoms: C_6  and  C_7 
REMARK       I    between atoms: C_7  and  N_8 
REMARK    4  A    between atoms: N_8  and  C_9 
REMARK    5  A    between atoms: C_20  and  C_21 
REMARK    6  A    between atoms: C_27  and  C_28 
REMARK       I    between atoms: C_28  and  N_29 
REMARK    7  A    between atoms: N_29  and  C_30 
REMARK    8  A    between atoms: C_31  and  O_32 
ROOT
HETATM    1  C   UNL     1     -44.405  61.255 -55.877  1.00  0.00     0.069 C 
HETATM    2  C   UNL     1     -44.067  59.802 -56.093  1.00  0.00     0.019 C 
HETATM    3  N   UNL     1     -44.082  58.998 -54.975  1.00  0.00    -0.353 N 
HETATM    4  C   UNL     1     -43.777  57.650 -54.951  1.00  0.00     0.088 C 
HETATM    5  C   UNL     1     -43.552  56.989 -56.116  1.00  0.00     0.069 C 
HETATM    6  C   UNL     1     -43.309  55.580 -56.161  1.00  0.00     0.099 C 
HETATM    7  N   UNL     1     -43.104  54.437 -56.177  1.00  0.00    -0.192 NA
HETATM    8  C   UNL     1     -43.428  57.774 -57.433  1.00  0.00     0.106 C 
HETATM    9  C   UNL     1     -43.727  59.257 -57.279  1.00  0.00     0.046 C 
HETATM   10  H   UNL     1     -44.343  59.407 -54.082  1.00  0.00     0.166 HD
ENDROOT
BRANCH   4  11
HETATM   11  S   UNL     1     -43.667  56.889 -53.375  1.00  0.00    -0.102 SA
BRANCH  11  12
HETATM   12  C   UNL     1     -41.901  57.021 -52.951  1.00  0.00     0.184 C 
BRANCH  12  13
HETATM   13  C   UNL     1     -41.041  55.835 -53.371  1.00  0.00     0.231 C 
HETATM   14  N   UNL     1     -41.203  54.705 -52.592  1.00  0.00    -0.325 N 
HETATM   15  H   UNL     1     -41.753  54.786 -51.741  1.00  0.00     0.169 HD
HETATM   16  O   UNL     1     -40.287  55.913 -54.339  1.00  0.00    -0.272 OA
BRANCH  14  17
HETATM   17  C   UNL     1     -40.670  53.412 -52.841  1.00  0.00     0.056 A 
HETATM   18  C   UNL     1     -39.983  52.752 -51.804  1.00  0.00     0.060 A 
HETATM   19 CL   UNL     1     -39.757  53.512 -50.265  1.00  0.00    -0.082 Cl
HETATM   20  C   UNL     1     -39.468  51.464 -51.984  1.00  0.00     0.026 A 
HETATM   21  C   UNL     1     -39.632  50.812 -53.205  1.00  0.00     0.002 A 
HETATM   22  C   UNL     1     -40.308  51.450 -54.240  1.00  0.00     0.002 A 
HETATM   23  C   UNL     1     -40.823  52.739 -54.060  1.00  0.00     0.031 A 
ENDBRANCH  14  17
ENDBRANCH  12  13
ENDBRANCH  11  12
ENDBRANCH   4  11
BRANCH   8  24
HETATM   24  C   UNL     1     -44.198  57.119 -58.576  1.00  0.00    -0.044 A 
HETATM   25  C   UNL     1     -43.559  56.348 -59.558  1.00  0.00     0.008 A 
HETATM   26  C   UNL     1     -44.295  55.780 -60.600  1.00  0.00     0.001 A 
HETATM   27  C   UNL     1     -45.672  55.984 -60.682  1.00  0.00     0.000 A 
HETATM   28  C   UNL     1     -46.319  56.756 -59.720  1.00  0.00     0.001 A 
HETATM   29  C   UNL     1     -45.587  57.319 -58.674  1.00  0.00     0.008 A 
ENDBRANCH   8  24
BRANCH   9  30
HETATM   30  C   UNL     1     -43.470  60.150 -58.436  1.00  0.00     0.255 C 
HETATM   31  N   UNL     1     -42.112  60.377 -58.556  1.00  0.00    -0.321 N 
HETATM   32  H   UNL     1     -41.541  59.985 -57.816  1.00  0.00     0.169 HD
HETATM   33  O   UNL     1     -44.406  60.671 -59.019  1.00  0.00    -0.268 OA
BRANCH  31  34
HETATM   34  C   UNL     1     -41.426  61.240 -59.441  1.00  0.00     0.068 A 
HETATM   35  C   UNL     1     -41.551  61.278 -60.836  1.00  0.00     0.095 A 
HETATM   36  C   UNL     1     -40.804  62.201 -61.584  1.00  0.00     0.039 A 
HETATM   37  C   UNL     1     -39.946  63.100 -60.953  1.00  0.00     0.003 A 
HETATM   38  C   UNL     1     -39.803  63.062 -59.572  1.00  0.00     0.002 A 
HETATM   39  C   UNL     1     -40.528  62.132 -58.825  1.00  0.00     0.032 A 
BRANCH  35  40
HETATM   40  O   UNL     1     -42.260  60.318 -61.506  1.00  0.00    -0.354 OA
HETATM   41  C   UNL     1     -43.244  60.884 -62.372  1.00  0.00     0.210 C 
ENDBRANCH  35  40
ENDBRANCH  31  34
ENDBRANCH   9  30
TORSDOF 8
ENDMDL
MODEL 6
REMARK VINA RESULT:      -8.5      2.456      8.324
REMARK  8 active torsions:
REMARK  status: ('A' for Active; 'I' for Inactive)
REMARK    1  A    between atoms: C_4  and  S_5 
REMARK    2  A    between atoms: S_5  and  C_6 
REMARK    3  A    between atoms: C_6  and  C_7 
REMARK       I    between atoms: C_7  and  N_8 
REMARK    4  A    between atoms: N_8  and  C_9 
REMARK    5  A    between atoms: C_20  and  C_21 
REMARK    6  A    between atoms: C_27  and  C_28 
REMARK       I    between atoms: C_28  and  N_29 
REMARK    7  A    between atoms: N_29  and  C_30 
REMARK    8  A    between atoms: C_31  and  O_32 
ROOT
HETATM    1  C   UNL     1     -42.090  56.560 -55.624  1.00  0.00     0.069 C 
HETATM    2  C   UNL     1     -42.994  57.170 -54.583  1.00  0.00     0.019 C 
HETATM    3  N   UNL     1     -42.917  56.635 -53.317  1.00  0.00    -0.353 N 
HETATM    4  C   UNL     1     -43.676  57.030 -52.231  1.00  0.00     0.088 C 
HETATM    5  C   UNL     1     -44.496  58.108 -52.336  1.00  0.00     0.069 C 
HETATM    6  C   UNL     1     -45.244  58.610 -51.226  1.00  0.00     0.099 C 
HETATM    7  N   UNL     1     -45.852  58.998 -50.316  1.00  0.00    -0.192 NA
HETATM    8  C   UNL     1     -44.739  58.755 -53.710  1.00  0.00     0.106 C 
HETATM    9  C   UNL     1     -43.878  58.163 -54.814  1.00  0.00     0.046 C 
HETATM   10  H   UNL     1     -42.250  55.890 -53.140  1.00  0.00     0.166 HD
ENDROOT
BRANCH   4  11
HETATM   11  S   UNL     1     -43.543  56.060 -50.775  1.00  0.00    -0.102 SA
BRANCH  11  12
HETATM   12  C   UNL     1     -41.864  55.359 -50.872  1.00  0.00     0.184 C 
BRANCH  12  13
HETATM   13  C   UNL     1     -41.753  54.038 -51.622  1.00  0.00     0.231 C 
HETATM   14  N   UNL     1     -40.494  53.468 -51.597  1.00  0.00    -0.325 N 
HETATM   15  H   UNL     1     -39.728  54.018 -51.220  1.00  0.00     0.169 HD
HETATM   16  O   UNL     1     -42.732  53.544 -52.180  1.00  0.00    -0.272 OA
BRANCH  14  17
HETATM   17  C   UNL     1     -40.134  52.173 -52.059  1.00  0.00     0.056 A 
HETATM   18  C   UNL     1     -39.962  51.972 -53.441  1.00  0.00     0.060 A 
HETATM   19 CL   UNL     1     -40.220  53.262 -54.566  1.00  0.00    -0.082 Cl
HETATM   20  C   UNL     1     -39.573  50.726 -53.947  1.00  0.00     0.026 A 
HETATM   21  C   UNL     1     -39.348  49.661 -53.077  1.00  0.00     0.002 A 
HETATM   22  C   UNL     1     -39.513  49.843 -51.709  1.00  0.00     0.002 A 
HETATM   23  C   UNL     1     -39.903  51.089 -51.203  1.00  0.00     0.031 A 
ENDBRANCH  14  17
ENDBRANCH  12  13
ENDBRANCH  11  12
ENDBRANCH   4  11
BRANCH   8  24
HETATM   24  C   UNL     1     -44.683  60.279 -53.653  1.00  0.00    -0.044 A 
HETATM   25  C   UNL     1     -45.814  61.074 -53.888  1.00  0.00     0.008 A 
HETATM   26  C   UNL     1     -45.719  62.467 -53.847  1.00  0.00     0.001 A 
HETATM   27  C   UNL     1     -44.497  63.082 -53.582  1.00  0.00     0.000 A 
HETATM   28  C   UNL     1     -43.363  62.305 -53.357  1.00  0.00     0.001 A 
HETATM   29  C   UNL     1     -43.455  60.914 -53.392  1.00  0.00     0.008 A 
ENDBRANCH   8  24
BRANCH   9  30
HETATM   30  C   UNL     1     -44.145  58.579 -56.214  1.00  0.00     0.255 C 
HETATM   31  N   UNL     1     -45.166  57.811 -56.740  1.00  0.00    -0.321 N 
HETATM   32  H   UNL     1     -45.495  57.062 -56.143  1.00  0.00     0.169 HD
HETATM   33  O   UNL     1     -43.403  59.379 -56.760  1.00  0.00    -0.268 OA
BRANCH  31  34
HETATM   34  C   UNL     1     -45.676  57.787 -58.058  1.00  0.00     0.068 A 
HETATM   35  C   UNL     1     -45.270  56.938 -59.096  1.00  0.00     0.095 A 
HETATM   36  C   UNL     1     -45.878  57.029 -60.359  1.00  0.00     0.039 A 
HETATM   37  C   UNL     1     -46.899  57.948 -60.592  1.00  0.00     0.003 A 
HETATM   38  C   UNL     1     -47.299  58.806 -59.575  1.00  0.00     0.002 A 
HETATM   39  C   UNL     1     -46.684  58.733 -58.323  1.00  0.00     0.032 A 
BRANCH  35  40
HETATM   40  O   UNL     1     -44.173  56.131 -58.959  1.00  0.00    -0.354 OA
HETATM   41  C   UNL     1     -42.980  56.766 -59.420  1.00  0.00     0.210 C 
ENDBRANCH  35  40
ENDBRANCH  31  34
ENDBRANCH   9  30
TORSDOF 8
ENDMDL
MODEL 7
REMARK VINA RESULT:      -8.4      2.662      8.381
REMARK  8 active torsions:
REMARK  status: ('A' for Active; 'I' for Inactive)
REMARK    1  A    between atoms: C_4  and  S_5 
REMARK    2  A    between atoms: S_5  and  C_6 
REMARK    3  A    between atoms: C_6  and  C_7 
REMARK       I    between atoms: C_7  and  N_8 
REMARK    4  A    between atoms: N_8  and  C_9 
REMARK    5  A    between atoms: C_20  and  C_21 
REMARK    6  A    between atoms: C_27  and  C_28 
REMARK       I    between atoms: C_28  and  N_29 
REMARK    7  A    between atoms: N_29  and  C_30 
REMARK    8  A    between atoms: C_31  and  O_32 
ROOT
HETATM    1  C   UNL     1     -41.710  55.619 -55.632  1.00  0.00     0.069 C 
HETATM    2  C   UNL     1     -42.620  56.314 -54.652  1.00  0.00     0.019 C 
HETATM    3  N   UNL     1     -42.588  55.852 -53.355  1.00  0.00    -0.353 N 
HETATM    4  C   UNL     1     -43.359  56.331 -52.313  1.00  0.00     0.088 C 
HETATM    5  C   UNL     1     -44.145  57.423 -52.502  1.00  0.00     0.069 C 
HETATM    6  C   UNL     1     -44.905  58.010 -51.441  1.00  0.00     0.099 C 
HETATM    7  N   UNL     1     -45.522  58.468 -50.571  1.00  0.00    -0.192 NA
HETATM    8  C   UNL     1     -44.337  57.995 -53.916  1.00  0.00     0.106 C 
HETATM    9  C   UNL     1     -43.469  57.315 -54.962  1.00  0.00     0.046 C 
HETATM   10  H   UNL     1     -41.946  55.101 -53.119  1.00  0.00     0.166 HD
ENDROOT
BRANCH   4  11
HETATM   11  S   UNL     1     -43.288  55.445 -50.801  1.00  0.00    -0.102 SA
BRANCH  11  12
HETATM   12  C   UNL     1     -41.582  55.711 -50.221  1.00  0.00     0.184 C 
BRANCH  12  13
HETATM   13  C   UNL     1     -40.688  54.478 -50.245  1.00  0.00     0.231 C 
HETATM   14  N   UNL     1     -41.247  53.375 -50.863  1.00  0.00    -0.325 N 
HETATM   15  H   UNL     1     -42.229  53.417 -51.119  1.00  0.00     0.169 HD
HETATM   16  O   UNL     1     -39.560  54.507 -49.755  1.00  0.00    -0.272 OA
BRANCH  14  17
HETATM   17  C   UNL     1     -40.596  52.153 -51.182  1.00  0.00     0.056 A 
HETATM   18  C   UNL     1     -40.096  51.973 -52.486  1.00  0.00     0.060 A 
HETATM   19 CL   UNL     1     -40.301  53.198 -53.692  1.00  0.00    -0.082 Cl
HETATM   20  C   UNL     1     -39.416  50.804 -52.844  1.00  0.00     0.026 A 
HETATM   21  C   UNL     1     -39.223  49.795 -51.903  1.00  0.00     0.002 A 
HETATM   22  C   UNL     1     -39.710  49.956 -50.610  1.00  0.00     0.002 A 
HETATM   23  C   UNL     1     -40.391  51.126 -50.252  1.00  0.00     0.031 A 
ENDBRANCH  14  17
ENDBRANCH  12  13
ENDBRANCH  11  12
ENDBRANCH   4  11
BRANCH   8  24
HETATM   24  C   UNL     1     -44.239  59.518 -53.947  1.00  0.00    -0.044 A 
HETATM   25  C   UNL     1     -45.333  60.327 -54.285  1.00  0.00     0.008 A 
HETATM   26  C   UNL     1     -45.199  61.717 -54.322  1.00  0.00     0.001 A 
HETATM   27  C   UNL     1     -43.972  62.313 -54.032  1.00  0.00     0.000 A 
HETATM   28  C   UNL     1     -42.874  61.522 -53.704  1.00  0.00     0.001 A 
HETATM   29  C   UNL     1     -43.006  60.134 -53.662  1.00  0.00     0.008 A 
ENDBRANCH   8  24
BRANCH   9  30
HETATM   30  C   UNL     1     -43.691  57.655 -56.390  1.00  0.00     0.255 C 
HETATM   31  N   UNL     1     -42.529  58.172 -56.931  1.00  0.00    -0.321 N 
HETATM   32  H   UNL     1     -41.772  58.313 -56.274  1.00  0.00     0.169 HD
HETATM   33  O   UNL     1     -44.815  57.592 -56.860  1.00  0.00    -0.268 OA
BRANCH  31  34
HETATM   34  C   UNL     1     -42.311  58.721 -58.215  1.00  0.00     0.068 A 
HETATM   35  C   UNL     1     -42.278  58.021 -59.429  1.00  0.00     0.095 A 
HETATM   36  C   UNL     1     -42.055  58.710 -60.632  1.00  0.00     0.039 A 
HETATM   37  C   UNL     1     -41.882  60.093 -60.639  1.00  0.00     0.003 A 
HETATM   38  C   UNL     1     -41.898  60.795 -59.440  1.00  0.00     0.002 A 
HETATM   39  C   UNL     1     -42.099  60.112 -58.239  1.00  0.00     0.032 A 
BRANCH  35  40
HETATM   40  O   UNL     1     -42.288  56.653 -59.454  1.00  0.00    -0.354 OA
HETATM   41  C   UNL     1     -43.538  56.135 -59.907  1.00  0.00     0.210 C 
ENDBRANCH  35  40
ENDBRANCH  31  34
ENDBRANCH   9  30
TORSDOF 8
ENDMDL
MODEL 8
REMARK VINA RESULT:      -8.3      2.672      4.330
REMARK  8 active torsions:
REMARK  status: ('A' for Active; 'I' for Inactive)
REMARK    1  A    between atoms: C_4  and  S_5 
REMARK    2  A    between atoms: S_5  and  C_6 
REMARK    3  A    between atoms: C_6  and  C_7 
REMARK       I    between atoms: C_7  and  N_8 
REMARK    4  A    between atoms: N_8  and  C_9 
REMARK    5  A    between atoms: C_20  and  C_21 
REMARK    6  A    between atoms: C_27  and  C_28 
REMARK       I    between atoms: C_28  and  N_29 
REMARK    7  A    between atoms: N_29  and  C_30 
REMARK    8  A    between atoms: C_31  and  O_32 
ROOT
HETATM    1  C   UNL     1     -40.873  58.407 -50.364  1.00  0.00     0.069 C 
HETATM    2  C   UNL     1     -41.967  58.406 -51.401  1.00  0.00     0.019 C 
HETATM    3  N   UNL     1     -42.459  59.638 -51.772  1.00  0.00    -0.353 N 
HETATM    4  C   UNL     1     -43.476  59.855 -52.682  1.00  0.00     0.088 C 
HETATM    5  C   UNL     1     -43.987  58.811 -53.385  1.00  0.00     0.069 C 
HETATM    6  C   UNL     1     -44.985  58.984 -54.395  1.00  0.00     0.099 C 
HETATM    7  N   UNL     1     -45.801  59.143 -55.205  1.00  0.00    -0.192 NA
HETATM    8  C   UNL     1     -43.586  57.371 -53.021  1.00  0.00     0.106 C 
HETATM    9  C   UNL     1     -42.506  57.300 -51.954  1.00  0.00     0.046 C 
HETATM   10  H   UNL     1     -42.052  60.472 -51.359  1.00  0.00     0.166 HD
ENDROOT
BRANCH   4  11
HETATM   11  S   UNL     1     -44.067  61.499 -52.835  1.00  0.00    -0.102 SA
BRANCH  11  12
HETATM   12  C   UNL     1     -42.948  62.251 -54.060  1.00  0.00     0.184 C 
BRANCH  12  13
HETATM   13  C   UNL     1     -43.280  61.949 -55.516  1.00  0.00     0.231 C 
HETATM   14  N   UNL     1     -42.325  61.203 -56.180  1.00  0.00    -0.325 N 
HETATM   15  H   UNL     1     -41.438  61.039 -55.713  1.00  0.00     0.169 HD
HETATM   16  O   UNL     1     -44.332  62.343 -56.018  1.00  0.00    -0.272 OA
BRANCH  14  17
HETATM   17  C   UNL     1     -42.436  60.633 -57.477  1.00  0.00     0.056 A 
HETATM   18  C   UNL     1     -41.691  61.198 -58.529  1.00  0.00     0.060 A 
HETATM   19 CL   UNL     1     -40.686  62.583 -58.264  1.00  0.00    -0.082 Cl
HETATM   20  C   UNL     1     -41.735  60.655 -59.818  1.00  0.00     0.026 A 
HETATM   21  C   UNL     1     -42.526  59.536 -60.076  1.00  0.00     0.002 A 
HETATM   22  C   UNL     1     -43.268  58.966 -59.047  1.00  0.00     0.002 A 
HETATM   23  C   UNL     1     -43.223  59.510 -57.757  1.00  0.00     0.031 A 
ENDBRANCH  14  17
ENDBRANCH  12  13
ENDBRANCH  11  12
ENDBRANCH   4  11
BRANCH   8  24
HETATM   24  C   UNL     1     -43.276  56.524 -54.252  1.00  0.00    -0.044 A 
HETATM   25  C   UNL     1     -43.793  55.230 -54.415  1.00  0.00     0.008 A 
HETATM   26  C   UNL     1     -43.471  54.478 -55.546  1.00  0.00     0.001 A 
HETATM   27  C   UNL     1     -42.622  55.001 -56.521  1.00  0.00     0.000 A 
HETATM   28  C   UNL     1     -42.093  56.280 -56.368  1.00  0.00     0.001 A 
HETATM   29  C   UNL     1     -42.417  57.036 -55.242  1.00  0.00     0.008 A 
ENDBRANCH   8  24
BRANCH   9  30
HETATM   30  C   UNL     1     -42.160  55.971 -51.391  1.00  0.00     0.255 C 
HETATM   31  N   UNL     1     -41.172  55.383 -52.158  1.00  0.00    -0.321 N 
HETATM   32  H   UNL     1     -40.916  55.892 -52.996  1.00  0.00     0.169 HD
HETATM   33  O   UNL     1     -42.826  55.507 -50.480  1.00  0.00    -0.268 OA
BRANCH  31  34
HETATM   34  C   UNL     1     -40.616  54.088 -52.056  1.00  0.00     0.068 A 
HETATM   35  C   UNL     1     -40.027  53.518 -50.920  1.00  0.00     0.095 A 
HETATM   36  C   UNL     1     -39.521  52.209 -50.971  1.00  0.00     0.039 A 
HETATM   37  C   UNL     1     -39.613  51.456 -52.140  1.00  0.00     0.003 A 
HETATM   38  C   UNL     1     -40.181  52.016 -53.277  1.00  0.00     0.002 A 
HETATM   39  C   UNL     1     -40.668  53.324 -53.238  1.00  0.00     0.032 A 
BRANCH  35  40
HETATM   40  O   UNL     1     -39.778  54.269 -49.803  1.00  0.00    -0.354 OA
HETATM   41  C   UNL     1     -40.437  53.749 -48.649  1.00  0.00     0.210 C 
ENDBRANCH  35  40
ENDBRANCH  31  34
ENDBRANCH   9  30
TORSDOF 8
ENDMDL
MODEL 9
REMARK VINA RESULT:      -8.3      2.798      9.552
REMARK  8 active torsions:
REMARK  status: ('A' for Active; 'I' for Inactive)
REMARK    1  A    between atoms: C_4  and  S_5 
REMARK    2  A    between atoms: S_5  and  C_6 
REMARK    3  A    between atoms: C_6  and  C_7 
REMARK       I    between atoms: C_7  and  N_8 
REMARK    4  A    between atoms: N_8  and  C_9 
REMARK    5  A    between atoms: C_20  and  C_21 
REMARK    6  A    between atoms: C_27  and  C_28 
REMARK       I    between atoms: C_28  and  N_29 
REMARK    7  A    between atoms: N_29  and  C_30 
REMARK    8  A    between atoms: C_31  and  O_32 
ROOT
HETATM    1  C   UNL     1     -43.186  55.503 -59.037  1.00  0.00     0.069 C 
HETATM    2  C   UNL     1     -43.157  56.652 -58.063  1.00  0.00     0.019 C 
HETATM    3  N   UNL     1     -42.674  56.375 -56.804  1.00  0.00    -0.353 N 
HETATM    4  C   UNL     1     -42.589  57.276 -55.760  1.00  0.00     0.088 C 
HETATM    5  C   UNL     1     -42.882  58.585 -55.973  1.00  0.00     0.069 C 
HETATM    6  C   UNL     1     -42.737  59.577 -54.952  1.00  0.00     0.099 C 
HETATM    7  N   UNL     1     -42.622  60.366 -54.109  1.00  0.00    -0.192 NA
HETATM    8  C   UNL     1     -43.507  59.024 -57.308  1.00  0.00     0.106 C 
HETATM    9  C   UNL     1     -43.594  57.901 -58.328  1.00  0.00     0.046 C 
HETATM   10  H   UNL     1     -42.341  55.436 -56.604  1.00  0.00     0.166 HD
ENDROOT
BRANCH   4  11
HETATM   11  S   UNL     1     -42.132  56.634 -54.193  1.00  0.00    -0.102 SA
BRANCH  11  12
HETATM   12  C   UNL     1     -40.829  55.422 -54.583  1.00  0.00     0.184 C 
BRANCH  12  13
HETATM   13  C   UNL     1     -41.058  54.021 -54.030  1.00  0.00     0.231 C 
HETATM   14  N   UNL     1     -39.927  53.226 -53.996  1.00  0.00    -0.325 N 
HETATM   15  H   UNL     1     -39.089  53.568 -54.456  1.00  0.00     0.169 HD
HETATM   16  O   UNL     1     -42.171  53.669 -53.644  1.00  0.00    -0.272 OA
BRANCH  14  17
HETATM   17  C   UNL     1     -39.799  51.950 -53.384  1.00  0.00     0.056 A 
HETATM   18  C   UNL     1     -39.694  51.879 -51.983  1.00  0.00     0.060 A 
HETATM   19 CL   UNL     1     -39.682  53.317 -51.019  1.00  0.00    -0.082 Cl
HETATM   20  C   UNL     1     -39.601  50.647 -51.326  1.00  0.00     0.026 A 
HETATM   21  C   UNL     1     -39.612  49.463 -52.063  1.00  0.00     0.002 A 
HETATM   22  C   UNL     1     -39.716  49.516 -53.448  1.00  0.00     0.002 A 
HETATM   23  C   UNL     1     -39.809  50.749 -54.104  1.00  0.00     0.031 A 
ENDBRANCH  14  17
ENDBRANCH  12  13
ENDBRANCH  11  12
ENDBRANCH   4  11
BRANCH   8  24
HETATM   24  C   UNL     1     -42.864  60.293 -57.861  1.00  0.00    -0.044 A 
HETATM   25  C   UNL     1     -41.515  60.339 -58.240  1.00  0.00     0.008 A 
HETATM   26  C   UNL     1     -40.957  61.525 -58.724  1.00  0.00     0.001 A 
HETATM   27  C   UNL     1     -41.734  62.678 -58.826  1.00  0.00     0.000 A 
HETATM   28  C   UNL     1     -43.073  62.650 -58.444  1.00  0.00     0.001 A 
HETATM   29  C   UNL     1     -43.634  61.466 -57.966  1.00  0.00     0.008 A 
ENDBRANCH   8  24
BRANCH   9  30
HETATM   30  C   UNL     1     -44.337  58.152 -59.589  1.00  0.00     0.255 C 
HETATM   31  N   UNL     1     -45.689  57.957 -59.379  1.00  0.00    -0.321 N 
HETATM   32  H   UNL     1     -45.937  57.604 -58.462  1.00  0.00     0.169 HD
HETATM   33  O   UNL     1     -43.723  58.339 -60.627  1.00  0.00    -0.268 OA
BRANCH  31  34
HETATM   34  C   UNL     1     -46.749  57.981 -60.313  1.00  0.00     0.068 A 
HETATM   35  C   UNL     1     -47.443  59.114 -60.761  1.00  0.00     0.095 A 
HETATM   36  C   UNL     1     -48.475  58.979 -61.702  1.00  0.00     0.039 A 
HETATM   37  C   UNL     1     -48.812  57.728 -62.216  1.00  0.00     0.003 A 
HETATM   38  C   UNL     1     -48.141  56.597 -61.769  1.00  0.00     0.002 A 
HETATM   39  C   UNL     1     -47.126  56.723 -60.818  1.00  0.00     0.032 A 
BRANCH  35  40
HETATM   40  O   UNL     1     -47.253  60.335 -60.172  1.00  0.00    -0.354 OA
HETATM   41  C   UNL     1     -47.817  61.395 -60.944  1.00  0.00     0.210 C 
ENDBRANCH  35  40
ENDBRANCH  31  34
ENDBRANCH   9  30
TORSDOF 8
ENDMDL
MODEL 10
REMARK VINA RESULT:      -8.2      2.239      3.078
REMARK  8 active torsions:
REMARK  status: ('A' for Active; 'I' for Inactive)
REMARK    1  A    between atoms: C_4  and  S_5 
REMARK    2  A    between atoms: S_5  and  C_6 
REMARK    3  A    between atoms: C_6  and  C_7 
REMARK       I    between atoms: C_7  and  N_8 
REMARK    4  A    between atoms: N_8  and  C_9 
REMARK    5  A    between atoms: C_20  and  C_21 
REMARK    6  A    between atoms: C_27  and  C_28 
REMARK       I    between atoms: C_28  and  N_29 
REMARK    7  A    between atoms: N_29  and  C_30 
REMARK    8  A    between atoms: C_31  and  O_32 
ROOT
HETATM    1  C   UNL     1     -42.670  55.178 -56.756  1.00  0.00     0.069 C 
HETATM    2  C   UNL     1     -42.560  56.099 -55.568  1.00  0.00     0.019 C 
HETATM    3  N   UNL     1     -43.300  57.259 -55.623  1.00  0.00    -0.353 N 
HETATM    4  C   UNL     1     -43.320  58.245 -54.655  1.00  0.00     0.088 C 
HETATM    5  C   UNL     1     -42.665  58.052 -53.481  1.00  0.00     0.069 C 
HETATM    6  C   UNL     1     -42.714  59.002 -52.413  1.00  0.00     0.099 C 
HETATM    7  N   UNL     1     -42.757  59.789 -51.560  1.00  0.00    -0.192 NA
HETATM    8  C   UNL     1     -41.735  56.838 -53.312  1.00  0.00     0.106 C 
HETATM    9  C   UNL     1     -41.775  55.882 -54.492  1.00  0.00     0.046 C 
HETATM   10  H   UNL     1     -43.894  57.422 -56.430  1.00  0.00     0.166 HD
ENDROOT
BRANCH   4  11
HETATM   11  S   UNL     1     -44.181  59.723 -55.045  1.00  0.00    -0.102 SA
BRANCH  11  12
HETATM   12  C   UNL     1     -42.855  60.908 -55.437  1.00  0.00     0.184 C 
BRANCH  12  13
HETATM   13  C   UNL     1     -42.860  61.441 -56.865  1.00  0.00     0.231 C 
HETATM   14  N   UNL     1     -41.750  61.092 -57.611  1.00  0.00    -0.325 N 
HETATM   15  H   UNL     1     -40.973  60.646 -57.132  1.00  0.00     0.169 HD
HETATM   16  O   UNL     1     -43.801  62.111 -57.285  1.00  0.00    -0.272 OA
BRANCH  14  17
HETATM   17  C   UNL     1     -41.558  61.298 -59.004  1.00  0.00     0.056 A 
HETATM   18  C   UNL     1     -42.002  60.308 -59.901  1.00  0.00     0.060 A 
HETATM   19 CL   UNL     1     -42.734  58.849 -59.324  1.00  0.00    -0.082 Cl
HETATM   20  C   UNL     1     -41.870  60.475 -61.284  1.00  0.00     0.026 A 
HETATM   21  C   UNL     1     -41.292  61.637 -61.793  1.00  0.00     0.002 A 
HETATM   22  C   UNL     1     -40.848  62.624 -60.921  1.00  0.00     0.002 A 
HETATM   23  C   UNL     1     -40.981  62.456 -59.537  1.00  0.00     0.031 A 
ENDBRANCH  14  17
ENDBRANCH  12  13
ENDBRANCH  11  12
ENDBRANCH   4  11
BRANCH   8  24
HETATM   24  C   UNL     1     -41.924  56.143 -51.965  1.00  0.00    -0.044 A 
HETATM   25  C   UNL     1     -43.021  55.309 -51.707  1.00  0.00     0.008 A 
HETATM   26  C   UNL     1     -43.171  54.706 -50.456  1.00  0.00     0.001 A 
HETATM   27  C   UNL     1     -42.236  54.936 -49.448  1.00  0.00     0.000 A 
HETATM   28  C   UNL     1     -41.147  55.770 -49.687  1.00  0.00     0.001 A 
HETATM   29  C   UNL     1     -40.992  56.369 -50.936  1.00  0.00     0.008 A 
ENDBRANCH   8  24
BRANCH   9  30
HETATM   30  C   UNL     1     -40.794  54.768 -54.529  1.00  0.00     0.255 C 
HETATM   31  N   UNL     1     -41.324  53.661 -53.892  1.00  0.00    -0.321 N 
HETATM   32  H   UNL     1     -42.221  53.808 -53.446  1.00  0.00     0.169 HD
HETATM   33  O   UNL     1     -39.665  54.968 -54.944  1.00  0.00    -0.268 OA
BRANCH  31  34
HETATM   34  C   UNL     1     -40.710  52.422 -53.600  1.00  0.00     0.068 A 
HETATM   35  C   UNL     1     -40.149  52.036 -52.375  1.00  0.00     0.095 A 
HETATM   36  C   UNL     1     -39.577  50.762 -52.234  1.00  0.00     0.039 A 
HETATM   37  C   UNL     1     -39.574  49.861 -53.298  1.00  0.00     0.003 A 
HETATM   38  C   UNL     1     -40.114  50.239 -54.521  1.00  0.00     0.002 A 
HETATM   39  C   UNL     1     -40.666  51.512 -54.673  1.00  0.00     0.032 A 
BRANCH  35  40
HETATM   40  O   UNL     1     -39.991  52.937 -51.357  1.00  0.00    -0.354 OA
HETATM   41  C   UNL     1     -40.213  52.343 -50.077  1.00  0.00     0.210 C 
ENDBRANCH  35  40
ENDBRANCH  31  34
ENDBRANCH   9  30
TORSDOF 8
ENDMDL
