MODEL 1
REMARK VINA RESULT:      -8.6      0.000      0.000
REMARK  9 active torsions:
REMARK  status: ('A' for Active; 'I' for Inactive)
REMARK    1  A    between atoms: C_7  and  C_8 
REMARK    2  A    between atoms: C_9  and  O_10 
REMARK    3  A    between atoms: C_12  and  N_13 
REMARK    4  A    between atoms: N_13  and  C_14 
REMARK    5  A    between atoms: C_14  and  N_15 
REMARK       I    between atoms: N_15  and  C_16 
REMARK    6  A    between atoms: C_16  and  C_17 
REMARK    7  A    between atoms: C_19  and  O_20 
REMARK    8  A    between atoms: O_20  and  C_21 
REMARK    9  A    between atoms: C_21  and  C_22 
ROOT
HETATM    1  N   UNL     1     -42.339  59.945 -54.939  1.00  0.00    -0.337 N 
HETATM    2  H   UNL     1     -41.654  60.663 -54.727  1.00  0.00     0.168 HD
ENDROOT
BRANCH   1   3
HETATM    3  C   UNL     1     -41.893  58.631 -54.688  1.00  0.00     0.036 A 
HETATM    4  C   UNL     1     -42.181  57.668 -55.658  1.00  0.00     0.067 A 
HETATM    5  C   UNL     1     -41.830  56.329 -55.464  1.00  0.00     0.082 A 
HETATM    6  C   UNL     1     -41.204  55.907 -54.281  1.00  0.00     0.050 A 
HETATM    7  C   UNL     1     -40.933  56.885 -53.307  1.00  0.00     0.021 A 
HETATM    8  C   UNL     1     -41.272  58.232 -53.506  1.00  0.00     0.030 A 
BRANCH   5   9
HETATM    9  O   UNL     1     -42.157  55.490 -56.498  1.00  0.00    -0.360 OA
HETATM   10  H   UNL     1     -43.010  55.779 -56.874  1.00  0.00     0.217 HD
ENDBRANCH   5   9
BRANCH   6  11
HETATM   11  C   UNL     1     -40.843  54.519 -53.999  1.00  0.00     0.183 A 
HETATM   12  N   UNL     1     -40.725  53.499 -54.833  1.00  0.00    -0.221 NA
HETATM   13  C   UNL     1     -40.353  52.454 -54.026  1.00  0.00     0.093 A 
HETATM   14  C   UNL     1     -40.264  52.881 -52.714  1.00  0.00     0.107 A 
HETATM   15  C   UNL     1     -40.072  51.115 -54.321  1.00  0.00     0.035 A 
HETATM   16  C   UNL     1     -39.916  52.075 -51.636  1.00  0.00     0.046 A 
HETATM   17  O   UNL     1     -40.576  54.208 -52.685  1.00  0.00    -0.289 OA
HETATM   18  C   UNL     1     -39.628  50.733 -51.936  1.00  0.00    -0.059 A 
HETATM   19  C   UNL     1     -39.267  49.776 -50.835  1.00  0.00     0.048 C 
HETATM   20  C   UNL     1     -39.714  50.265 -53.261  1.00  0.00     0.009 A 
ENDBRANCH   6  11
ENDBRANCH   1   3
BRANCH   1  21
HETATM   21  C   UNL     1     -43.385  60.395 -55.661  1.00  0.00     0.157 C 
HETATM   22  S   UNL     1     -44.936  60.134 -55.083  1.00  0.00    -0.047 SA
BRANCH  21  23
HETATM   23  N   UNL     1     -43.262  60.975 -56.883  1.00  0.00    -0.201 NA
HETATM   24  C   UNL     1     -42.061  60.954 -57.584  1.00  0.00     0.237 C 
HETATM   25  O   UNL     1     -41.013  61.477 -57.225  1.00  0.00    -0.274 OA
HETATM   26  H   UNL     1     -44.052  60.658 -57.425  1.00  0.00     0.139 HD
BRANCH  24  27
HETATM   27  C   UNL     1     -42.080  60.254 -58.903  1.00  0.00     0.029 A 
HETATM   28  C   UNL     1     -42.251  58.866 -59.035  1.00  0.00     0.053 A 
HETATM   29  C   UNL     1     -42.174  58.277 -60.300  1.00  0.00     0.069 A 
HETATM   30  C   UNL     1     -41.972  59.079 -61.427  1.00  0.00     0.037 A 
HETATM   31  C   UNL     1     -41.835  60.459 -61.304  1.00  0.00     0.004 A 
HETATM   32  C   UNL     1     -41.887  61.045 -60.044  1.00  0.00     0.017 A 
BRANCH  29  33
HETATM   33  O   UNL     1     -42.281  56.942 -60.574  1.00  0.00    -0.351 OA
BRANCH  33  34
HETATM   34  C   UNL     1     -42.961  56.119 -59.627  1.00  0.00     0.179 C 
BRANCH  34  35
HETATM   35  C   UNL     1     -44.337  55.719 -60.185  1.00  0.00     0.002 C 
HETATM   36  C   UNL     1     -44.679  54.265 -59.856  1.00  0.00     0.011 C 
HETATM   37  C   UNL     1     -45.434  56.645 -59.654  1.00  0.00     0.011 C 
ENDBRANCH  34  35
ENDBRANCH  33  34
ENDBRANCH  29  33
ENDBRANCH  24  27
ENDBRANCH  21  23
ENDBRANCH   1  21
TORSDOF 9
ENDMDL
MODEL 2
REMARK VINA RESULT:      -8.5      2.970      7.975
REMARK  9 active torsions:
REMARK  status: ('A' for Active; 'I' for Inactive)
REMARK    1  A    between atoms: C_7  and  C_8 
REMARK    2  A    between atoms: C_9  and  O_10 
REMARK    3  A    between atoms: C_12  and  N_13 
REMARK    4  A    between atoms: N_13  and  C_14 
REMARK    5  A    between atoms: C_14  and  N_15 
REMARK       I    between atoms: N_15  and  C_16 
REMARK    6  A    between atoms: C_16  and  C_17 
REMARK    7  A    between atoms: C_19  and  O_20 
REMARK    8  A    between atoms: O_20  and  C_21 
REMARK    9  A    between atoms: C_21  and  C_22 
ROOT
HETATM    1  N   UNL     1     -42.124  59.999 -52.807  1.00  0.00    -0.337 N 
HETATM    2  H   UNL     1     -41.922  60.993 -52.843  1.00  0.00     0.168 HD
ENDROOT
BRANCH   1   3
HETATM    3  C   UNL     1     -42.611  59.465 -54.017  1.00  0.00     0.036 A 
HETATM    4  C   UNL     1     -43.985  59.577 -54.252  1.00  0.00     0.067 A 
HETATM    5  C   UNL     1     -44.562  59.022 -55.397  1.00  0.00     0.082 A 
HETATM    6  C   UNL     1     -43.789  58.314 -56.330  1.00  0.00     0.050 A 
HETATM    7  C   UNL     1     -42.411  58.196 -56.073  1.00  0.00     0.021 A 
HETATM    8  C   UNL     1     -41.827  58.765 -54.931  1.00  0.00     0.030 A 
BRANCH   5   9
HETATM    9  O   UNL     1     -45.914  59.216 -55.514  1.00  0.00    -0.360 OA
HETATM   10  H   UNL     1     -46.359  58.351 -55.447  1.00  0.00     0.217 HD
ENDBRANCH   5   9
BRANCH   6  11
HETATM   11  C   UNL     1     -44.334  57.679 -57.529  1.00  0.00     0.183 A 
HETATM   12  N   UNL     1     -43.828  56.700 -58.260  1.00  0.00    -0.221 NA
HETATM   13  C   UNL     1     -44.766  56.503 -59.242  1.00  0.00     0.093 A 
HETATM   14  C   UNL     1     -45.816  57.387 -59.074  1.00  0.00     0.107 A 
HETATM   15  C   UNL     1     -44.807  55.603 -60.313  1.00  0.00     0.035 A 
HETATM   16  C   UNL     1     -46.933  57.463 -59.897  1.00  0.00     0.046 A 
HETATM   17  O   UNL     1     -45.549  58.147 -57.973  1.00  0.00    -0.289 OA
HETATM   18  C   UNL     1     -46.974  56.553 -60.967  1.00  0.00    -0.059 A 
HETATM   19  C   UNL     1     -48.128  56.573 -61.930  1.00  0.00     0.048 C 
HETATM   20  C   UNL     1     -45.919  55.643 -61.170  1.00  0.00     0.009 A 
ENDBRANCH   6  11
ENDBRANCH   1   3
BRANCH   1  21
HETATM   21  C   UNL     1     -42.146  59.500 -51.554  1.00  0.00     0.157 C 
HETATM   22  S   UNL     1     -42.238  60.563 -50.262  1.00  0.00    -0.047 SA
BRANCH  21  23
HETATM   23  N   UNL     1     -42.005  58.179 -51.268  1.00  0.00    -0.201 NA
HETATM   24  C   UNL     1     -43.047  57.276 -51.452  1.00  0.00     0.237 C 
HETATM   25  O   UNL     1     -44.123  57.294 -50.866  1.00  0.00    -0.274 OA
HETATM   26  H   UNL     1     -41.138  57.889 -51.696  1.00  0.00     0.139 HD
BRANCH  24  27
HETATM   27  C   UNL     1     -42.801  56.179 -52.434  1.00  0.00     0.029 A 
HETATM   28  C   UNL     1     -41.636  55.394 -52.435  1.00  0.00     0.053 A 
HETATM   29  C   UNL     1     -41.444  54.441 -53.439  1.00  0.00     0.069 A 
HETATM   30  C   UNL     1     -42.434  54.246 -54.408  1.00  0.00     0.037 A 
HETATM   31  C   UNL     1     -43.605  54.998 -54.391  1.00  0.00     0.004 A 
HETATM   32  C   UNL     1     -43.787  55.965 -53.407  1.00  0.00     0.017 A 
BRANCH  29  33
HETATM   33  O   UNL     1     -40.349  53.638 -53.589  1.00  0.00    -0.351 OA
BRANCH  33  34
HETATM   34  C   UNL     1     -40.529  52.379 -54.238  1.00  0.00     0.179 C 
BRANCH  34  35
HETATM   35  C   UNL     1     -39.488  51.375 -53.713  1.00  0.00     0.002 C 
HETATM   36  C   UNL     1     -39.515  51.278 -52.187  1.00  0.00     0.011 C 
HETATM   37  C   UNL     1     -39.704  49.990 -54.327  1.00  0.00     0.011 C 
ENDBRANCH  34  35
ENDBRANCH  33  34
ENDBRANCH  29  33
ENDBRANCH  24  27
ENDBRANCH  21  23
ENDBRANCH   1  21
TORSDOF 9
ENDMDL
MODEL 3
REMARK VINA RESULT:      -8.4      2.369      3.380
REMARK  9 active torsions:
REMARK  status: ('A' for Active; 'I' for Inactive)
REMARK    1  A    between atoms: C_7  and  C_8 
REMARK    2  A    between atoms: C_9  and  O_10 
REMARK    3  A    between atoms: C_12  and  N_13 
REMARK    4  A    between atoms: N_13  and  C_14 
REMARK    5  A    between atoms: C_14  and  N_15 
REMARK       I    between atoms: N_15  and  C_16 
REMARK    6  A    between atoms: C_16  and  C_17 
REMARK    7  A    between atoms: C_19  and  O_20 
REMARK    8  A    between atoms: O_20  and  C_21 
REMARK    9  A    between atoms: C_21  and  C_22 
ROOT
HETATM    1  N   UNL     1     -45.641  59.615 -53.379  1.00  0.00    -0.337 N 
HETATM    2  H   UNL     1     -46.313  59.727 -52.627  1.00  0.00     0.168 HD
ENDROOT
BRANCH   1   3
HETATM    3  C   UNL     1     -44.864  58.443 -53.287  1.00  0.00     0.036 A 
HETATM    4  C   UNL     1     -44.291  58.158 -52.044  1.00  0.00     0.067 A 
HETATM    5  C   UNL     1     -43.456  57.050 -51.878  1.00  0.00     0.082 A 
HETATM    6  C   UNL     1     -43.147  56.206 -52.956  1.00  0.00     0.050 A 
HETATM    7  C   UNL     1     -43.719  56.513 -54.203  1.00  0.00     0.021 A 
HETATM    8  C   UNL     1     -44.568  57.617 -54.369  1.00  0.00     0.030 A 
BRANCH   5   9
HETATM    9  O   UNL     1     -42.971  56.877 -50.607  1.00  0.00    -0.360 OA
HETATM   10  H   UNL     1     -42.257  56.214 -50.634  1.00  0.00     0.217 HD
ENDBRANCH   5   9
BRANCH   6  11
HETATM   11  C   UNL     1     -42.254  55.052 -52.859  1.00  0.00     0.183 A 
HETATM   12  N   UNL     1     -41.446  54.700 -51.873  1.00  0.00    -0.221 NA
HETATM   13  C   UNL     1     -40.870  53.537 -52.318  1.00  0.00     0.093 A 
HETATM   14  C   UNL     1     -41.350  53.225 -53.577  1.00  0.00     0.107 A 
HETATM   15  C   UNL     1     -39.933  52.684 -51.723  1.00  0.00     0.035 A 
HETATM   16  C   UNL     1     -40.971  52.115 -54.322  1.00  0.00     0.046 A 
HETATM   17  O   UNL     1     -42.242  54.193 -53.934  1.00  0.00    -0.289 OA
HETATM   18  C   UNL     1     -40.035  51.257 -53.718  1.00  0.00    -0.059 A 
HETATM   19  C   UNL     1     -39.543  50.042 -54.454  1.00  0.00     0.048 C 
HETATM   20  C   UNL     1     -39.523  51.547 -52.440  1.00  0.00     0.009 A 
ENDBRANCH   6  11
ENDBRANCH   1   3
BRANCH   1  21
HETATM   21  C   UNL     1     -45.463  60.732 -54.113  1.00  0.00     0.157 C 
HETATM   22  S   UNL     1     -44.749  62.066 -53.393  1.00  0.00    -0.047 SA
BRANCH  21  23
HETATM   23  N   UNL     1     -45.912  60.875 -55.388  1.00  0.00    -0.201 NA
HETATM   24  C   UNL     1     -45.088  60.640 -56.483  1.00  0.00     0.237 C 
HETATM   25  O   UNL     1     -44.074  61.269 -56.765  1.00  0.00    -0.274 OA
HETATM   26  H   UNL     1     -46.793  60.384 -55.431  1.00  0.00     0.139 HD
BRANCH  24  27
HETATM   27  C   UNL     1     -45.511  59.541 -57.401  1.00  0.00     0.029 A 
HETATM   28  C   UNL     1     -44.670  58.994 -58.385  1.00  0.00     0.053 A 
HETATM   29  C   UNL     1     -45.168  58.025 -59.260  1.00  0.00     0.069 A 
HETATM   30  C   UNL     1     -46.485  57.576 -59.120  1.00  0.00     0.037 A 
HETATM   31  C   UNL     1     -47.312  58.092 -58.125  1.00  0.00     0.004 A 
HETATM   32  C   UNL     1     -46.826  59.075 -57.269  1.00  0.00     0.017 A 
BRANCH  29  33
HETATM   33  O   UNL     1     -44.482  57.435 -60.284  1.00  0.00    -0.351 OA
BRANCH  33  34
HETATM   34  C   UNL     1     -43.120  57.076 -60.054  1.00  0.00     0.179 C 
BRANCH  34  35
HETATM   35  C   UNL     1     -43.053  55.650 -59.480  1.00  0.00     0.002 C 
HETATM   36  C   UNL     1     -43.058  55.656 -57.951  1.00  0.00     0.011 C 
HETATM   37  C   UNL     1     -44.210  54.795 -60.001  1.00  0.00     0.011 C 
ENDBRANCH  34  35
ENDBRANCH  33  34
ENDBRANCH  29  33
ENDBRANCH  24  27
ENDBRANCH  21  23
ENDBRANCH   1  21
TORSDOF 9
ENDMDL
MODEL 4
REMARK VINA RESULT:      -8.4      2.248      3.054
REMARK  9 active torsions:
REMARK  status: ('A' for Active; 'I' for Inactive)
REMARK    1  A    between atoms: C_7  and  C_8 
REMARK    2  A    between atoms: C_9  and  O_10 
REMARK    3  A    between atoms: C_12  and  N_13 
REMARK    4  A    between atoms: N_13  and  C_14 
REMARK    5  A    between atoms: C_14  and  N_15 
REMARK       I    between atoms: N_15  and  C_16 
REMARK    6  A    between atoms: C_16  and  C_17 
REMARK    7  A    between atoms: C_19  and  O_20 
REMARK    8  A    between atoms: O_20  and  C_21 
REMARK    9  A    between atoms: C_21  and  C_22 
ROOT
HETATM    1  N   UNL     1     -45.510  59.565 -53.077  1.00  0.00    -0.337 N 
HETATM    2  H   UNL     1     -46.238  59.646 -52.374  1.00  0.00     0.168 HD
ENDROOT
BRANCH   1   3
HETATM    3  C   UNL     1     -44.738  58.390 -52.975  1.00  0.00     0.036 A 
HETATM    4  C   UNL     1     -43.834  58.316 -51.911  1.00  0.00     0.067 A 
HETATM    5  C   UNL     1     -42.986  57.214 -51.769  1.00  0.00     0.082 A 
HETATM    6  C   UNL     1     -42.996  56.165 -52.699  1.00  0.00     0.050 A 
HETATM    7  C   UNL     1     -43.900  56.260 -53.773  1.00  0.00     0.021 A 
HETATM    8  C   UNL     1     -44.763  57.358 -53.910  1.00  0.00     0.030 A 
BRANCH   5   9
HETATM    9  O   UNL     1     -42.159  57.260 -50.675  1.00  0.00    -0.360 OA
HETATM   10  H   UNL     1     -42.453  56.586 -50.035  1.00  0.00     0.217 HD
ENDBRANCH   5   9
BRANCH   6  11
HETATM   11  C   UNL     1     -42.112  55.002 -52.629  1.00  0.00     0.183 A 
HETATM   12  N   UNL     1     -41.320  54.613 -51.645  1.00  0.00    -0.221 NA
HETATM   13  C   UNL     1     -40.745  53.461 -52.120  1.00  0.00     0.093 A 
HETATM   14  C   UNL     1     -41.210  53.194 -53.395  1.00  0.00     0.107 A 
HETATM   15  C   UNL     1     -39.822  52.582 -51.541  1.00  0.00     0.035 A 
HETATM   16  C   UNL     1     -40.828  52.106 -54.171  1.00  0.00     0.046 A 
HETATM   17  O   UNL     1     -42.091  54.179 -53.732  1.00  0.00    -0.289 OA
HETATM   18  C   UNL     1     -39.907  51.222 -53.584  1.00  0.00    -0.059 A 
HETATM   19  C   UNL     1     -39.412  50.029 -54.352  1.00  0.00     0.048 C 
HETATM   20  C   UNL     1     -39.410  51.467 -52.289  1.00  0.00     0.009 A 
ENDBRANCH   6  11
ENDBRANCH   1   3
BRANCH   1  21
HETATM   21  C   UNL     1     -45.280  60.712 -53.748  1.00  0.00     0.157 C 
HETATM   22  S   UNL     1     -45.324  62.162 -52.910  1.00  0.00    -0.047 SA
BRANCH  21  23
HETATM   23  N   UNL     1     -45.102  60.773 -55.094  1.00  0.00    -0.201 NA
HETATM   24  C   UNL     1     -43.836  60.722 -55.667  1.00  0.00     0.237 C 
HETATM   25  O   UNL     1     -42.944  61.547 -55.506  1.00  0.00    -0.274 OA
HETATM   26  H   UNL     1     -45.754  60.114 -55.494  1.00  0.00     0.139 HD
BRANCH  24  27
HETATM   27  C   UNL     1     -43.572  59.570 -56.579  1.00  0.00     0.029 A 
HETATM   28  C   UNL     1     -44.345  59.297 -57.719  1.00  0.00     0.053 A 
HETATM   29  C   UNL     1     -44.085  58.151 -58.474  1.00  0.00     0.069 A 
HETATM   30  C   UNL     1     -43.027  57.309 -58.115  1.00  0.00     0.037 A 
HETATM   31  C   UNL     1     -42.237  57.594 -57.004  1.00  0.00     0.004 A 
HETATM   32  C   UNL     1     -42.510  58.721 -56.236  1.00  0.00     0.017 A 
BRANCH  29  33
HETATM   33  O   UNL     1     -44.776  57.740 -59.579  1.00  0.00    -0.351 OA
BRANCH  33  34
HETATM   34  C   UNL     1     -44.159  56.774 -60.431  1.00  0.00     0.179 C 
BRANCH  34  35
HETATM   35  C   UNL     1     -45.126  55.602 -60.667  1.00  0.00     0.002 C 
HETATM   36  C   UNL     1     -44.743  54.377 -59.835  1.00  0.00     0.011 C 
HETATM   37  C   UNL     1     -46.568  56.011 -60.358  1.00  0.00     0.011 C 
ENDBRANCH  34  35
ENDBRANCH  33  34
ENDBRANCH  29  33
ENDBRANCH  24  27
ENDBRANCH  21  23
ENDBRANCH   1  21
TORSDOF 9
ENDMDL
MODEL 5
REMARK VINA RESULT:      -8.3      4.505      9.355
REMARK  9 active torsions:
REMARK  status: ('A' for Active; 'I' for Inactive)
REMARK    1  A    between atoms: C_7  and  C_8 
REMARK    2  A    between atoms: C_9  and  O_10 
REMARK    3  A    between atoms: C_12  and  N_13 
REMARK    4  A    between atoms: N_13  and  C_14 
REMARK    5  A    between atoms: C_14  and  N_15 
REMARK       I    between atoms: N_15  and  C_16 
REMARK    6  A    between atoms: C_16  and  C_17 
REMARK    7  A    between atoms: C_19  and  O_20 
REMARK    8  A    between atoms: O_20  and  C_21 
REMARK    9  A    between atoms: C_21  and  C_22 
ROOT
HETATM    1  N   UNL     1     -43.749  55.659 -55.158  1.00  0.00    -0.337 N 
HETATM    2  H   UNL     1     -44.421  54.911 -55.298  1.00  0.00     0.168 HD
ENDROOT
BRANCH   1   3
HETATM    3  C   UNL     1     -44.159  56.637 -54.230  1.00  0.00     0.036 A 
HETATM    4  C   UNL     1     -44.807  57.765 -54.743  1.00  0.00     0.067 A 
HETATM    5  C   UNL     1     -45.193  58.811 -53.901  1.00  0.00     0.082 A 
HETATM    6  C   UNL     1     -44.920  58.776 -52.526  1.00  0.00     0.050 A 
HETATM    7  C   UNL     1     -44.255  57.642 -52.026  1.00  0.00     0.021 A 
HETATM    8  C   UNL     1     -43.879  56.583 -52.867  1.00  0.00     0.030 A 
BRANCH   5   9
HETATM    9  O   UNL     1     -45.832  59.851 -54.529  1.00  0.00    -0.360 OA
HETATM   10  H   UNL     1     -45.842  59.675 -55.488  1.00  0.00     0.217 HD
ENDBRANCH   5   9
BRANCH   6  11
HETATM   11  C   UNL     1     -45.265  59.851 -51.597  1.00  0.00     0.183 A 
HETATM   12  N   UNL     1     -46.120  60.848 -51.752  1.00  0.00    -0.221 NA
HETATM   13  C   UNL     1     -46.047  61.534 -50.565  1.00  0.00     0.093 A 
HETATM   14  C   UNL     1     -45.132  60.924 -49.725  1.00  0.00     0.107 A 
HETATM   15  C   UNL     1     -46.715  62.679 -50.117  1.00  0.00     0.035 A 
HETATM   16  C   UNL     1     -44.809  61.362 -48.447  1.00  0.00     0.046 A 
HETATM   17  O   UNL     1     -44.624  59.840 -50.378  1.00  0.00    -0.289 OA
HETATM   18  C   UNL     1     -45.487  62.508 -47.997  1.00  0.00    -0.059 A 
HETATM   19  C   UNL     1     -45.189  63.076 -46.638  1.00  0.00     0.048 C 
HETATM   20  C   UNL     1     -46.421  63.156 -48.829  1.00  0.00     0.009 A 
ENDBRANCH   6  11
ENDBRANCH   1   3
BRANCH   1  21
HETATM   21  C   UNL     1     -42.771  55.683 -56.087  1.00  0.00     0.157 C 
HETATM   22  S   UNL     1     -43.130  56.246 -57.623  1.00  0.00    -0.047 SA
BRANCH  21  23
HETATM   23  N   UNL     1     -41.522  55.190 -55.876  1.00  0.00    -0.201 NA
HETATM   24  C   UNL     1     -40.893  55.296 -54.641  1.00  0.00     0.237 C 
HETATM   25  O   UNL     1     -40.580  56.341 -54.084  1.00  0.00    -0.274 OA
HETATM   26  H   UNL     1     -41.523  54.253 -56.251  1.00  0.00     0.139 HD
BRANCH  24  27
HETATM   27  C   UNL     1     -40.550  54.009 -53.965  1.00  0.00     0.029 A 
HETATM   28  C   UNL     1     -40.539  53.852 -52.569  1.00  0.00     0.053 A 
HETATM   29  C   UNL     1     -40.126  52.639 -52.012  1.00  0.00     0.069 A 
HETATM   30  C   UNL     1     -39.770  51.578 -52.850  1.00  0.00     0.037 A 
HETATM   31  C   UNL     1     -39.811  51.718 -54.234  1.00  0.00     0.004 A 
HETATM   32  C   UNL     1     -40.198  52.933 -54.791  1.00  0.00     0.017 A 
BRANCH  29  33
HETATM   33  O   UNL     1     -40.028  52.357 -50.679  1.00  0.00    -0.351 OA
BRANCH  33  34
HETATM   34  C   UNL     1     -40.982  52.952 -49.799  1.00  0.00     0.179 C 
BRANCH  34  35
HETATM   35  C   UNL     1     -40.356  54.179 -49.114  1.00  0.00     0.002 C 
HETATM   36  C   UNL     1     -41.192  55.440 -49.341  1.00  0.00     0.011 C 
HETATM   37  C   UNL     1     -40.175  53.936 -47.614  1.00  0.00     0.011 C 
ENDBRANCH  34  35
ENDBRANCH  33  34
ENDBRANCH  29  33
ENDBRANCH  24  27
ENDBRANCH  21  23
ENDBRANCH   1  21
TORSDOF 9
ENDMDL
MODEL 6
REMARK VINA RESULT:      -8.2      1.634      2.237
REMARK  9 active torsions:
REMARK  status: ('A' for Active; 'I' for Inactive)
REMARK    1  A    between atoms: C_7  and  C_8 
REMARK    2  A    between atoms: C_9  and  O_10 
REMARK    3  A    between atoms: C_12  and  N_13 
REMARK    4  A    between atoms: N_13  and  C_14 
REMARK    5  A    between atoms: C_14  and  N_15 
REMARK       I    between atoms: N_15  and  C_16 
REMARK    6  A    between atoms: C_16  and  C_17 
REMARK    7  A    between atoms: C_19  and  O_20 
REMARK    8  A    between atoms: O_20  and  C_21 
REMARK    9  A    between atoms: C_21  and  C_22 
ROOT
HETATM    1  N   UNL     1     -44.501  59.641 -54.886  1.00  0.00    -0.337 N 
HETATM    2  H   UNL     1     -45.351  59.733 -54.338  1.00  0.00     0.168 HD
ENDROOT
BRANCH   1   3
HETATM    3  C   UNL     1     -43.745  58.490 -54.588  1.00  0.00     0.036 A 
HETATM    4  C   UNL     1     -44.418  57.265 -54.612  1.00  0.00     0.067 A 
HETATM    5  C   UNL     1     -43.761  56.080 -54.270  1.00  0.00     0.082 A 
HETATM    6  C   UNL     1     -42.417  56.086 -53.868  1.00  0.00     0.050 A 
HETATM    7  C   UNL     1     -41.756  57.327 -53.834  1.00  0.00     0.021 A 
HETATM    8  C   UNL     1     -42.410  58.516 -54.190  1.00  0.00     0.030 A 
BRANCH   5   9
HETATM    9  O   UNL     1     -44.532  54.949 -54.349  1.00  0.00    -0.360 OA
HETATM   10  H   UNL     1     -43.964  54.205 -54.623  1.00  0.00     0.217 HD
ENDBRANCH   5   9
BRANCH   6  11
HETATM   11  C   UNL     1     -41.680  54.889 -53.464  1.00  0.00     0.183 A 
HETATM   12  N   UNL     1     -41.081  54.624 -52.315  1.00  0.00    -0.221 NA
HETATM   13  C   UNL     1     -40.571  53.363 -52.492  1.00  0.00     0.093 A 
HETATM   14  C   UNL     1     -40.877  52.905 -53.761  1.00  0.00     0.107 A 
HETATM   15  C   UNL     1     -39.837  52.535 -51.635  1.00  0.00     0.035 A 
HETATM   16  C   UNL     1     -40.508  51.666 -54.272  1.00  0.00     0.046 A 
HETATM   17  O   UNL     1     -41.592  53.878 -54.394  1.00  0.00    -0.289 OA
HETATM   18  C   UNL     1     -39.777  50.835 -53.406  1.00  0.00    -0.059 A 
HETATM   19  C   UNL     1     -39.308  49.486 -53.874  1.00  0.00     0.048 C 
HETATM   20  C   UNL     1     -39.444  51.272 -52.110  1.00  0.00     0.009 A 
ENDBRANCH   6  11
ENDBRANCH   1   3
BRANCH   1  21
HETATM   21  C   UNL     1     -44.166  60.765 -55.551  1.00  0.00     0.157 C 
HETATM   22  S   UNL     1     -44.270  62.236 -54.755  1.00  0.00    -0.047 SA
BRANCH  21  23
HETATM   23  N   UNL     1     -43.832  60.789 -56.868  1.00  0.00    -0.201 NA
HETATM   24  C   UNL     1     -42.640  60.241 -57.329  1.00  0.00     0.237 C 
HETATM   25  O   UNL     1     -41.514  60.622 -57.031  1.00  0.00    -0.274 OA
HETATM   26  H   UNL     1     -44.646  60.467 -57.370  1.00  0.00     0.139 HD
BRANCH  24  27
HETATM   27  C   UNL     1     -42.765  59.110 -58.295  1.00  0.00     0.029 A 
HETATM   28  C   UNL     1     -43.819  58.182 -58.262  1.00  0.00     0.053 A 
HETATM   29  C   UNL     1     -43.820  57.103 -59.149  1.00  0.00     0.069 A 
HETATM   30  C   UNL     1     -42.795  56.980 -60.093  1.00  0.00     0.037 A 
HETATM   31  C   UNL     1     -41.766  57.916 -60.151  1.00  0.00     0.004 A 
HETATM   32  C   UNL     1     -41.750  58.978 -59.252  1.00  0.00     0.017 A 
BRANCH  29  33
HETATM   33  O   UNL     1     -44.754  56.107 -59.206  1.00  0.00    -0.351 OA
BRANCH  33  34
HETATM   34  C   UNL     1     -45.493  55.954 -60.418  1.00  0.00     0.179 C 
BRANCH  34  35
HETATM   35  C   UNL     1     -46.973  56.290 -60.166  1.00  0.00     0.002 C 
HETATM   36  C   UNL     1     -47.129  57.482 -59.222  1.00  0.00     0.011 C 
HETATM   37  C   UNL     1     -47.702  56.568 -61.483  1.00  0.00     0.011 C 
ENDBRANCH  34  35
ENDBRANCH  33  34
ENDBRANCH  29  33
ENDBRANCH  24  27
ENDBRANCH  21  23
ENDBRANCH   1  21
TORSDOF 9
ENDMDL
MODEL 7
REMARK VINA RESULT:      -8.1      2.411      3.757
REMARK  9 active torsions:
REMARK  status: ('A' for Active; 'I' for Inactive)
REMARK    1  A    between atoms: C_7  and  C_8 
REMARK    2  A    between atoms: C_9  and  O_10 
REMARK    3  A    between atoms: C_12  and  N_13 
REMARK    4  A    between atoms: N_13  and  C_14 
REMARK    5  A    between atoms: C_14  and  N_15 
REMARK       I    between atoms: N_15  and  C_16 
REMARK    6  A    between atoms: C_16  and  C_17 
REMARK    7  A    between atoms: C_19  and  O_20 
REMARK    8  A    between atoms: O_20  and  C_21 
REMARK    9  A    between atoms: C_21  and  C_22 
ROOT
HETATM    1  N   UNL     1     -43.648  60.321 -51.006  1.00  0.00    -0.337 N 
HETATM    2  H   UNL     1     -43.581  60.593 -50.031  1.00  0.00     0.168 HD
ENDROOT
BRANCH   1   3
HETATM    3  C   UNL     1     -43.055  59.076 -51.299  1.00  0.00     0.036 A 
HETATM    4  C   UNL     1     -43.872  57.946 -51.196  1.00  0.00     0.067 A 
HETATM    5  C   UNL     1     -43.351  56.667 -51.409  1.00  0.00     0.082 A 
HETATM    6  C   UNL     1     -41.994  56.474 -51.705  1.00  0.00     0.050 A 
HETATM    7  C   UNL     1     -41.181  57.619 -51.791  1.00  0.00     0.021 A 
HETATM    8  C   UNL     1     -41.704  58.906 -51.592  1.00  0.00     0.030 A 
BRANCH   5   9
HETATM    9  O   UNL     1     -44.261  55.647 -51.291  1.00  0.00    -0.360 OA
HETATM   10  H   UNL     1     -44.989  55.806 -51.920  1.00  0.00     0.217 HD
ENDBRANCH   5   9
BRANCH   6  11
HETATM   11  C   UNL     1     -41.379  55.163 -51.904  1.00  0.00     0.183 A 
HETATM   12  N   UNL     1     -40.667  54.436 -51.059  1.00  0.00    -0.221 NA
HETATM   13  C   UNL     1     -40.364  53.303 -51.771  1.00  0.00     0.093 A 
HETATM   14  C   UNL     1     -40.904  53.388 -53.042  1.00  0.00     0.107 A 
HETATM   15  C   UNL     1     -39.638  52.159 -51.421  1.00  0.00     0.035 A 
HETATM   16  C   UNL     1     -40.782  52.414 -54.026  1.00  0.00     0.046 A 
HETATM   17  O   UNL     1     -41.560  54.580 -53.137  1.00  0.00    -0.289 OA
HETATM   18  C   UNL     1     -40.058  51.263 -53.669  1.00  0.00    -0.059 A 
HETATM   19  C   UNL     1     -39.848  50.164 -54.672  1.00  0.00     0.048 C 
HETATM   20  C   UNL     1     -39.492  51.147 -52.385  1.00  0.00     0.009 A 
ENDBRANCH   6  11
ENDBRANCH   1   3
BRANCH   1  21
HETATM   21  C   UNL     1     -44.029  61.327 -51.821  1.00  0.00     0.157 C 
HETATM   22  S   UNL     1     -44.009  62.895 -51.232  1.00  0.00    -0.047 SA
BRANCH  21  23
HETATM   23  N   UNL     1     -44.519  61.135 -53.074  1.00  0.00    -0.201 NA
HETATM   24  C   UNL     1     -43.680  60.959 -54.168  1.00  0.00     0.237 C 
HETATM   25  O   UNL     1     -42.883  61.785 -54.600  1.00  0.00    -0.274 OA
HETATM   26  H   UNL     1     -45.231  60.424 -52.991  1.00  0.00     0.139 HD
BRANCH  24  27
HETATM   27  C   UNL     1     -43.796  59.654 -54.884  1.00  0.00     0.029 A 
HETATM   28  C   UNL     1     -42.881  59.228 -55.860  1.00  0.00     0.053 A 
HETATM   29  C   UNL     1     -43.106  58.030 -56.544  1.00  0.00     0.069 A 
HETATM   30  C   UNL     1     -44.216  57.245 -56.219  1.00  0.00     0.037 A 
HETATM   31  C   UNL     1     -45.108  57.648 -55.229  1.00  0.00     0.004 A 
HETATM   32  C   UNL     1     -44.899  58.852 -54.564  1.00  0.00     0.017 A 
BRANCH  29  33
HETATM   33  O   UNL     1     -42.327  57.512 -57.540  1.00  0.00    -0.351 OA
BRANCH  33  34
HETATM   34  C   UNL     1     -42.787  56.334 -58.203  1.00  0.00     0.179 C 
BRANCH  34  35
HETATM   35  C   UNL     1     -42.808  56.573 -59.722  1.00  0.00     0.002 C 
HETATM   36  C   UNL     1     -44.214  56.902 -60.224  1.00  0.00     0.011 C 
HETATM   37  C   UNL     1     -41.839  57.691 -60.115  1.00  0.00     0.011 C 
ENDBRANCH  34  35
ENDBRANCH  33  34
ENDBRANCH  29  33
ENDBRANCH  24  27
ENDBRANCH  21  23
ENDBRANCH   1  21
TORSDOF 9
ENDMDL
MODEL 8
REMARK VINA RESULT:      -8.0      3.621      6.124
REMARK  9 active torsions:
REMARK  status: ('A' for Active; 'I' for Inactive)
REMARK    1  A    between atoms: C_7  and  C_8 
REMARK    2  A    between atoms: C_9  and  O_10 
REMARK    3  A    between atoms: C_12  and  N_13 
REMARK    4  A    between atoms: N_13  and  C_14 
REMARK    5  A    between atoms: C_14  and  N_15 
REMARK       I    between atoms: N_15  and  C_16 
REMARK    6  A    between atoms: C_16  and  C_17 
REMARK    7  A    between atoms: C_19  and  O_20 
REMARK    8  A    between atoms: O_20  and  C_21 
REMARK    9  A    between atoms: C_21  and  C_22 
ROOT
HETATM    1  N   UNL     1     -45.612  59.153 -55.153  1.00  0.00    -0.337 N 
HETATM    2  H   UNL     1     -46.542  59.129 -54.746  1.00  0.00     0.168 HD
ENDROOT
BRANCH   1   3
HETATM    3  C   UNL     1     -44.814  58.036 -54.833  1.00  0.00     0.036 A 
HETATM    4  C   UNL     1     -44.801  57.629 -53.496  1.00  0.00     0.067 A 
HETATM    5  C   UNL     1     -43.991  56.570 -53.079  1.00  0.00     0.082 A 
HETATM    6  C   UNL     1     -43.148  55.902 -53.980  1.00  0.00     0.050 A 
HETATM    7  C   UNL     1     -43.160  56.332 -55.319  1.00  0.00     0.021 A 
HETATM    8  C   UNL     1     -43.983  57.386 -55.743  1.00  0.00     0.030 A 
BRANCH   5   9
HETATM    9  O   UNL     1     -44.083  56.262 -51.745  1.00  0.00    -0.360 OA
HETATM   10  H   UNL     1     -45.008  56.024 -51.545  1.00  0.00     0.217 HD
ENDBRANCH   5   9
BRANCH   6  11
HETATM   11  C   UNL     1     -42.250  54.811 -53.603  1.00  0.00     0.183 A 
HETATM   12  N   UNL     1     -41.579  54.631 -52.478  1.00  0.00    -0.221 NA
HETATM   13  C   UNL     1     -40.919  53.444 -52.673  1.00  0.00     0.093 A 
HETATM   14  C   UNL     1     -41.213  52.944 -53.929  1.00  0.00     0.107 A 
HETATM   15  C   UNL     1     -40.054  52.720 -51.844  1.00  0.00     0.035 A 
HETATM   16  C   UNL     1     -40.708  51.759 -54.452  1.00  0.00     0.046 A 
HETATM   17  O   UNL     1     -42.069  53.814 -54.535  1.00  0.00    -0.289 OA
HETATM   18  C   UNL     1     -39.845  51.032 -53.614  1.00  0.00    -0.059 A 
HETATM   19  C   UNL     1     -39.226  49.751 -54.099  1.00  0.00     0.048 C 
HETATM   20  C   UNL     1     -39.522  51.515 -52.332  1.00  0.00     0.009 A 
ENDBRANCH   6  11
ENDBRANCH   1   3
BRANCH   1  21
HETATM   21  C   UNL     1     -45.277  60.358 -55.657  1.00  0.00     0.157 C 
HETATM   22  S   UNL     1     -44.978  60.491 -57.301  1.00  0.00    -0.047 SA
BRANCH  21  23
HETATM   23  N   UNL     1     -45.077  61.465 -54.893  1.00  0.00    -0.201 NA
HETATM   24  C   UNL     1     -45.558  61.550 -53.592  1.00  0.00     0.237 C 
HETATM   25  O   UNL     1     -46.738  61.529 -53.261  1.00  0.00    -0.274 OA
HETATM   26  H   UNL     1     -44.097  61.691 -54.979  1.00  0.00     0.139 HD
BRANCH  24  27
HETATM   27  C   UNL     1     -44.531  61.714 -52.520  1.00  0.00     0.029 A 
HETATM   28  C   UNL     1     -43.801  60.640 -51.983  1.00  0.00     0.053 A 
HETATM   29  C   UNL     1     -42.918  60.865 -50.924  1.00  0.00     0.069 A 
HETATM   30  C   UNL     1     -42.734  62.163 -50.437  1.00  0.00     0.037 A 
HETATM   31  C   UNL     1     -43.431  63.235 -50.989  1.00  0.00     0.004 A 
HETATM   32  C   UNL     1     -44.330  63.010 -52.027  1.00  0.00     0.017 A 
BRANCH  29  33
HETATM   33  O   UNL     1     -42.174  59.916 -50.280  1.00  0.00    -0.351 OA
BRANCH  33  34
HETATM   34  C   UNL     1     -40.764  59.911 -50.501  1.00  0.00     0.179 C 
BRANCH  34  35
HETATM   35  C   UNL     1     -40.345  58.569 -51.127  1.00  0.00     0.002 C 
HETATM   36  C   UNL     1     -41.036  57.387 -50.445  1.00  0.00     0.011 C 
HETATM   37  C   UNL     1     -40.641  58.549 -52.629  1.00  0.00     0.011 C 
ENDBRANCH  34  35
ENDBRANCH  33  34
ENDBRANCH  29  33
ENDBRANCH  24  27
ENDBRANCH  21  23
ENDBRANCH   1  21
TORSDOF 9
ENDMDL
MODEL 9
REMARK VINA RESULT:      -7.8      3.212      8.994
REMARK  9 active torsions:
REMARK  status: ('A' for Active; 'I' for Inactive)
REMARK    1  A    between atoms: C_7  and  C_8 
REMARK    2  A    between atoms: C_9  and  O_10 
REMARK    3  A    between atoms: C_12  and  N_13 
REMARK    4  A    between atoms: N_13  and  C_14 
REMARK    5  A    between atoms: C_14  and  N_15 
REMARK       I    between atoms: N_15  and  C_16 
REMARK    6  A    between atoms: C_16  and  C_17 
REMARK    7  A    between atoms: C_19  and  O_20 
REMARK    8  A    between atoms: O_20  and  C_21 
REMARK    9  A    between atoms: C_21  and  C_22 
ROOT
HETATM    1  N   UNL     1     -39.935  52.007 -53.307  1.00  0.00    -0.337 N 
HETATM    2  H   UNL     1     -39.159  51.607 -53.827  1.00  0.00     0.168 HD
ENDROOT
BRANCH   1   3
HETATM    3  C   UNL     1     -40.542  53.112 -53.937  1.00  0.00     0.036 A 
HETATM    4  C   UNL     1     -41.873  52.962 -54.336  1.00  0.00     0.067 A 
HETATM    5  C   UNL     1     -42.533  53.985 -55.022  1.00  0.00     0.082 A 
HETATM    6  C   UNL     1     -41.877  55.179 -55.353  1.00  0.00     0.050 A 
HETATM    7  C   UNL     1     -40.533  55.310 -54.958  1.00  0.00     0.021 A 
HETATM    8  C   UNL     1     -39.872  54.291 -54.257  1.00  0.00     0.030 A 
BRANCH   5   9
HETATM    9  O   UNL     1     -43.839  53.714 -55.343  1.00  0.00    -0.360 OA
HETATM   10  H   UNL     1     -44.413  54.082 -54.645  1.00  0.00     0.217 HD
ENDBRANCH   5   9
BRANCH   6  11
HETATM   11  C   UNL     1     -42.497  56.273 -56.099  1.00  0.00     0.183 A 
HETATM   12  N   UNL     1     -42.460  57.573 -55.862  1.00  0.00    -0.221 NA
HETATM   13  C   UNL     1     -43.199  58.117 -56.882  1.00  0.00     0.093 A 
HETATM   14  C   UNL     1     -43.670  57.112 -57.708  1.00  0.00     0.107 A 
HETATM   15  C   UNL     1     -43.521  59.445 -57.183  1.00  0.00     0.035 A 
HETATM   16  C   UNL     1     -44.457  57.312 -58.836  1.00  0.00     0.046 A 
HETATM   17  O   UNL     1     -43.223  55.922 -57.215  1.00  0.00    -0.289 OA
HETATM   18  C   UNL     1     -44.773  58.648 -59.140  1.00  0.00    -0.059 A 
HETATM   19  C   UNL     1     -45.641  58.966 -60.324  1.00  0.00     0.048 C 
HETATM   20  C   UNL     1     -44.314  59.694 -58.317  1.00  0.00     0.009 A 
ENDBRANCH   6  11
ENDBRANCH   1   3
BRANCH   1  21
HETATM   21  C   UNL     1     -40.012  51.568 -52.034  1.00  0.00     0.157 C 
HETATM   22  S   UNL     1     -39.347  50.079 -51.651  1.00  0.00    -0.047 SA
BRANCH  21  23
HETATM   23  N   UNL     1     -40.682  52.226 -51.051  1.00  0.00    -0.201 NA
HETATM   24  C   UNL     1     -40.373  53.537 -50.708  1.00  0.00     0.237 C 
HETATM   25  O   UNL     1     -39.306  53.925 -50.247  1.00  0.00    -0.274 OA
HETATM   26  H   UNL     1     -41.664  52.075 -51.231  1.00  0.00     0.139 HD
BRANCH  24  27
HETATM   27  C   UNL     1     -41.463  54.541 -50.897  1.00  0.00     0.029 A 
HETATM   28  C   UNL     1     -41.221  55.906 -51.121  1.00  0.00     0.053 A 
HETATM   29  C   UNL     1     -42.296  56.795 -51.204  1.00  0.00     0.069 A 
HETATM   30  C   UNL     1     -43.605  56.311 -51.109  1.00  0.00     0.037 A 
HETATM   31  C   UNL     1     -43.850  54.953 -50.920  1.00  0.00     0.004 A 
HETATM   32  C   UNL     1     -42.780  54.070 -50.812  1.00  0.00     0.017 A 
BRANCH  29  33
HETATM   33  O   UNL     1     -42.211  58.147 -51.380  1.00  0.00    -0.351 OA
BRANCH  33  34
HETATM   34  C   UNL     1     -41.329  58.877 -50.528  1.00  0.00     0.179 C 
BRANCH  34  35
HETATM   35  C   UNL     1     -40.210  59.515 -51.369  1.00  0.00     0.002 C 
HETATM   36  C   UNL     1     -38.840  59.340 -50.712  1.00  0.00     0.011 C 
HETATM   37  C   UNL     1     -40.188  58.932 -52.784  1.00  0.00     0.011 C 
ENDBRANCH  34  35
ENDBRANCH  33  34
ENDBRANCH  29  33
ENDBRANCH  24  27
ENDBRANCH  21  23
ENDBRANCH   1  21
TORSDOF 9
ENDMDL
MODEL 10
REMARK VINA RESULT:      -7.7      3.144      8.276
REMARK  9 active torsions:
REMARK  status: ('A' for Active; 'I' for Inactive)
REMARK    1  A    between atoms: C_7  and  C_8 
REMARK    2  A    between atoms: C_9  and  O_10 
REMARK    3  A    between atoms: C_12  and  N_13 
REMARK    4  A    between atoms: N_13  and  C_14 
REMARK    5  A    between atoms: C_14  and  N_15 
REMARK       I    between atoms: N_15  and  C_16 
REMARK    6  A    between atoms: C_16  and  C_17 
REMARK    7  A    between atoms: C_19  and  O_20 
REMARK    8  A    between atoms: O_20  and  C_21 
REMARK    9  A    between atoms: C_21  and  C_22 
ROOT
HETATM    1  N   UNL     1     -40.413  52.980 -52.682  1.00  0.00    -0.337 N 
HETATM    2  H   UNL     1     -39.505  52.597 -52.928  1.00  0.00     0.168 HD
ENDROOT
BRANCH   1   3
HETATM    3  C   UNL     1     -40.958  53.840 -53.658  1.00  0.00     0.036 A 
HETATM    4  C   UNL     1     -42.085  53.382 -54.347  1.00  0.00     0.067 A 
HETATM    5  C   UNL     1     -42.653  54.143 -55.372  1.00  0.00     0.082 A 
HETATM    6  C   UNL     1     -42.098  55.372 -55.758  1.00  0.00     0.050 A 
HETATM    7  C   UNL     1     -40.956  55.812 -55.066  1.00  0.00     0.021 A 
HETATM    8  C   UNL     1     -40.391  55.058 -54.027  1.00  0.00     0.030 A 
BRANCH   5   9
HETATM    9  O   UNL     1     -43.763  53.586 -55.956  1.00  0.00    -0.360 OA
HETATM   10  H   UNL     1     -44.557  53.945 -55.519  1.00  0.00     0.217 HD
ENDBRANCH   5   9
BRANCH   6  11
HETATM   11  C   UNL     1     -42.622  56.199 -56.844  1.00  0.00     0.183 A 
HETATM   12  N   UNL     1     -43.409  55.858 -57.850  1.00  0.00    -0.221 NA
HETATM   13  C   UNL     1     -43.586  57.029 -58.543  1.00  0.00     0.093 A 
HETATM   14  C   UNL     1     -42.885  58.050 -57.927  1.00  0.00     0.107 A 
HETATM   15  C   UNL     1     -44.320  57.317 -59.700  1.00  0.00     0.035 A 
HETATM   16  C   UNL     1     -42.842  59.367 -58.370  1.00  0.00     0.046 A 
HETATM   17  O   UNL     1     -42.262  57.528 -56.832  1.00  0.00    -0.289 OA
HETATM   18  C   UNL     1     -43.586  59.654 -59.528  1.00  0.00    -0.059 A 
HETATM   19  C   UNL     1     -43.583  61.043 -60.101  1.00  0.00     0.048 C 
HETATM   20  C   UNL     1     -44.307  58.636 -60.182  1.00  0.00     0.009 A 
ENDBRANCH   6  11
ENDBRANCH   1   3
BRANCH   1  21
HETATM   21  C   UNL     1     -40.740  52.801 -51.386  1.00  0.00     0.157 C 
HETATM   22  S   UNL     1     -40.248  51.397 -50.616  1.00  0.00    -0.047 SA
BRANCH  21  23
HETATM   23  N   UNL     1     -41.528  53.657 -50.684  1.00  0.00    -0.201 NA
HETATM   24  C   UNL     1     -41.009  54.789 -50.066  1.00  0.00     0.237 C 
HETATM   25  O   UNL     1     -40.185  54.795 -49.158  1.00  0.00    -0.274 OA
HETATM   26  H   UNL     1     -42.328  53.847 -51.270  1.00  0.00     0.139 HD
BRANCH  24  27
HETATM   27  C   UNL     1     -41.537  56.101 -50.543  1.00  0.00     0.029 A 
HETATM   28  C   UNL     1     -42.711  56.228 -51.303  1.00  0.00     0.053 A 
HETATM   29  C   UNL     1     -43.094  57.483 -51.783  1.00  0.00     0.069 A 
HETATM   30  C   UNL     1     -42.328  58.609 -51.464  1.00  0.00     0.037 A 
HETATM   31  C   UNL     1     -41.181  58.493 -50.683  1.00  0.00     0.004 A 
HETATM   32  C   UNL     1     -40.785  57.240 -50.226  1.00  0.00     0.017 A 
BRANCH  29  33
HETATM   33  O   UNL     1     -44.184  57.750 -52.562  1.00  0.00    -0.351 OA
BRANCH  33  34
HETATM   34  C   UNL     1     -44.267  59.037 -53.174  1.00  0.00     0.179 C 
BRANCH  34  35
HETATM   35  C   UNL     1     -45.233  58.977 -54.370  1.00  0.00     0.002 C 
HETATM   36  C   UNL     1     -44.879  60.017 -55.435  1.00  0.00     0.011 C 
HETATM   37  C   UNL     1     -45.248  57.579 -54.992  1.00  0.00     0.011 C 
ENDBRANCH  34  35
ENDBRANCH  33  34
ENDBRANCH  29  33
ENDBRANCH  24  27
ENDBRANCH  21  23
ENDBRANCH   1  21
TORSDOF 9
ENDMDL
