MODEL 1
REMARK VINA RESULT:      -8.6      0.000      0.000
REMARK  8 active torsions:
REMARK  status: ('A' for Active; 'I' for Inactive)
REMARK    1  A    between atoms: C_4  and  S_5 
REMARK    2  A    between atoms: S_5  and  C_6 
REMARK    3  A    between atoms: C_6  and  C_7 
REMARK       I    between atoms: C_7  and  N_8 
REMARK    4  A    between atoms: N_8  and  C_9 
REMARK    5  A    between atoms: C_20  and  C_21 
REMARK    6  A    between atoms: C_27  and  C_28 
REMARK       I    between atoms: C_28  and  N_29 
REMARK    7  A    between atoms: N_29  and  C_30 
REMARK    8  A    between atoms: C_31  and  O_32 
ROOT
HETATM    1  C   UNL     1     -42.867  54.710 -56.420  1.00  0.00     0.069 C 
HETATM    2  C   UNL     1     -43.223  55.901 -55.566  1.00  0.00     0.019 C 
HETATM    3  N   UNL     1     -43.859  56.945 -56.219  1.00  0.00    -0.353 N 
HETATM    4  C   UNL     1     -44.412  58.047 -55.593  1.00  0.00     0.087 C 
HETATM    5  C   UNL     1     -44.175  58.245 -54.275  1.00  0.00     0.055 C 
HETATM    6  C   UNL     1     -44.523  59.553 -53.584  1.00  0.00     0.019 C 
HETATM    7  N   UNL     1     -44.811  60.639 -53.012  1.00  0.00    -0.096 N 
HETATM    8  C   UNL     1     -43.396  57.219 -53.443  1.00  0.00     0.104 C 
HETATM    9  C   UNL     1     -42.996  55.986 -54.237  1.00  0.00     0.046 C 
HETATM   10  H   UNL     1     -44.210  56.761 -57.156  1.00  0.00     0.166 HD
ENDROOT
BRANCH   4  11
HETATM   11  S   UNL     1     -45.515  59.068 -56.487  1.00  0.00    -0.102 SA
BRANCH  11  12
HETATM   12  C   UNL     1     -45.177  58.604 -58.214  1.00  0.00     0.184 C 
BRANCH  12  13
HETATM   13  C   UNL     1     -43.779  59.039 -58.668  1.00  0.00     0.231 C 
HETATM   14  N   UNL     1     -43.603  60.407 -58.769  1.00  0.00    -0.326 N 
HETATM   15  H   UNL     1     -44.437  60.960 -58.595  1.00  0.00     0.169 HD
HETATM   16  O   UNL     1     -42.913  58.191 -58.871  1.00  0.00    -0.272 OA
BRANCH  14  17
HETATM   17  C   UNL     1     -42.458  61.124 -59.163  1.00  0.00     0.036 A 
HETATM   18  C   UNL     1     -42.160  61.465 -60.483  1.00  0.00     0.053 A 
HETATM   19  C   UNL     1     -40.999  62.187 -60.773  1.00  0.00     0.036 A 
HETATM   20 CL   UNL     1     -40.633  62.600 -62.404  1.00  0.00    -0.084 Cl
HETATM   21  C   UNL     1     -40.128  62.579 -59.757  1.00  0.00     0.024 A 
HETATM   22  C   UNL     1     -40.419  62.242 -58.438  1.00  0.00     0.004 A 
HETATM   23  C   UNL     1     -41.575  61.516 -58.145  1.00  0.00     0.029 A 
ENDBRANCH  14  17
ENDBRANCH  12  13
ENDBRANCH  11  12
ENDBRANCH   4  11
BRANCH   8  24
HETATM   24  C   UNL     1     -42.214  57.877 -52.731  1.00  0.00    -0.044 A 
HETATM   25  C   UNL     1     -41.119  58.331 -53.484  1.00  0.00     0.008 A 
HETATM   26  C   UNL     1     -40.003  58.881 -52.854  1.00  0.00     0.001 A 
HETATM   27  C   UNL     1     -39.969  58.987 -51.467  1.00  0.00     0.000 A 
HETATM   28  C   UNL     1     -41.053  58.551 -50.707  1.00  0.00     0.001 A 
HETATM   29  C   UNL     1     -42.172  57.999 -51.332  1.00  0.00     0.008 A 
ENDBRANCH   8  24
BRANCH   9  30
HETATM   30  C   UNL     1     -42.637  54.758 -53.470  1.00  0.00     0.255 C 
HETATM   31  N   UNL     1     -41.302  54.430 -53.548  1.00  0.00    -0.321 N 
HETATM   32  H   UNL     1     -40.764  54.851 -54.294  1.00  0.00     0.169 HD
HETATM   33  O   UNL     1     -43.531  54.116 -52.928  1.00  0.00    -0.268 OA
BRANCH  31  34
HETATM   34  C   UNL     1     -40.675  53.384 -52.831  1.00  0.00     0.068 A 
HETATM   35  C   UNL     1     -40.466  53.389 -51.437  1.00  0.00     0.095 A 
HETATM   36  C   UNL     1     -39.912  52.258 -50.823  1.00  0.00     0.039 A 
HETATM   37  C   UNL     1     -39.521  51.156 -51.586  1.00  0.00     0.003 A 
HETATM   38  C   UNL     1     -39.652  51.185 -52.971  1.00  0.00     0.002 A 
HETATM   39  C   UNL     1     -40.216  52.298 -53.592  1.00  0.00     0.032 A 
BRANCH  35  40
HETATM   40  O   UNL     1     -40.692  54.568 -50.771  1.00  0.00    -0.354 OA
HETATM   41  C   UNL     1     -41.713  54.583 -49.784  1.00  0.00     0.210 C 
ENDBRANCH  35  40
ENDBRANCH  31  34
ENDBRANCH   9  30
TORSDOF 8
ENDMDL
MODEL 2
REMARK VINA RESULT:      -8.6      2.363      3.530
REMARK  8 active torsions:
REMARK  status: ('A' for Active; 'I' for Inactive)
REMARK    1  A    between atoms: C_4  and  S_5 
REMARK    2  A    between atoms: S_5  and  C_6 
REMARK    3  A    between atoms: C_6  and  C_7 
REMARK       I    between atoms: C_7  and  N_8 
REMARK    4  A    between atoms: N_8  and  C_9 
REMARK    5  A    between atoms: C_20  and  C_21 
REMARK    6  A    between atoms: C_27  and  C_28 
REMARK       I    between atoms: C_28  and  N_29 
REMARK    7  A    between atoms: N_29  and  C_30 
REMARK    8  A    between atoms: C_31  and  O_32 
ROOT
HETATM    1  C   UNL     1     -42.859  55.500 -56.608  1.00  0.00     0.069 C 
HETATM    2  C   UNL     1     -43.170  56.573 -55.595  1.00  0.00     0.019 C 
HETATM    3  N   UNL     1     -43.786  57.712 -56.088  1.00  0.00    -0.353 N 
HETATM    4  C   UNL     1     -44.298  58.733 -55.309  1.00  0.00     0.087 C 
HETATM    5  C   UNL     1     -44.038  58.743 -53.981  1.00  0.00     0.055 C 
HETATM    6  C   UNL     1     -44.339  59.954 -53.113  1.00  0.00     0.019 C 
HETATM    7  N   UNL     1     -44.589  60.959 -52.395  1.00  0.00    -0.096 N 
HETATM    8  C   UNL     1     -43.277  57.594 -53.309  1.00  0.00     0.104 C 
HETATM    9  C   UNL     1     -42.922  56.470 -54.270  1.00  0.00     0.046 C 
HETATM   10  H   UNL     1     -44.155  57.666 -57.035  1.00  0.00     0.166 HD
ENDROOT
BRANCH   4  11
HETATM   11  S   UNL     1     -45.385  59.894 -56.037  1.00  0.00    -0.102 SA
BRANCH  11  12
HETATM   12  C   UNL     1     -44.435  60.483 -57.474  1.00  0.00     0.184 C 
BRANCH  12  13
HETATM   13  C   UNL     1     -44.830  59.758 -58.766  1.00  0.00     0.231 C 
HETATM   14  N   UNL     1     -46.052  59.112 -58.716  1.00  0.00    -0.326 N 
HETATM   15  H   UNL     1     -46.514  59.139 -57.811  1.00  0.00     0.169 HD
HETATM   16  O   UNL     1     -44.094  59.817 -59.748  1.00  0.00    -0.272 OA
BRANCH  14  17
HETATM   17  C   UNL     1     -46.694  58.357 -59.715  1.00  0.00     0.036 A 
HETATM   18  C   UNL     1     -47.474  58.904 -60.734  1.00  0.00     0.053 A 
HETATM   19  C   UNL     1     -48.065  58.069 -61.686  1.00  0.00     0.036 A 
HETATM   20 CL   UNL     1     -49.032  58.748 -62.939  1.00  0.00    -0.084 Cl
HETATM   21  C   UNL     1     -47.883  56.687 -61.637  1.00  0.00     0.024 A 
HETATM   22  C   UNL     1     -47.107  56.134 -60.622  1.00  0.00     0.004 A 
HETATM   23  C   UNL     1     -46.519  56.965 -59.666  1.00  0.00     0.029 A 
ENDBRANCH  14  17
ENDBRANCH  12  13
ENDBRANCH  11  12
ENDBRANCH   4  11
BRANCH   8  24
HETATM   24  C   UNL     1     -42.067  58.118 -52.535  1.00  0.00    -0.044 A 
HETATM   25  C   UNL     1     -40.943  58.581 -53.240  1.00  0.00     0.008 A 
HETATM   26  C   UNL     1     -39.804  59.009 -52.558  1.00  0.00     0.001 A 
HETATM   27  C   UNL     1     -39.775  58.983 -51.167  1.00  0.00     0.000 A 
HETATM   28  C   UNL     1     -40.887  58.536 -50.454  1.00  0.00     0.001 A 
HETATM   29  C   UNL     1     -42.029  58.105 -51.131  1.00  0.00     0.008 A 
ENDBRANCH   8  24
BRANCH   9  30
HETATM   30  C   UNL     1     -42.588  55.140 -53.684  1.00  0.00     0.255 C 
HETATM   31  N   UNL     1     -41.240  54.854 -53.698  1.00  0.00    -0.321 N 
HETATM   32  H   UNL     1     -40.658  55.401 -54.318  1.00  0.00     0.169 HD
HETATM   33  O   UNL     1     -43.501  54.402 -53.331  1.00  0.00    -0.268 OA
BRANCH  31  34
HETATM   34  C   UNL     1     -40.640  53.717 -53.108  1.00  0.00     0.068 A 
HETATM   35  C   UNL     1     -40.417  53.564 -51.725  1.00  0.00     0.095 A 
HETATM   36  C   UNL     1     -39.894  52.356 -51.245  1.00  0.00     0.039 A 
HETATM   37  C   UNL     1     -39.547  51.332 -52.129  1.00  0.00     0.003 A 
HETATM   38  C   UNL     1     -39.692  51.516 -53.500  1.00  0.00     0.002 A 
HETATM   39  C   UNL     1     -40.226  52.707 -53.988  1.00  0.00     0.032 A 
BRANCH  35  40
HETATM   40  O   UNL     1     -40.597  54.670 -50.932  1.00  0.00    -0.354 OA
HETATM   41  C   UNL     1     -41.608  54.611 -49.937  1.00  0.00     0.210 C 
ENDBRANCH  35  40
ENDBRANCH  31  34
ENDBRANCH   9  30
TORSDOF 8
ENDMDL
MODEL 3
REMARK VINA RESULT:      -8.4      3.379      8.606
REMARK  8 active torsions:
REMARK  status: ('A' for Active; 'I' for Inactive)
REMARK    1  A    between atoms: C_4  and  S_5 
REMARK    2  A    between atoms: S_5  and  C_6 
REMARK    3  A    between atoms: C_6  and  C_7 
REMARK       I    between atoms: C_7  and  N_8 
REMARK    4  A    between atoms: N_8  and  C_9 
REMARK    5  A    between atoms: C_20  and  C_21 
REMARK    6  A    between atoms: C_27  and  C_28 
REMARK       I    between atoms: C_28  and  N_29 
REMARK    7  A    between atoms: N_29  and  C_30 
REMARK    8  A    between atoms: C_31  and  O_32 
ROOT
HETATM    1  C   UNL     1     -43.424  54.740 -53.898  1.00  0.00     0.069 C 
HETATM    2  C   UNL     1     -43.155  56.091 -53.285  1.00  0.00     0.019 C 
HETATM    3  N   UNL     1     -42.465  56.084 -52.083  1.00  0.00    -0.353 N 
HETATM    4  C   UNL     1     -41.979  57.211 -51.445  1.00  0.00     0.087 C 
HETATM    5  C   UNL     1     -42.339  58.434 -51.901  1.00  0.00     0.055 C 
HETATM    6  C   UNL     1     -42.064  59.699 -51.105  1.00  0.00     0.019 C 
HETATM    7  N   UNL     1     -41.835  60.748 -50.445  1.00  0.00    -0.096 N 
HETATM    8  C   UNL     1     -43.187  58.593 -53.168  1.00  0.00     0.104 C 
HETATM    9  C   UNL     1     -43.506  57.270 -53.845  1.00  0.00     0.046 C 
HETATM   10  H   UNL     1     -42.027  55.209 -51.805  1.00  0.00     0.166 HD
ENDROOT
BRANCH   4  11
HETATM   11  S   UNL     1     -40.802  57.021 -50.165  1.00  0.00    -0.102 SA
BRANCH  11  12
HETATM   12  C   UNL     1     -41.301  55.451 -49.393  1.00  0.00     0.184 C 
BRANCH  12  13
HETATM   13  C   UNL     1     -40.403  54.284 -49.821  1.00  0.00     0.231 C 
HETATM   14  N   UNL     1     -41.035  53.314 -50.577  1.00  0.00    -0.326 N 
HETATM   15  H   UNL     1     -42.033  53.455 -50.706  1.00  0.00     0.169 HD
HETATM   16  O   UNL     1     -39.212  54.289 -49.517  1.00  0.00    -0.272 OA
BRANCH  14  17
HETATM   17  C   UNL     1     -40.504  52.126 -51.113  1.00  0.00     0.036 A 
HETATM   18  C   UNL     1     -40.187  51.945 -52.459  1.00  0.00     0.053 A 
HETATM   19  C   UNL     1     -39.656  50.727 -52.893  1.00  0.00     0.036 A 
HETATM   20 CL   UNL     1     -39.271  50.505 -54.557  1.00  0.00    -0.084 Cl
HETATM   21  C   UNL     1     -39.434  49.683 -51.996  1.00  0.00     0.024 A 
HETATM   22  C   UNL     1     -39.749  49.857 -50.651  1.00  0.00     0.004 A 
HETATM   23  C   UNL     1     -40.284  51.071 -50.214  1.00  0.00     0.029 A 
ENDBRANCH  14  17
ENDBRANCH  12  13
ENDBRANCH  11  12
ENDBRANCH   4  11
BRANCH   8  24
HETATM   24  C   UNL     1     -44.434  59.433 -52.889  1.00  0.00    -0.044 A 
HETATM   25  C   UNL     1     -44.692  60.569 -53.674  1.00  0.00     0.008 A 
HETATM   26  C   UNL     1     -45.789  61.386 -53.402  1.00  0.00     0.001 A 
HETATM   27  C   UNL     1     -46.643  61.076 -52.347  1.00  0.00     0.000 A 
HETATM   28  C   UNL     1     -46.405  59.946 -51.566  1.00  0.00     0.001 A 
HETATM   29  C   UNL     1     -45.308  59.126 -51.833  1.00  0.00     0.008 A 
ENDBRANCH   8  24
BRANCH   9  30
HETATM   30  C   UNL     1     -43.928  57.310 -55.274  1.00  0.00     0.255 C 
HETATM   31  N   UNL     1     -42.877  57.245 -56.162  1.00  0.00    -0.321 N 
HETATM   32  H   UNL     1     -41.954  57.448 -55.803  1.00  0.00     0.169 HD
HETATM   33  O   UNL     1     -45.114  57.479 -55.537  1.00  0.00    -0.268 OA
BRANCH  31  34
HETATM   34  C   UNL     1     -43.000  57.152 -57.569  1.00  0.00     0.068 A 
HETATM   35  C   UNL     1     -42.936  58.253 -58.446  1.00  0.00     0.095 A 
HETATM   36  C   UNL     1     -42.984  58.030 -59.829  1.00  0.00     0.039 A 
HETATM   37  C   UNL     1     -43.146  56.738 -60.335  1.00  0.00     0.003 A 
HETATM   38  C   UNL     1     -43.291  55.662 -59.465  1.00  0.00     0.002 A 
HETATM   39  C   UNL     1     -43.230  55.869 -58.088  1.00  0.00     0.032 A 
BRANCH  35  40
HETATM   40  O   UNL     1     -42.970  59.506 -57.888  1.00  0.00    -0.354 OA
HETATM   41  C   UNL     1     -41.764  60.254 -57.873  1.00  0.00     0.210 C 
ENDBRANCH  35  40
ENDBRANCH  31  34
ENDBRANCH   9  30
TORSDOF 8
ENDMDL
MODEL 4
REMARK VINA RESULT:      -8.3      4.546      8.535
REMARK  8 active torsions:
REMARK  status: ('A' for Active; 'I' for Inactive)
REMARK    1  A    between atoms: C_4  and  S_5 
REMARK    2  A    between atoms: S_5  and  C_6 
REMARK    3  A    between atoms: C_6  and  C_7 
REMARK       I    between atoms: C_7  and  N_8 
REMARK    4  A    between atoms: N_8  and  C_9 
REMARK    5  A    between atoms: C_20  and  C_21 
REMARK    6  A    between atoms: C_27  and  C_28 
REMARK       I    between atoms: C_28  and  N_29 
REMARK    7  A    between atoms: N_29  and  C_30 
REMARK    8  A    between atoms: C_31  and  O_32 
ROOT
HETATM    1  C   UNL     1     -42.165  60.061 -55.685  1.00  0.00     0.069 C 
HETATM    2  C   UNL     1     -42.133  58.989 -54.625  1.00  0.00     0.019 C 
HETATM    3  N   UNL     1     -41.578  59.356 -53.410  1.00  0.00    -0.353 N 
HETATM    4  C   UNL     1     -41.602  58.581 -52.265  1.00  0.00     0.087 C 
HETATM    5  C   UNL     1     -42.025  57.298 -52.346  1.00  0.00     0.055 C 
HETATM    6  C   UNL     1     -41.834  56.316 -51.201  1.00  0.00     0.019 C 
HETATM    7  N   UNL     1     -41.675  55.503 -50.251  1.00  0.00    -0.096 N 
HETATM    8  C   UNL     1     -42.574  56.722 -53.656  1.00  0.00     0.104 C 
HETATM    9  C   UNL     1     -42.634  57.743 -54.780  1.00  0.00     0.046 C 
HETATM   10  H   UNL     1     -41.417  60.349 -53.254  1.00  0.00     0.166 HD
ENDROOT
BRANCH   4  11
HETATM   11  S   UNL     1     -41.225  59.325 -50.727  1.00  0.00    -0.102 SA
BRANCH  11  12
HETATM   12  C   UNL     1     -42.158  60.886 -50.798  1.00  0.00     0.184 C 
BRANCH  12  13
HETATM   13  C   UNL     1     -43.535  60.768 -50.134  1.00  0.00     0.231 C 
HETATM   14  N   UNL     1     -43.780  61.700 -49.142  1.00  0.00    -0.326 N 
HETATM   15  H   UNL     1     -42.997  62.311 -48.926  1.00  0.00     0.169 HD
HETATM   16  O   UNL     1     -44.330  59.916 -50.525  1.00  0.00    -0.272 OA
BRANCH  14  17
HETATM   17  C   UNL     1     -44.926  61.857 -48.341  1.00  0.00     0.036 A 
HETATM   18  C   UNL     1     -46.018  62.658 -48.679  1.00  0.00     0.053 A 
HETATM   19  C   UNL     1     -47.115  62.743 -47.818  1.00  0.00     0.036 A 
HETATM   20 CL   UNL     1     -48.457  63.738 -48.237  1.00  0.00    -0.084 Cl
HETATM   21  C   UNL     1     -47.139  62.033 -46.619  1.00  0.00     0.024 A 
HETATM   22  C   UNL     1     -46.054  61.232 -46.274  1.00  0.00     0.004 A 
HETATM   23  C   UNL     1     -44.953  61.149 -47.130  1.00  0.00     0.029 A 
ENDBRANCH  14  17
ENDBRANCH  12  13
ENDBRANCH  11  12
ENDBRANCH   4  11
BRANCH   8  24
HETATM   24  C   UNL     1     -41.824  55.449 -54.050  1.00  0.00    -0.044 A 
HETATM   25  C   UNL     1     -42.386  54.196 -53.754  1.00  0.00     0.008 A 
HETATM   26  C   UNL     1     -41.696  53.020 -54.048  1.00  0.00     0.001 A 
HETATM   27  C   UNL     1     -40.440  53.081 -54.644  1.00  0.00     0.000 A 
HETATM   28  C   UNL     1     -39.874  54.317 -54.953  1.00  0.00     0.001 A 
HETATM   29  C   UNL     1     -40.560  55.497 -54.659  1.00  0.00     0.008 A 
ENDBRANCH   8  24
BRANCH   9  30
HETATM   30  C   UNL     1     -43.528  57.447 -55.935  1.00  0.00     0.255 C 
HETATM   31  N   UNL     1     -42.854  57.035 -57.064  1.00  0.00    -0.321 N 
HETATM   32  H   UNL     1     -41.862  57.226 -57.105  1.00  0.00     0.169 HD
HETATM   33  O   UNL     1     -44.730  57.666 -55.825  1.00  0.00    -0.268 OA
BRANCH  31  34
HETATM   34  C   UNL     1     -43.461  56.586 -58.260  1.00  0.00     0.068 A 
HETATM   35  C   UNL     1     -43.879  57.433 -59.306  1.00  0.00     0.095 A 
HETATM   36  C   UNL     1     -44.390  56.868 -60.482  1.00  0.00     0.039 A 
HETATM   37  C   UNL     1     -44.532  55.484 -60.601  1.00  0.00     0.003 A 
HETATM   38  C   UNL     1     -44.195  54.654 -59.537  1.00  0.00     0.002 A 
HETATM   39  C   UNL     1     -43.672  55.203 -58.367  1.00  0.00     0.032 A 
BRANCH  35  40
HETATM   40  O   UNL     1     -43.893  58.782 -59.056  1.00  0.00    -0.354 OA
HETATM   41  C   UNL     1     -45.157  59.425 -58.979  1.00  0.00     0.210 C 
ENDBRANCH  35  40
ENDBRANCH  31  34
ENDBRANCH   9  30
TORSDOF 8
ENDMDL
MODEL 5
REMARK VINA RESULT:      -8.2      3.510      8.393
REMARK  8 active torsions:
REMARK  status: ('A' for Active; 'I' for Inactive)
REMARK    1  A    between atoms: C_4  and  S_5 
REMARK    2  A    between atoms: S_5  and  C_6 
REMARK    3  A    between atoms: C_6  and  C_7 
REMARK       I    between atoms: C_7  and  N_8 
REMARK    4  A    between atoms: N_8  and  C_9 
REMARK    5  A    between atoms: C_20  and  C_21 
REMARK    6  A    between atoms: C_27  and  C_28 
REMARK       I    between atoms: C_28  and  N_29 
REMARK    7  A    between atoms: N_29  and  C_30 
REMARK    8  A    between atoms: C_31  and  O_32 
ROOT
HETATM    1  C   UNL     1     -43.395  55.499 -54.831  1.00  0.00     0.069 C 
HETATM    2  C   UNL     1     -43.129  56.724 -53.993  1.00  0.00     0.019 C 
HETATM    3  N   UNL     1     -42.587  56.494 -52.739  1.00  0.00    -0.353 N 
HETATM    4  C   UNL     1     -42.120  57.479 -51.888  1.00  0.00     0.087 C 
HETATM    5  C   UNL     1     -42.359  58.777 -52.188  1.00  0.00     0.055 C 
HETATM    6  C   UNL     1     -42.113  59.892 -51.184  1.00  0.00     0.019 C 
HETATM    7  N   UNL     1     -41.909  60.815 -50.350  1.00  0.00    -0.096 N 
HETATM    8  C   UNL     1     -43.043  59.179 -53.500  1.00  0.00     0.104 C 
HETATM    9  C   UNL     1     -43.348  57.994 -54.402  1.00  0.00     0.046 C 
HETATM   10  H   UNL     1     -42.231  55.560 -52.552  1.00  0.00     0.166 HD
ENDROOT
BRANCH   4  11
HETATM   11  S   UNL     1     -41.114  57.024 -50.532  1.00  0.00    -0.102 SA
BRANCH  11  12
HETATM   12  C   UNL     1     -41.974  55.564 -49.869  1.00  0.00     0.184 C 
BRANCH  12  13
HETATM   13  C   UNL     1     -41.997  54.402 -50.868  1.00  0.00     0.231 C 
HETATM   14  N   UNL     1     -40.751  53.987 -51.302  1.00  0.00    -0.326 N 
HETATM   15  H   UNL     1     -39.972  54.541 -50.960  1.00  0.00     0.169 HD
HETATM   16  O   UNL     1     -43.070  53.894 -51.189  1.00  0.00    -0.272 OA
BRANCH  14  17
HETATM   17  C   UNL     1     -40.428  52.966 -52.215  1.00  0.00     0.036 A 
HETATM   18  C   UNL     1     -40.033  51.679 -51.847  1.00  0.00     0.053 A 
HETATM   19  C   UNL     1     -39.740  50.731 -52.831  1.00  0.00     0.036 A 
HETATM   20 CL   UNL     1     -39.247  49.146 -52.372  1.00  0.00    -0.084 Cl
HETATM   21  C   UNL     1     -39.840  51.050 -54.184  1.00  0.00     0.024 A 
HETATM   22  C   UNL     1     -40.233  52.332 -54.559  1.00  0.00     0.004 A 
HETATM   23  C   UNL     1     -40.522  53.284 -53.579  1.00  0.00     0.029 A 
ENDBRANCH  14  17
ENDBRANCH  12  13
ENDBRANCH  11  12
ENDBRANCH   4  11
BRANCH   8  24
HETATM   24  C   UNL     1     -44.267  60.054 -53.233  1.00  0.00    -0.044 A 
HETATM   25  C   UNL     1     -44.293  61.373 -53.715  1.00  0.00     0.008 A 
HETATM   26  C   UNL     1     -45.371  62.212 -53.434  1.00  0.00     0.001 A 
HETATM   27  C   UNL     1     -46.438  61.741 -52.674  1.00  0.00     0.000 A 
HETATM   28  C   UNL     1     -46.432  60.431 -52.198  1.00  0.00     0.001 A 
HETATM   29  C   UNL     1     -45.354  59.588 -52.475  1.00  0.00     0.008 A 
ENDBRANCH   8  24
BRANCH   9  30
HETATM   30  C   UNL     1     -43.597  58.271 -55.846  1.00  0.00     0.255 C 
HETATM   31  N   UNL     1     -42.445  58.422 -56.585  1.00  0.00    -0.321 N 
HETATM   32  H   UNL     1     -41.590  58.604 -56.077  1.00  0.00     0.169 HD
HETATM   33  O   UNL     1     -44.752  58.423 -56.229  1.00  0.00    -0.268 OA
BRANCH  31  34
HETATM   34  C   UNL     1     -42.390  58.580 -57.990  1.00  0.00     0.068 A 
HETATM   35  C   UNL     1     -42.686  57.560 -58.916  1.00  0.00     0.095 A 
HETATM   36  C   UNL     1     -42.683  57.856 -60.286  1.00  0.00     0.039 A 
HETATM   37  C   UNL     1     -42.340  59.134 -60.734  1.00  0.00     0.003 A 
HETATM   38  C   UNL     1     -41.968  60.116 -59.823  1.00  0.00     0.002 A 
HETATM   39  C   UNL     1     -41.982  59.838 -58.457  1.00  0.00     0.032 A 
BRANCH  35  40
HETATM   40  O   UNL     1     -42.827  56.286 -58.426  1.00  0.00    -0.354 OA
HETATM   41  C   UNL     1     -43.696  55.404 -59.123  1.00  0.00     0.210 C 
ENDBRANCH  35  40
ENDBRANCH  31  34
ENDBRANCH   9  30
TORSDOF 8
ENDMDL
MODEL 6
REMARK VINA RESULT:      -8.1      3.727      9.325
REMARK  8 active torsions:
REMARK  status: ('A' for Active; 'I' for Inactive)
REMARK    1  A    between atoms: C_4  and  S_5 
REMARK    2  A    between atoms: S_5  and  C_6 
REMARK    3  A    between atoms: C_6  and  C_7 
REMARK       I    between atoms: C_7  and  N_8 
REMARK    4  A    between atoms: N_8  and  C_9 
REMARK    5  A    between atoms: C_20  and  C_21 
REMARK    6  A    between atoms: C_27  and  C_28 
REMARK       I    between atoms: C_28  and  N_29 
REMARK    7  A    between atoms: N_29  and  C_30 
REMARK    8  A    between atoms: C_31  and  O_32 
ROOT
HETATM    1  C   UNL     1     -46.410  60.827 -56.308  1.00  0.00     0.069 C 
HETATM    2  C   UNL     1     -45.384  59.737 -56.123  1.00  0.00     0.019 C 
HETATM    3  N   UNL     1     -44.520  59.895 -55.050  1.00  0.00    -0.353 N 
HETATM    4  C   UNL     1     -43.624  58.938 -54.612  1.00  0.00     0.087 C 
HETATM    5  C   UNL     1     -43.418  57.832 -55.365  1.00  0.00     0.055 C 
HETATM    6  C   UNL     1     -42.271  56.874 -55.088  1.00  0.00     0.019 C 
HETATM    7  N   UNL     1     -41.319  56.080 -54.858  1.00  0.00    -0.096 N 
HETATM    8  C   UNL     1     -44.234  57.572 -56.637  1.00  0.00     0.104 C 
HETATM    9  C   UNL     1     -45.290  58.634 -56.897  1.00  0.00     0.046 C 
HETATM   10  H   UNL     1     -44.756  60.610 -54.366  1.00  0.00     0.166 HD
ENDROOT
BRANCH   4  11
HETATM   11  S   UNL     1     -42.895  59.116 -53.032  1.00  0.00    -0.102 SA
BRANCH  11  12
HETATM   12  C   UNL     1     -44.167  58.428 -51.926  1.00  0.00     0.184 C 
BRANCH  12  13
HETATM   13  C   UNL     1     -43.719  57.113 -51.277  1.00  0.00     0.231 C 
HETATM   14  N   UNL     1     -42.369  56.838 -51.398  1.00  0.00    -0.326 N 
HETATM   15  H   UNL     1     -41.845  57.505 -51.956  1.00  0.00     0.169 HD
HETATM   16  O   UNL     1     -44.537  56.420 -50.676  1.00  0.00    -0.272 OA
BRANCH  14  17
HETATM   17  C   UNL     1     -41.649  55.724 -50.929  1.00  0.00     0.036 A 
HETATM   18  C   UNL     1     -41.202  54.680 -51.740  1.00  0.00     0.053 A 
HETATM   19  C   UNL     1     -40.486  53.619 -51.180  1.00  0.00     0.036 A 
HETATM   20 CL   UNL     1     -39.942  52.329 -52.184  1.00  0.00    -0.084 Cl
HETATM   21  C   UNL     1     -40.205  53.586 -49.815  1.00  0.00     0.024 A 
HETATM   22  C   UNL     1     -40.648  54.624 -49.000  1.00  0.00     0.004 A 
HETATM   23  C   UNL     1     -41.369  55.684 -49.555  1.00  0.00     0.029 A 
ENDBRANCH  14  17
ENDBRANCH  12  13
ENDBRANCH  11  12
ENDBRANCH   4  11
BRANCH   8  24
HETATM   24  C   UNL     1     -43.315  57.341 -57.838  1.00  0.00    -0.044 A 
HETATM   25  C   UNL     1     -42.593  58.421 -58.373  1.00  0.00     0.008 A 
HETATM   26  C   UNL     1     -41.795  58.250 -59.504  1.00  0.00     0.001 A 
HETATM   27  C   UNL     1     -41.705  57.000 -60.110  1.00  0.00     0.000 A 
HETATM   28  C   UNL     1     -42.407  55.917 -59.583  1.00  0.00     0.001 A 
HETATM   29  C   UNL     1     -43.209  56.083 -58.453  1.00  0.00     0.008 A 
ENDBRANCH   8  24
BRANCH   9  30
HETATM   30  C   UNL     1     -46.408  58.284 -57.820  1.00  0.00     0.255 C 
HETATM   31  N   UNL     1     -46.130  58.537 -59.145  1.00  0.00    -0.321 N 
HETATM   32  H   UNL     1     -45.359  59.160 -59.345  1.00  0.00     0.169 HD
HETATM   33  O   UNL     1     -47.470  57.898 -57.343  1.00  0.00    -0.268 OA
BRANCH  31  34
HETATM   34  C   UNL     1     -46.966  58.198 -60.235  1.00  0.00     0.068 A 
HETATM   35  C   UNL     1     -47.120  56.892 -60.742  1.00  0.00     0.095 A 
HETATM   36  C   UNL     1     -48.043  56.660 -61.770  1.00  0.00     0.039 A 
HETATM   37  C   UNL     1     -48.767  57.718 -62.325  1.00  0.00     0.003 A 
HETATM   38  C   UNL     1     -48.554  59.018 -61.879  1.00  0.00     0.002 A 
HETATM   39  C   UNL     1     -47.650  59.259 -60.846  1.00  0.00     0.032 A 
BRANCH  35  40
HETATM   40  O   UNL     1     -46.246  55.934 -60.290  1.00  0.00    -0.354 OA
HETATM   41  C   UNL     1     -45.420  55.290 -61.249  1.00  0.00     0.210 C 
ENDBRANCH  35  40
ENDBRANCH  31  34
ENDBRANCH   9  30
TORSDOF 8
ENDMDL
MODEL 7
REMARK VINA RESULT:      -8.1      5.388      8.112
REMARK  8 active torsions:
REMARK  status: ('A' for Active; 'I' for Inactive)
REMARK    1  A    between atoms: C_4  and  S_5 
REMARK    2  A    between atoms: S_5  and  C_6 
REMARK    3  A    between atoms: C_6  and  C_7 
REMARK       I    between atoms: C_7  and  N_8 
REMARK    4  A    between atoms: N_8  and  C_9 
REMARK    5  A    between atoms: C_20  and  C_21 
REMARK    6  A    between atoms: C_27  and  C_28 
REMARK       I    between atoms: C_28  and  N_29 
REMARK    7  A    between atoms: N_29  and  C_30 
REMARK    8  A    between atoms: C_31  and  O_32 
ROOT
HETATM    1  C   UNL     1     -44.188  55.463 -50.456  1.00  0.00     0.069 C 
HETATM    2  C   UNL     1     -43.786  56.604 -51.356  1.00  0.00     0.019 C 
HETATM    3  N   UNL     1     -43.948  57.876 -50.830  1.00  0.00    -0.353 N 
HETATM    4  C   UNL     1     -43.491  59.039 -51.422  1.00  0.00     0.087 C 
HETATM    5  C   UNL     1     -43.011  58.991 -52.686  1.00  0.00     0.055 C 
HETATM    6  C   UNL     1     -42.739  60.252 -53.490  1.00  0.00     0.019 C 
HETATM    7  N   UNL     1     -42.514  61.298 -54.157  1.00  0.00    -0.096 N 
HETATM    8  C   UNL     1     -42.866  57.659 -53.433  1.00  0.00     0.104 C 
HETATM    9  C   UNL     1     -43.258  56.456 -52.591  1.00  0.00     0.046 C 
HETATM   10  H   UNL     1     -44.134  57.945 -49.832  1.00  0.00     0.166 HD
ENDROOT
BRANCH   4  11
HETATM   11  S   UNL     1     -43.415  60.504 -50.470  1.00  0.00    -0.102 SA
BRANCH  11  12
HETATM   12  C   UNL     1     -45.152  60.761 -49.991  1.00  0.00     0.184 C 
BRANCH  12  13
HETATM   13  C   UNL     1     -45.321  61.955 -49.044  1.00  0.00     0.231 C 
HETATM   14  N   UNL     1     -45.742  61.627 -47.769  1.00  0.00    -0.326 N 
HETATM   15  H   UNL     1     -45.953  60.643 -47.627  1.00  0.00     0.169 HD
HETATM   16  O   UNL     1     -45.048  63.087 -49.436  1.00  0.00    -0.272 OA
BRANCH  14  17
HETATM   17  C   UNL     1     -46.001  62.476 -46.677  1.00  0.00     0.036 A 
HETATM   18  C   UNL     1     -45.043  62.861 -45.738  1.00  0.00     0.053 A 
HETATM   19  C   UNL     1     -45.397  63.717 -44.691  1.00  0.00     0.036 A 
HETATM   20 CL   UNL     1     -44.213  64.185 -43.531  1.00  0.00    -0.084 Cl
HETATM   21  C   UNL     1     -46.700  64.199 -44.571  1.00  0.00     0.024 A 
HETATM   22  C   UNL     1     -47.660  63.819 -45.504  1.00  0.00     0.004 A 
HETATM   23  C   UNL     1     -47.312  62.960 -46.548  1.00  0.00     0.029 A 
ENDBRANCH  14  17
ENDBRANCH  12  13
ENDBRANCH  11  12
ENDBRANCH   4  11
BRANCH   8  24
HETATM   24  C   UNL     1     -43.592  57.706 -54.778  1.00  0.00    -0.044 A 
HETATM   25  C   UNL     1     -42.877  57.446 -55.959  1.00  0.00     0.008 A 
HETATM   26  C   UNL     1     -43.502  57.540 -57.202  1.00  0.00     0.001 A 
HETATM   27  C   UNL     1     -44.846  57.890 -57.281  1.00  0.00     0.000 A 
HETATM   28  C   UNL     1     -45.571  58.140 -56.117  1.00  0.00     0.001 A 
HETATM   29  C   UNL     1     -44.951  58.049 -54.870  1.00  0.00     0.008 A 
ENDBRANCH   8  24
BRANCH   9  30
HETATM   30  C   UNL     1     -42.761  55.119 -53.025  1.00  0.00     0.255 C 
HETATM   31  N   UNL     1     -41.444  54.886 -52.696  1.00  0.00    -0.321 N 
HETATM   32  H   UNL     1     -40.878  55.689 -52.458  1.00  0.00     0.169 HD
HETATM   33  O   UNL     1     -43.501  54.399 -53.687  1.00  0.00    -0.268 OA
BRANCH  31  34
HETATM   34  C   UNL     1     -40.758  53.664 -52.888  1.00  0.00     0.068 A 
HETATM   35  C   UNL     1     -40.039  52.989 -51.881  1.00  0.00     0.095 A 
HETATM   36  C   UNL     1     -39.471  51.740 -52.165  1.00  0.00     0.039 A 
HETATM   37  C   UNL     1     -39.570  51.190 -53.445  1.00  0.00     0.003 A 
HETATM   38  C   UNL     1     -40.209  51.894 -54.459  1.00  0.00     0.002 A 
HETATM   39  C   UNL     1     -40.791  53.131 -54.185  1.00  0.00     0.032 A 
BRANCH  35  40
HETATM   40  O   UNL     1     -39.815  53.664 -50.707  1.00  0.00    -0.354 OA
HETATM   41  C   UNL     1     -40.495  53.212 -49.546  1.00  0.00     0.210 C 
ENDBRANCH  35  40
ENDBRANCH  31  34
ENDBRANCH   9  30
TORSDOF 8
ENDMDL
MODEL 8
REMARK VINA RESULT:      -8.1      4.639      7.485
REMARK  8 active torsions:
REMARK  status: ('A' for Active; 'I' for Inactive)
REMARK    1  A    between atoms: C_4  and  S_5 
REMARK    2  A    between atoms: S_5  and  C_6 
REMARK    3  A    between atoms: C_6  and  C_7 
REMARK       I    between atoms: C_7  and  N_8 
REMARK    4  A    between atoms: N_8  and  C_9 
REMARK    5  A    between atoms: C_20  and  C_21 
REMARK    6  A    between atoms: C_27  and  C_28 
REMARK       I    between atoms: C_28  and  N_29 
REMARK    7  A    between atoms: N_29  and  C_30 
REMARK    8  A    between atoms: C_31  and  O_32 
ROOT
HETATM    1  C   UNL     1     -44.299  56.809 -51.455  1.00  0.00     0.069 C 
HETATM    2  C   UNL     1     -43.772  57.573 -52.644  1.00  0.00     0.019 C 
HETATM    3  N   UNL     1     -43.864  58.953 -52.566  1.00  0.00    -0.353 N 
HETATM    4  C   UNL     1     -43.296  59.834 -53.468  1.00  0.00     0.087 C 
HETATM    5  C   UNL     1     -42.762  59.352 -54.614  1.00  0.00     0.055 C 
HETATM    6  C   UNL     1     -42.360  60.267 -55.760  1.00  0.00     0.019 C 
HETATM    7  N   UNL     1     -42.028  61.026 -56.710  1.00  0.00    -0.096 N 
HETATM    8  C   UNL     1     -42.682  57.844 -54.883  1.00  0.00     0.104 C 
HETATM    9  C   UNL     1     -43.200  57.003 -53.728  1.00  0.00     0.046 C 
HETATM   10  H   UNL     1     -44.091  59.353 -51.658  1.00  0.00     0.166 HD
ENDROOT
BRANCH   4  11
HETATM   11  S   UNL     1     -43.155  61.522 -53.033  1.00  0.00    -0.102 SA
BRANCH  11  12
HETATM   12  C   UNL     1     -42.858  61.449 -51.238  1.00  0.00     0.184 C 
BRANCH  12  13
HETATM   13  C   UNL     1     -44.161  61.503 -50.433  1.00  0.00     0.231 C 
HETATM   14  N   UNL     1     -43.994  61.697 -49.074  1.00  0.00    -0.326 N 
HETATM   15  H   UNL     1     -43.028  61.715 -48.760  1.00  0.00     0.169 HD
HETATM   16  O   UNL     1     -45.241  61.416 -51.014  1.00  0.00    -0.272 OA
BRANCH  14  17
HETATM   17  C   UNL     1     -44.973  61.782 -48.066  1.00  0.00     0.036 A 
HETATM   18  C   UNL     1     -45.583  60.679 -47.468  1.00  0.00     0.053 A 
HETATM   19  C   UNL     1     -46.541  60.868 -46.469  1.00  0.00     0.036 A 
HETATM   20 CL   UNL     1     -47.296  59.504 -45.737  1.00  0.00    -0.084 Cl
HETATM   21  C   UNL     1     -46.898  62.150 -46.053  1.00  0.00     0.024 A 
HETATM   22  C   UNL     1     -46.293  63.256 -46.646  1.00  0.00     0.004 A 
HETATM   23  C   UNL     1     -45.340  63.071 -47.649  1.00  0.00     0.029 A 
ENDBRANCH  14  17
ENDBRANCH  12  13
ENDBRANCH  11  12
ENDBRANCH   4  11
BRANCH   8  24
HETATM   24  C   UNL     1     -43.339  57.492 -56.217  1.00  0.00    -0.044 A 
HETATM   25  C   UNL     1     -42.639  56.705 -57.147  1.00  0.00     0.008 A 
HETATM   26  C   UNL     1     -43.192  56.419 -58.395  1.00  0.00     0.001 A 
HETATM   27  C   UNL     1     -44.450  56.911 -58.727  1.00  0.00     0.000 A 
HETATM   28  C   UNL     1     -45.162  57.684 -57.811  1.00  0.00     0.001 A 
HETATM   29  C   UNL     1     -44.613  57.975 -56.561  1.00  0.00     0.008 A 
ENDBRANCH   8  24
BRANCH   9  30
HETATM   30  C   UNL     1     -42.785  55.572 -53.675  1.00  0.00     0.255 C 
HETATM   31  N   UNL     1     -41.459  55.394 -53.344  1.00  0.00    -0.321 N 
HETATM   32  H   UNL     1     -40.848  56.194 -53.436  1.00  0.00     0.169 HD
HETATM   33  O   UNL     1     -43.592  54.709 -54.001  1.00  0.00    -0.268 OA
BRANCH  31  34
HETATM   34  C   UNL     1     -40.835  54.146 -53.116  1.00  0.00     0.068 A 
HETATM   35  C   UNL     1     -40.538  53.626 -51.839  1.00  0.00     0.095 A 
HETATM   36  C   UNL     1     -39.997  52.338 -51.733  1.00  0.00     0.039 A 
HETATM   37  C   UNL     1     -39.704  51.595 -52.878  1.00  0.00     0.003 A 
HETATM   38  C   UNL     1     -39.921  52.141 -54.139  1.00  0.00     0.002 A 
HETATM   39  C   UNL     1     -40.474  53.415 -54.258  1.00  0.00     0.032 A 
BRANCH  35  40
HETATM   40  O   UNL     1     -40.669  54.475 -50.769  1.00  0.00    -0.354 OA
HETATM   41  C   UNL     1     -39.730  54.351 -49.711  1.00  0.00     0.210 C 
ENDBRANCH  35  40
ENDBRANCH  31  34
ENDBRANCH   9  30
TORSDOF 8
ENDMDL
MODEL 9
REMARK VINA RESULT:      -8.1      3.702      7.209
REMARK  8 active torsions:
REMARK  status: ('A' for Active; 'I' for Inactive)
REMARK    1  A    between atoms: C_4  and  S_5 
REMARK    2  A    between atoms: S_5  and  C_6 
REMARK    3  A    between atoms: C_6  and  C_7 
REMARK       I    between atoms: C_7  and  N_8 
REMARK    4  A    between atoms: N_8  and  C_9 
REMARK    5  A    between atoms: C_20  and  C_21 
REMARK    6  A    between atoms: C_27  and  C_28 
REMARK       I    between atoms: C_28  and  N_29 
REMARK    7  A    between atoms: N_29  and  C_30 
REMARK    8  A    between atoms: C_31  and  O_32 
ROOT
HETATM    1  C   UNL     1     -42.081  59.958 -55.925  1.00  0.00     0.069 C 
HETATM    2  C   UNL     1     -42.000  58.959 -54.799  1.00  0.00     0.019 C 
HETATM    3  N   UNL     1     -41.360  59.393 -53.650  1.00  0.00    -0.353 N 
HETATM    4  C   UNL     1     -41.323  58.696 -52.455  1.00  0.00     0.087 C 
HETATM    5  C   UNL     1     -41.774  57.421 -52.422  1.00  0.00     0.055 C 
HETATM    6  C   UNL     1     -41.527  56.513 -51.228  1.00  0.00     0.019 C 
HETATM    7  N   UNL     1     -41.322  55.761 -50.238  1.00  0.00    -0.096 N 
HETATM    8  C   UNL     1     -42.420  56.772 -53.652  1.00  0.00     0.104 C 
HETATM    9  C   UNL     1     -42.534  57.717 -54.836  1.00  0.00     0.046 C 
HETATM   10  H   UNL     1     -41.169  60.389 -53.573  1.00  0.00     0.166 HD
ENDROOT
BRANCH   4  11
HETATM   11  S   UNL     1     -40.831  59.531 -51.000  1.00  0.00    -0.102 SA
BRANCH  11  12
HETATM   12  C   UNL     1     -42.423  59.987 -50.243  1.00  0.00     0.184 C 
BRANCH  12  13
HETATM   13  C   UNL     1     -43.235  60.938 -51.131  1.00  0.00     0.231 C 
HETATM   14  N   UNL     1     -44.386  60.389 -51.665  1.00  0.00    -0.326 N 
HETATM   15  H   UNL     1     -44.525  59.404 -51.461  1.00  0.00     0.169 HD
HETATM   16  O   UNL     1     -42.859  62.098 -51.283  1.00  0.00    -0.272 OA
BRANCH  14  17
HETATM   17  C   UNL     1     -45.335  60.983 -52.517  1.00  0.00     0.036 A 
HETATM   18  C   UNL     1     -46.572  61.472 -52.096  1.00  0.00     0.053 A 
HETATM   19  C   UNL     1     -47.445  62.053 -53.020  1.00  0.00     0.036 A 
HETATM   20 CL   UNL     1     -48.974  62.649 -52.496  1.00  0.00    -0.084 Cl
HETATM   21  C   UNL     1     -47.095  62.158 -54.366  1.00  0.00     0.024 A 
HETATM   22  C   UNL     1     -45.863  61.672 -54.793  1.00  0.00     0.004 A 
HETATM   23  C   UNL     1     -44.990  61.085 -53.874  1.00  0.00     0.029 A 
ENDBRANCH  14  17
ENDBRANCH  12  13
ENDBRANCH  11  12
ENDBRANCH   4  11
BRANCH   8  24
HETATM   24  C   UNL     1     -41.722  55.458 -54.006  1.00  0.00    -0.044 A 
HETATM   25  C   UNL     1     -40.499  55.489 -54.697  1.00  0.00     0.008 A 
HETATM   26  C   UNL     1     -39.872  54.305 -55.084  1.00  0.00     0.001 A 
HETATM   27  C   UNL     1     -40.455  53.078 -54.782  1.00  0.00     0.000 A 
HETATM   28  C   UNL     1     -41.663  53.031 -54.088  1.00  0.00     0.001 A 
HETATM   29  C   UNL     1     -42.296  54.213 -53.699  1.00  0.00     0.008 A 
ENDBRANCH   8  24
BRANCH   9  30
HETATM   30  C   UNL     1     -43.508  57.366 -55.909  1.00  0.00     0.255 C 
HETATM   31  N   UNL     1     -42.916  57.066 -57.116  1.00  0.00    -0.321 N 
HETATM   32  H   UNL     1     -41.958  57.363 -57.248  1.00  0.00     0.169 HD
HETATM   33  O   UNL     1     -44.708  57.453 -55.671  1.00  0.00    -0.268 OA
BRANCH  31  34
HETATM   34  C   UNL     1     -43.594  56.595 -58.264  1.00  0.00     0.068 A 
HETATM   35  C   UNL     1     -44.260  57.423 -59.190  1.00  0.00     0.095 A 
HETATM   36  C   UNL     1     -44.824  56.852 -60.338  1.00  0.00     0.039 A 
HETATM   37  C   UNL     1     -44.774  55.471 -60.542  1.00  0.00     0.003 A 
HETATM   38  C   UNL     1     -44.188  54.646 -59.588  1.00  0.00     0.002 A 
HETATM   39  C   UNL     1     -43.610  55.204 -58.448  1.00  0.00     0.032 A 
BRANCH  35  40
HETATM   40  O   UNL     1     -44.442  58.738 -58.841  1.00  0.00    -0.354 OA
HETATM   41  C   UNL     1     -45.774  59.189 -58.641  1.00  0.00     0.210 C 
ENDBRANCH  35  40
ENDBRANCH  31  34
ENDBRANCH   9  30
TORSDOF 8
ENDMDL
MODEL 10
REMARK VINA RESULT:      -7.8      3.576      9.074
REMARK  8 active torsions:
REMARK  status: ('A' for Active; 'I' for Inactive)
REMARK    1  A    between atoms: C_4  and  S_5 
REMARK    2  A    between atoms: S_5  and  C_6 
REMARK    3  A    between atoms: C_6  and  C_7 
REMARK       I    between atoms: C_7  and  N_8 
REMARK    4  A    between atoms: N_8  and  C_9 
REMARK    5  A    between atoms: C_20  and  C_21 
REMARK    6  A    between atoms: C_27  and  C_28 
REMARK       I    between atoms: C_28  and  N_29 
REMARK    7  A    between atoms: N_29  and  C_30 
REMARK    8  A    between atoms: C_31  and  O_32 
ROOT
HETATM    1  C   UNL     1     -42.716  57.501 -56.582  1.00  0.00     0.069 C 
HETATM    2  C   UNL     1     -42.613  58.339 -55.333  1.00  0.00     0.019 C 
HETATM    3  N   UNL     1     -42.271  57.661 -54.174  1.00  0.00    -0.353 N 
HETATM    4  C   UNL     1     -41.967  58.264 -52.967  1.00  0.00     0.087 C 
HETATM    5  C   UNL     1     -42.183  59.592 -52.820  1.00  0.00     0.055 C 
HETATM    6  C   UNL     1     -42.123  60.269 -51.461  1.00  0.00     0.019 C 
HETATM    7  N   UNL     1     -42.074  60.829 -50.333  1.00  0.00    -0.096 N 
HETATM    8  C   UNL     1     -42.659  60.456 -53.994  1.00  0.00     0.104 C 
HETATM    9  C   UNL     1     -42.793  59.679 -55.293  1.00  0.00     0.046 C 
HETATM   10  H   UNL     1     -41.930  56.708 -54.278  1.00  0.00     0.166 HD
ENDROOT
BRANCH   4  11
HETATM   11  S   UNL     1     -41.178  57.322 -51.723  1.00  0.00    -0.102 SA
BRANCH  11  12
HETATM   12  C   UNL     1     -42.529  56.277 -51.095  1.00  0.00     0.184 C 
BRANCH  12  13
HETATM   13  C   UNL     1     -42.341  54.801 -51.466  1.00  0.00     0.231 C 
HETATM   14  N   UNL     1     -41.078  54.478 -51.927  1.00  0.00    -0.326 N 
HETATM   15  H   UNL     1     -40.444  55.265 -52.027  1.00  0.00     0.169 HD
HETATM   16  O   UNL     1     -43.267  54.010 -51.306  1.00  0.00    -0.272 OA
BRANCH  14  17
HETATM   17  C   UNL     1     -40.586  53.230 -52.355  1.00  0.00     0.036 A 
HETATM   18  C   UNL     1     -40.138  52.226 -51.495  1.00  0.00     0.053 A 
HETATM   19  C   UNL     1     -39.674  51.016 -52.018  1.00  0.00     0.036 A 
HETATM   20 CL   UNL     1     -39.116  49.782 -50.954  1.00  0.00    -0.084 Cl
HETATM   21  C   UNL     1     -39.654  50.792 -53.394  1.00  0.00     0.024 A 
HETATM   22  C   UNL     1     -40.099  51.790 -54.257  1.00  0.00     0.004 A 
HETATM   23  C   UNL     1     -40.559  53.002 -53.739  1.00  0.00     0.029 A 
ENDBRANCH  14  17
ENDBRANCH  12  13
ENDBRANCH  11  12
ENDBRANCH   4  11
BRANCH   8  24
HETATM   24  C   UNL     1     -43.929  61.224 -53.627  1.00  0.00    -0.044 A 
HETATM   25  C   UNL     1     -45.120  60.517 -53.391  1.00  0.00     0.008 A 
HETATM   26  C   UNL     1     -46.306  61.196 -53.113  1.00  0.00     0.001 A 
HETATM   27  C   UNL     1     -46.316  62.587 -53.064  1.00  0.00     0.000 A 
HETATM   28  C   UNL     1     -45.140  63.302 -53.286  1.00  0.00     0.001 A 
HETATM   29  C   UNL     1     -43.950  62.627 -53.565  1.00  0.00     0.008 A 
ENDBRANCH   8  24
BRANCH   9  30
HETATM   30  C   UNL     1     -42.816  60.458 -56.564  1.00  0.00     0.255 C 
HETATM   31  N   UNL     1     -41.600  60.494 -57.211  1.00  0.00    -0.321 N 
HETATM   32  H   UNL     1     -40.781  60.250 -56.671  1.00  0.00     0.169 HD
HETATM   33  O   UNL     1     -43.843  61.051 -56.877  1.00  0.00    -0.268 OA
BRANCH  31  34
HETATM   34  C   UNL     1     -41.369  61.065 -58.485  1.00  0.00     0.068 A 
HETATM   35  C   UNL     1     -41.911  60.569 -59.688  1.00  0.00     0.095 A 
HETATM   36  C   UNL     1     -41.683  61.269 -60.881  1.00  0.00     0.039 A 
HETATM   37  C   UNL     1     -40.887  62.417 -60.890  1.00  0.00     0.003 A 
HETATM   38  C   UNL     1     -40.287  62.858 -59.715  1.00  0.00     0.002 A 
HETATM   39  C   UNL     1     -40.518  62.179 -58.519  1.00  0.00     0.032 A 
BRANCH  35  40
HETATM   40  O   UNL     1     -42.520  59.340 -59.645  1.00  0.00    -0.354 OA
HETATM   41  C   UNL     1     -41.751  58.210 -60.029  1.00  0.00     0.210 C 
ENDBRANCH  35  40
ENDBRANCH  31  34
ENDBRANCH   9  30
TORSDOF 8
ENDMDL
