MODEL 1
REMARK VINA RESULT:      -9.0      0.000      0.000
REMARK  6 active torsions:
REMARK  status: ('A' for Active; 'I' for Inactive)
REMARK    1  A    between atoms: C_4  and  N_5 
REMARK       I    between atoms: N_5  and  C_6 
REMARK       I    between atoms: C_6  and  N_16 
REMARK    2  A    between atoms: N_16  and  CA_17 
REMARK    3  A    between atoms: CA_17  and  C_18 
REMARK    4  A    between atoms: CA_17  and  CB_20 
REMARK    5  A    between atoms: C_18  and  O_19 
REMARK    6  A    between atoms: CB_20  and  CG_21 
ROOT
HETATM    1  N   UNK A   0     -44.159  56.036 -51.290  1.00  0.00    -0.307 N 
HETATM    2  C   UNK A   0     -43.637  55.076 -52.092  1.00  0.00     0.321 C 
HETATM    3  O   UNK A   0     -43.612  53.909 -51.708  1.00  0.00    -0.247 OA
HETATM    4  H   UNK A   0     -44.549  55.647 -50.432  1.00  0.00     0.170 HD
ATOM      5  N   TRP A   1     -43.158  55.449 -53.304  1.00  0.00    -0.336 N 
ATOM      6  H   TRP A   1     -43.739  56.115 -53.789  1.00  0.00     0.164 HD
ENDROOT
BRANCH   5   7
ATOM      7  CA  TRP A   1     -42.443  54.506 -54.175  1.00  0.00     0.114 C 
BRANCH   7   8
ATOM      8  C   TRP A   1     -42.762  54.800 -55.651  1.00  0.00     0.189 C 
BRANCH   8   9
ATOM      9  O   TRP A   1     -43.702  53.852 -56.161  1.00  0.00    -0.399 OA
ATOM     10  H   TRP A   1     -44.467  53.879 -55.560  1.00  0.00     0.209 HD
ENDBRANCH   8   9
ENDBRANCH   7   8
BRANCH   7  11
ATOM     11  CB  TRP A   1     -40.923  54.573 -53.908  1.00  0.00     0.068 C 
BRANCH  11  12
ATOM     12  CG  TRP A   1     -40.449  53.555 -52.903  1.00  0.00    -0.028 A 
ATOM     13  CD2 TRP A   1     -40.189  52.164 -53.144  1.00  0.00    -0.002 A 
ATOM     14  CE2 TRP A   1     -39.784  51.595 -51.934  1.00  0.00     0.042 A 
ATOM     15  CE3 TRP A   1     -40.264  51.329 -54.278  1.00  0.00     0.014 A 
ATOM     16  CZ2 TRP A   1     -39.454  50.241 -51.801  1.00  0.00     0.030 A 
ATOM     17  NE1 TRP A   1     -39.796  52.596 -50.993  1.00  0.00    -0.365 N 
ATOM     18  CH2 TRP A   1     -39.537  49.439 -52.941  1.00  0.00     0.002 A 
ATOM     19  CZ3 TRP A   1     -39.935  49.973 -54.163  1.00  0.00     0.001 A 
ATOM     20  HE1 TRP A   1     -39.561  52.469 -50.019  1.00  0.00     0.165 HD
ATOM     21  CD1 TRP A   1     -40.183  53.776 -51.564  1.00  0.00     0.096 A 
ENDBRANCH  11  12
ENDBRANCH   7  11
ENDBRANCH   5   7
BRANCH   1  22
HETATM   22  C   UNK A   0     -44.162  57.455 -51.285  1.00  0.00     0.066 A 
HETATM   23  C   UNK A   0     -45.288  58.254 -51.518  1.00  0.00     0.038 A 
HETATM   24  C   UNK A   0     -45.196  59.652 -51.509  1.00  0.00    -0.059 A 
HETATM   25  C   UNK A   0     -46.402  60.503 -51.774  1.00  0.00     0.048 C 
HETATM   26  C   UNK A   0     -43.951  60.247 -51.299  1.00  0.00     0.020 A 
HETATM   27  C   UNK A   0     -42.809  59.459 -51.090  1.00  0.00    -0.005 A 
HETATM   28  C   UNK A   0     -42.905  58.051 -51.073  1.00  0.00     0.093 A 
HETATM   29  C   UNK A   0     -41.549  60.044 -50.905  1.00  0.00     0.015 A 
HETATM   30  N   UNK A   0     -41.812  57.273 -50.879  1.00  0.00    -0.258 NA
HETATM   31  C   UNK A   0     -40.614  57.873 -50.707  1.00  0.00     0.117 A 
HETATM   32  C   UNK A   0     -40.433  59.241 -50.714  1.00  0.00     0.020 A 
ENDBRANCH   1  22
TORSDOF 6
ENDMDL
MODEL 2
REMARK VINA RESULT:      -8.8      3.457      7.121
REMARK  6 active torsions:
REMARK  status: ('A' for Active; 'I' for Inactive)
REMARK    1  A    between atoms: C_4  and  N_5 
REMARK       I    between atoms: N_5  and  C_6 
REMARK       I    between atoms: C_6  and  N_16 
REMARK    2  A    between atoms: N_16  and  CA_17 
REMARK    3  A    between atoms: CA_17  and  C_18 
REMARK    4  A    between atoms: CA_17  and  CB_20 
REMARK    5  A    between atoms: C_18  and  O_19 
REMARK    6  A    between atoms: CB_20  and  CG_21 
ROOT
HETATM    1  N   UNK A   0     -43.416  55.020 -53.316  1.00  0.00    -0.307 N 
HETATM    2  C   UNK A   0     -43.628  56.187 -53.973  1.00  0.00     0.321 C 
HETATM    3  O   UNK A   0     -44.775  56.529 -54.250  1.00  0.00    -0.247 OA
HETATM    4  H   UNK A   0     -44.290  54.563 -53.058  1.00  0.00     0.170 HD
ATOM      5  N   TRP A   1     -42.549  56.938 -54.301  1.00  0.00    -0.336 N 
ATOM      6  H   TRP A   1     -41.854  57.000 -53.573  1.00  0.00     0.164 HD
ENDROOT
BRANCH   5   7
ATOM      7  CA  TRP A   1     -42.671  58.139 -55.140  1.00  0.00     0.114 C 
BRANCH   7   8
ATOM      8  C   TRP A   1     -41.709  59.233 -54.645  1.00  0.00     0.189 C 
BRANCH   8   9
ATOM      9  O   TRP A   1     -41.642  60.307 -55.586  1.00  0.00    -0.399 OA
ATOM     10  H   TRP A   1     -42.554  60.458 -55.890  1.00  0.00     0.209 HD
ENDBRANCH   8   9
ENDBRANCH   7   8
BRANCH   7  11
ATOM     11  CB  TRP A   1     -42.404  57.790 -56.621  1.00  0.00     0.068 C 
BRANCH  11  12
ATOM     12  CG  TRP A   1     -43.649  57.798 -57.469  1.00  0.00    -0.028 A 
ATOM     13  CD2 TRP A   1     -44.058  56.791 -58.408  1.00  0.00    -0.002 A 
ATOM     14  CE2 TRP A   1     -45.261  57.212 -58.980  1.00  0.00     0.042 A 
ATOM     15  CE3 TRP A   1     -43.515  55.561 -58.832  1.00  0.00     0.014 A 
ATOM     16  CZ2 TRP A   1     -45.944  56.469 -59.949  1.00  0.00     0.030 A 
ATOM     17  NE1 TRP A   1     -45.575  58.423 -58.414  1.00  0.00    -0.365 N 
ATOM     18  CH2 TRP A   1     -45.383  55.254 -60.349  1.00  0.00     0.002 A 
ATOM     19  CZ3 TRP A   1     -44.187  54.803 -59.800  1.00  0.00     0.001 A 
ATOM     20  HE1 TRP A   1     -46.389  58.972 -58.651  1.00  0.00     0.165 HD
ATOM     21  CD1 TRP A   1     -44.622  58.780 -57.501  1.00  0.00     0.096 A 
ENDBRANCH  11  12
ENDBRANCH   7  11
ENDBRANCH   5   7
BRANCH   1  22
HETATM   22  C   UNK A   0     -42.284  54.214 -53.031  1.00  0.00     0.066 A 
HETATM   23  C   UNK A   0     -41.752  53.247 -53.892  1.00  0.00     0.038 A 
HETATM   24  C   UNK A   0     -40.638  52.483 -53.521  1.00  0.00    -0.059 A 
HETATM   25  C   UNK A   0     -40.081  51.439 -54.442  1.00  0.00     0.048 C 
HETATM   26  C   UNK A   0     -40.078  52.673 -52.256  1.00  0.00     0.020 A 
HETATM   27  C   UNK A   0     -40.616  53.620 -51.373  1.00  0.00    -0.005 A 
HETATM   28  C   UNK A   0     -41.723  54.408 -51.755  1.00  0.00     0.093 A 
HETATM   29  C   UNK A   0     -40.080  53.801 -50.090  1.00  0.00     0.015 A 
HETATM   30  N   UNK A   0     -42.261  55.323 -50.912  1.00  0.00    -0.258 NA
HETATM   31  C   UNK A   0     -41.719  55.466 -49.683  1.00  0.00     0.117 A 
HETATM   32  C   UNK A   0     -40.640  54.734 -49.229  1.00  0.00     0.020 A 
ENDBRANCH   1  22
TORSDOF 6
ENDMDL
MODEL 3
REMARK VINA RESULT:      -8.6      3.933      5.418
REMARK  6 active torsions:
REMARK  status: ('A' for Active; 'I' for Inactive)
REMARK    1  A    between atoms: C_4  and  N_5 
REMARK       I    between atoms: N_5  and  C_6 
REMARK       I    between atoms: C_6  and  N_16 
REMARK    2  A    between atoms: N_16  and  CA_17 
REMARK    3  A    between atoms: CA_17  and  C_18 
REMARK    4  A    between atoms: CA_17  and  CB_20 
REMARK    5  A    between atoms: C_18  and  O_19 
REMARK    6  A    between atoms: CB_20  and  CG_21 
ROOT
HETATM    1  N   UNK A   0     -42.432  58.580 -55.730  1.00  0.00    -0.307 N 
HETATM    2  C   UNK A   0     -42.282  57.763 -54.659  1.00  0.00     0.321 C 
HETATM    3  O   UNK A   0     -42.056  58.245 -53.551  1.00  0.00    -0.247 OA
HETATM    4  H   UNK A   0     -42.399  59.564 -55.467  1.00  0.00     0.170 HD
ATOM      5  N   TRP A   1     -42.388  56.426 -54.857  1.00  0.00    -0.336 N 
ATOM      6  H   TRP A   1     -43.143  56.160 -55.471  1.00  0.00     0.164 HD
ENDROOT
BRANCH   5   7
ATOM      7  CA  TRP A   1     -42.094  55.461 -53.789  1.00  0.00     0.114 C 
BRANCH   7   8
ATOM      8  C   TRP A   1     -43.365  54.675 -53.419  1.00  0.00     0.189 C 
BRANCH   8   9
ATOM      9  O   TRP A   1     -44.336  54.769 -54.464  1.00  0.00    -0.399 OA
ATOM     10  H   TRP A   1     -44.982  55.437 -54.173  1.00  0.00     0.209 HD
ENDBRANCH   8   9
ENDBRANCH   7   8
BRANCH   7  11
ATOM     11  CB  TRP A   1     -40.956  54.511 -54.221  1.00  0.00     0.068 C 
BRANCH  11  12
ATOM     12  CG  TRP A   1     -40.507  53.581 -53.124  1.00  0.00    -0.028 A 
ATOM     13  CD2 TRP A   1     -40.224  52.178 -53.245  1.00  0.00    -0.002 A 
ATOM     14  CE2 TRP A   1     -39.856  51.711 -51.982  1.00  0.00     0.042 A 
ATOM     15  CE3 TRP A   1     -40.252  51.257 -54.313  1.00  0.00     0.014 A 
ATOM     16  CZ2 TRP A   1     -39.517  50.376 -51.732  1.00  0.00     0.030 A 
ATOM     17  NE1 TRP A   1     -39.910  52.782 -51.124  1.00  0.00    -0.365 N 
ATOM     18  CH2 TRP A   1     -39.553  49.486 -52.808  1.00  0.00     0.002 A 
ATOM     19  CZ3 TRP A   1     -39.914  49.918 -54.081  1.00  0.00     0.001 A 
ATOM     20  HE1 TRP A   1     -39.707  52.735 -50.135  1.00  0.00     0.165 HD
ATOM     21  CD1 TRP A   1     -40.289  53.909 -51.798  1.00  0.00     0.096 A 
ENDBRANCH  11  12
ENDBRANCH   7  11
ENDBRANCH   5   7
BRANCH   1  22
HETATM   22  C   UNK A   0     -42.476  58.403 -57.136  1.00  0.00     0.066 A 
HETATM   23  C   UNK A   0     -42.821  57.210 -57.783  1.00  0.00     0.038 A 
HETATM   24  C   UNK A   0     -42.823  57.120 -59.181  1.00  0.00    -0.059 A 
HETATM   25  C   UNK A   0     -43.180  55.835 -59.868  1.00  0.00     0.048 C 
HETATM   26  C   UNK A   0     -42.440  58.233 -59.931  1.00  0.00     0.020 A 
HETATM   27  C   UNK A   0     -42.068  59.427 -59.297  1.00  0.00    -0.005 A 
HETATM   28  C   UNK A   0     -42.089  59.527 -57.889  1.00  0.00     0.093 A 
HETATM   29  C   UNK A   0     -41.654  60.543 -60.038  1.00  0.00     0.015 A 
HETATM   30  N   UNK A   0     -41.726  60.670 -57.258  1.00  0.00    -0.258 NA
HETATM   31  C   UNK A   0     -41.331  61.723 -58.007  1.00  0.00     0.117 A 
HETATM   32  C   UNK A   0     -41.277  61.708 -59.386  1.00  0.00     0.020 A 
ENDBRANCH   1  22
TORSDOF 6
ENDMDL
MODEL 4
REMARK VINA RESULT:      -8.6      2.492      6.997
REMARK  6 active torsions:
REMARK  status: ('A' for Active; 'I' for Inactive)
REMARK    1  A    between atoms: C_4  and  N_5 
REMARK       I    between atoms: N_5  and  C_6 
REMARK       I    between atoms: C_6  and  N_16 
REMARK    2  A    between atoms: N_16  and  CA_17 
REMARK    3  A    between atoms: CA_17  and  C_18 
REMARK    4  A    between atoms: CA_17  and  CB_20 
REMARK    5  A    between atoms: C_18  and  O_19 
REMARK    6  A    between atoms: CB_20  and  CG_21 
ROOT
HETATM    1  N   UNK A   0     -40.490  53.946 -50.479  1.00  0.00    -0.307 N 
HETATM    2  C   UNK A   0     -40.827  55.177 -50.024  1.00  0.00     0.321 C 
HETATM    3  O   UNK A   0     -41.157  55.323 -48.849  1.00  0.00    -0.247 OA
HETATM    4  H   UNK A   0     -40.490  53.250 -49.733  1.00  0.00     0.170 HD
ATOM      5  N   TRP A   1     -40.785  56.213 -50.897  1.00  0.00    -0.336 N 
ATOM      6  H   TRP A   1     -39.979  56.208 -51.503  1.00  0.00     0.164 HD
ENDROOT
BRANCH   5   7
ATOM      7  CA  TRP A   1     -41.274  57.551 -50.533  1.00  0.00     0.114 C 
BRANCH   7   8
ATOM      8  C   TRP A   1     -40.207  58.612 -50.855  1.00  0.00     0.189 C 
BRANCH   8   9
ATOM      9  O   TRP A   1     -40.614  59.895 -50.374  1.00  0.00    -0.399 OA
ATOM     10  H   TRP A   1     -40.651  60.477 -51.154  1.00  0.00     0.209 HD
ENDBRANCH   8   9
ENDBRANCH   7   8
BRANCH   7  11
ATOM     11  CB  TRP A   1     -42.601  57.854 -51.262  1.00  0.00     0.068 C 
BRANCH  11  12
ATOM     12  CG  TRP A   1     -42.476  57.832 -52.763  1.00  0.00    -0.028 A 
ATOM     13  CD2 TRP A   1     -42.870  56.769 -53.644  1.00  0.00    -0.002 A 
ATOM     14  CE2 TRP A   1     -42.560  57.165 -54.947  1.00  0.00     0.042 A 
ATOM     15  CE3 TRP A   1     -43.458  55.501 -53.457  1.00  0.00     0.014 A 
ATOM     16  CZ2 TRP A   1     -42.805  56.361 -56.067  1.00  0.00     0.030 A 
ATOM     17  NE1 TRP A   1     -42.001  58.417 -54.867  1.00  0.00    -0.365 N 
ATOM     18  CH2 TRP A   1     -43.389  55.111 -55.851  1.00  0.00     0.002 A 
ATOM     19  CZ3 TRP A   1     -43.712  54.685 -54.566  1.00  0.00     0.001 A 
ATOM     20  HE1 TRP A   1     -41.665  58.947 -55.659  1.00  0.00     0.165 HD
ATOM     21  CD1 TRP A   1     -41.955  58.831 -53.565  1.00  0.00     0.096 A 
ENDBRANCH  11  12
ENDBRANCH   7  11
ENDBRANCH   5   7
BRANCH   1  22
HETATM   22  C   UNK A   0     -40.281  53.364 -51.755  1.00  0.00     0.066 A 
HETATM   23  C   UNK A   0     -40.346  54.055 -52.971  1.00  0.00     0.038 A 
HETATM   24  C   UNK A   0     -40.141  53.395 -54.189  1.00  0.00    -0.059 A 
HETATM   25  C   UNK A   0     -40.225  54.137 -55.490  1.00  0.00     0.048 C 
HETATM   26  C   UNK A   0     -39.904  52.019 -54.182  1.00  0.00     0.020 A 
HETATM   27  C   UNK A   0     -39.861  51.308 -52.974  1.00  0.00    -0.005 A 
HETATM   28  C   UNK A   0     -40.042  51.977 -51.743  1.00  0.00     0.093 A 
HETATM   29  C   UNK A   0     -39.652  49.923 -52.954  1.00  0.00     0.015 A 
HETATM   30  N   UNK A   0     -40.012  51.306 -50.566  1.00  0.00    -0.258 NA
HETATM   31  C   UNK A   0     -39.811  49.971 -50.588  1.00  0.00     0.117 A 
HETATM   32  C   UNK A   0     -39.629  49.241 -51.746  1.00  0.00     0.020 A 
ENDBRANCH   1  22
TORSDOF 6
ENDMDL
MODEL 5
REMARK VINA RESULT:      -8.6      2.413      7.059
REMARK  6 active torsions:
REMARK  status: ('A' for Active; 'I' for Inactive)
REMARK    1  A    between atoms: C_4  and  N_5 
REMARK       I    between atoms: N_5  and  C_6 
REMARK       I    between atoms: C_6  and  N_16 
REMARK    2  A    between atoms: N_16  and  CA_17 
REMARK    3  A    between atoms: CA_17  and  C_18 
REMARK    4  A    between atoms: CA_17  and  CB_20 
REMARK    5  A    between atoms: C_18  and  O_19 
REMARK    6  A    between atoms: CB_20  and  CG_21 
ROOT
HETATM    1  N   UNK A   0     -40.962  54.883 -51.006  1.00  0.00    -0.307 N 
HETATM    2  C   UNK A   0     -40.969  56.096 -50.402  1.00  0.00     0.321 C 
HETATM    3  O   UNK A   0     -41.182  56.174 -49.194  1.00  0.00    -0.247 OA
HETATM    4  H   UNK A   0     -41.080  54.123 -50.337  1.00  0.00     0.170 HD
ATOM      5  N   TRP A   1     -40.738  57.191 -51.167  1.00  0.00    -0.336 N 
ATOM      6  H   TRP A   1     -39.995  57.074 -51.839  1.00  0.00     0.164 HD
ENDROOT
BRANCH   5   7
ATOM      7  CA  TRP A   1     -40.874  58.552 -50.629  1.00  0.00     0.114 C 
BRANCH   7   8
ATOM      8  C   TRP A   1     -39.487  59.200 -50.468  1.00  0.00     0.189 C 
BRANCH   8   9
ATOM      9  O   TRP A   1     -38.921  59.501 -51.747  1.00  0.00    -0.399 OA
ATOM     10  H   TRP A   1     -39.462  60.219 -52.119  1.00  0.00     0.209 HD
ENDBRANCH   8   9
ENDBRANCH   7   8
BRANCH   7  11
ATOM     11  CB  TRP A   1     -41.785  59.402 -51.541  1.00  0.00     0.068 C 
BRANCH  11  12
ATOM     12  CG  TRP A   1     -42.956  58.634 -52.097  1.00  0.00    -0.028 A 
ATOM     13  CD2 TRP A   1     -43.334  58.521 -53.478  1.00  0.00    -0.002 A 
ATOM     14  CE2 TRP A   1     -44.485  57.732 -53.536  1.00  0.00     0.042 A 
ATOM     15  CE3 TRP A   1     -42.809  59.022 -54.687  1.00  0.00     0.014 A 
ATOM     16  CZ2 TRP A   1     -45.134  57.419 -54.736  1.00  0.00     0.030 A 
ATOM     17  NE1 TRP A   1     -44.796  57.376 -52.247  1.00  0.00    -0.365 N 
ATOM     18  CH2 TRP A   1     -44.592  57.928 -55.918  1.00  0.00     0.002 A 
ATOM     19  CZ3 TRP A   1     -43.446  58.717 -55.897  1.00  0.00     0.001 A 
ATOM     20  HE1 TRP A   1     -45.594  56.814 -51.984  1.00  0.00     0.165 HD
ATOM     21  CD1 TRP A   1     -43.882  57.902 -51.377  1.00  0.00     0.096 A 
ENDBRANCH  11  12
ENDBRANCH   7  11
ENDBRANCH   5   7
BRANCH   1  22
HETATM   22  C   UNK A   0     -40.976  54.424 -52.348  1.00  0.00     0.066 A 
HETATM   23  C   UNK A   0     -41.491  55.141 -53.435  1.00  0.00     0.038 A 
HETATM   24  C   UNK A   0     -41.478  54.601 -54.727  1.00  0.00    -0.059 A 
HETATM   25  C   UNK A   0     -42.045  55.368 -55.886  1.00  0.00     0.048 C 
HETATM   26  C   UNK A   0     -40.973  53.314 -54.919  1.00  0.00     0.020 A 
HETATM   27  C   UNK A   0     -40.477  52.574 -53.836  1.00  0.00    -0.005 A 
HETATM   28  C   UNK A   0     -40.466  53.125 -52.537  1.00  0.00     0.093 A 
HETATM   29  C   UNK A   0     -39.993  51.270 -54.011  1.00  0.00     0.015 A 
HETATM   30  N   UNK A   0     -39.998  52.423 -51.477  1.00  0.00    -0.258 NA
HETATM   31  C   UNK A   0     -39.542  51.168 -51.684  1.00  0.00     0.117 A 
HETATM   32  C   UNK A   0     -39.521  50.553 -52.920  1.00  0.00     0.020 A 
ENDBRANCH   1  22
TORSDOF 6
ENDMDL
MODEL 6
REMARK VINA RESULT:      -8.5      2.825      6.715
REMARK  6 active torsions:
REMARK  status: ('A' for Active; 'I' for Inactive)
REMARK    1  A    between atoms: C_4  and  N_5 
REMARK       I    between atoms: N_5  and  C_6 
REMARK       I    between atoms: C_6  and  N_16 
REMARK    2  A    between atoms: N_16  and  CA_17 
REMARK    3  A    between atoms: CA_17  and  C_18 
REMARK    4  A    between atoms: CA_17  and  CB_20 
REMARK    5  A    between atoms: C_18  and  O_19 
REMARK    6  A    between atoms: CB_20  and  CG_21 
ROOT
HETATM    1  N   UNK A   0     -43.286  55.356 -51.817  1.00  0.00    -0.307 N 
HETATM    2  C   UNK A   0     -43.394  56.616 -52.305  1.00  0.00     0.321 C 
HETATM    3  O   UNK A   0     -44.384  56.933 -52.961  1.00  0.00    -0.247 OA
HETATM    4  H   UNK A   0     -44.118  54.799 -52.011  1.00  0.00     0.170 HD
ATOM      5  N   TRP A   1     -42.390  57.489 -52.045  1.00  0.00    -0.336 N 
ATOM      6  H   TRP A   1     -42.042  57.446 -51.099  1.00  0.00     0.164 HD
ENDROOT
BRANCH   5   7
ATOM      7  CA  TRP A   1     -42.350  58.825 -52.655  1.00  0.00     0.114 C 
BRANCH   7   8
ATOM      8  C   TRP A   1     -42.026  59.886 -51.589  1.00  0.00     0.189 C 
BRANCH   8   9
ATOM      9  O   TRP A   1     -42.577  59.512 -50.323  1.00  0.00    -0.399 OA
ATOM     10  H   TRP A   1     -43.540  59.625 -50.403  1.00  0.00     0.209 HD
ENDBRANCH   8   9
ENDBRANCH   7   8
BRANCH   7  11
ATOM     11  CB  TRP A   1     -41.324  58.860 -53.808  1.00  0.00     0.068 C 
BRANCH  11  12
ATOM     12  CG  TRP A   1     -41.960  58.850 -55.174  1.00  0.00    -0.028 A 
ATOM     13  CD2 TRP A   1     -42.322  57.696 -55.946  1.00  0.00    -0.002 A 
ATOM     14  CE2 TRP A   1     -42.865  58.148 -57.151  1.00  0.00     0.042 A 
ATOM     15  CE3 TRP A   1     -42.235  56.304 -55.738  1.00  0.00     0.014 A 
ATOM     16  CZ2 TRP A   1     -43.321  57.284 -58.153  1.00  0.00     0.030 A 
ATOM     17  NE1 TRP A   1     -42.836  59.521 -57.116  1.00  0.00    -0.365 N 
ATOM     18  CH2 TRP A   1     -43.223  55.911 -57.919  1.00  0.00     0.002 A 
ATOM     19  CZ3 TRP A   1     -42.689  55.425 -56.730  1.00  0.00     0.001 A 
ATOM     20  HE1 TRP A   1     -43.155  60.120 -57.865  1.00  0.00     0.165 HD
ATOM     21  CD1 TRP A   1     -42.306  59.953 -55.933  1.00  0.00     0.096 A 
ENDBRANCH  11  12
ENDBRANCH   7  11
ENDBRANCH   5   7
BRANCH   1  22
HETATM   22  C   UNK A   0     -42.247  54.585 -51.236  1.00  0.00     0.066 A 
HETATM   23  C   UNK A   0     -41.827  54.681 -49.904  1.00  0.00     0.038 A 
HETATM   24  C   UNK A   0     -40.780  53.889 -49.418  1.00  0.00    -0.059 A 
HETATM   25  C   UNK A   0     -40.324  54.006 -47.993  1.00  0.00     0.048 C 
HETATM   26  C   UNK A   0     -40.128  53.018 -50.292  1.00  0.00     0.020 A 
HETATM   27  C   UNK A   0     -40.520  52.928 -51.635  1.00  0.00    -0.005 A 
HETATM   28  C   UNK A   0     -41.592  53.708 -52.121  1.00  0.00     0.093 A 
HETATM   29  C   UNK A   0     -39.856  52.078 -52.530  1.00  0.00     0.015 A 
HETATM   30  N   UNK A   0     -41.982  53.641 -53.417  1.00  0.00    -0.258 NA
HETATM   31  C   UNK A   0     -41.315  52.812 -54.250  1.00  0.00     0.117 A 
HETATM   32  C   UNK A   0     -40.255  52.020 -53.858  1.00  0.00     0.020 A 
ENDBRANCH   1  22
TORSDOF 6
ENDMDL
MODEL 7
REMARK VINA RESULT:      -8.4      2.602      6.623
REMARK  6 active torsions:
REMARK  status: ('A' for Active; 'I' for Inactive)
REMARK    1  A    between atoms: C_4  and  N_5 
REMARK       I    between atoms: N_5  and  C_6 
REMARK       I    between atoms: C_6  and  N_16 
REMARK    2  A    between atoms: N_16  and  CA_17 
REMARK    3  A    between atoms: CA_17  and  C_18 
REMARK    4  A    between atoms: CA_17  and  CB_20 
REMARK    5  A    between atoms: C_18  and  O_19 
REMARK    6  A    between atoms: CB_20  and  CG_21 
ROOT
HETATM    1  N   UNK A   0     -44.011  55.995 -51.218  1.00  0.00    -0.307 N 
HETATM    2  C   UNK A   0     -44.186  57.326 -51.028  1.00  0.00     0.321 C 
HETATM    3  O   UNK A   0     -45.291  57.754 -50.701  1.00  0.00    -0.247 OA
HETATM    4  H   UNK A   0     -44.852  55.464 -50.997  1.00  0.00     0.170 HD
ATOM      5  N   TRP A   1     -43.119  58.142 -51.207  1.00  0.00    -0.336 N 
ATOM      6  H   TRP A   1     -42.258  57.784 -50.822  1.00  0.00     0.164 HD
ENDROOT
BRANCH   5   7
ATOM      7  CA  TRP A   1     -43.249  59.605 -51.167  1.00  0.00     0.114 C 
BRANCH   7   8
ATOM      8  C   TRP A   1     -42.280  60.197 -50.128  1.00  0.00     0.189 C 
BRANCH   8   9
ATOM      9  O   TRP A   1     -41.409  59.184 -49.620  1.00  0.00    -0.399 OA
ATOM     10  H   TRP A   1     -40.830  59.624 -48.972  1.00  0.00     0.209 HD
ENDBRANCH   8   9
ENDBRANCH   7   8
BRANCH   7  11
ATOM     11  CB  TRP A   1     -43.001  60.205 -52.568  1.00  0.00     0.068 C 
BRANCH  11  12
ATOM     12  CG  TRP A   1     -43.865  59.595 -53.640  1.00  0.00    -0.028 A 
ATOM     13  CD2 TRP A   1     -43.468  58.616 -54.613  1.00  0.00    -0.002 A 
ATOM     14  CE2 TRP A   1     -44.577  58.346 -55.417  1.00  0.00     0.042 A 
ATOM     15  CE3 TRP A   1     -42.264  57.935 -54.890  1.00  0.00     0.014 A 
ATOM     16  CZ2 TRP A   1     -44.545  57.435 -56.479  1.00  0.00     0.030 A 
ATOM     17  NE1 TRP A   1     -45.610  59.126 -54.955  1.00  0.00    -0.365 N 
ATOM     18  CH2 TRP A   1     -43.340  56.775 -56.731  1.00  0.00     0.002 A 
ATOM     19  CZ3 TRP A   1     -42.215  57.019 -55.949  1.00  0.00     0.001 A 
ATOM     20  HE1 TRP A   1     -46.536  59.148 -55.359  1.00  0.00     0.165 HD
ATOM     21  CD1 TRP A   1     -45.198  59.870 -53.886  1.00  0.00     0.096 A 
ENDBRANCH  11  12
ENDBRANCH   7  11
ENDBRANCH   5   7
BRANCH   1  22
HETATM   22  C   UNK A   0     -42.997  55.183 -51.787  1.00  0.00     0.066 A 
HETATM   23  C   UNK A   0     -42.998  54.705 -53.103  1.00  0.00     0.038 A 
HETATM   24  C   UNK A   0     -41.960  53.892 -53.577  1.00  0.00    -0.059 A 
HETATM   25  C   UNK A   0     -41.972  53.372 -54.984  1.00  0.00     0.048 C 
HETATM   26  C   UNK A   0     -40.932  53.530 -52.705  1.00  0.00     0.020 A 
HETATM   27  C   UNK A   0     -40.931  53.979 -51.377  1.00  0.00    -0.005 A 
HETATM   28  C   UNK A   0     -41.963  54.819 -50.905  1.00  0.00     0.093 A 
HETATM   29  C   UNK A   0     -39.919  53.600 -50.484  1.00  0.00     0.015 A 
HETATM   30  N   UNK A   0     -41.983  55.258 -49.623  1.00  0.00    -0.258 NA
HETATM   31  C   UNK A   0     -40.992  54.869 -48.791  1.00  0.00     0.117 A 
HETATM   32  C   UNK A   0     -39.950  54.047 -49.170  1.00  0.00     0.020 A 
ENDBRANCH   1  22
TORSDOF 6
ENDMDL
MODEL 8
REMARK VINA RESULT:      -8.2      2.235      6.717
REMARK  6 active torsions:
REMARK  status: ('A' for Active; 'I' for Inactive)
REMARK    1  A    between atoms: C_4  and  N_5 
REMARK       I    between atoms: N_5  and  C_6 
REMARK       I    between atoms: C_6  and  N_16 
REMARK    2  A    between atoms: N_16  and  CA_17 
REMARK    3  A    between atoms: CA_17  and  C_18 
REMARK    4  A    between atoms: CA_17  and  CB_20 
REMARK    5  A    between atoms: C_18  and  O_19 
REMARK    6  A    between atoms: CB_20  and  CG_21 
ROOT
HETATM    1  N   UNK A   0     -42.492  54.322 -54.778  1.00  0.00    -0.307 N 
HETATM    2  C   UNK A   0     -42.783  55.321 -55.647  1.00  0.00     0.321 C 
HETATM    3  O   UNK A   0     -43.092  55.050 -56.806  1.00  0.00    -0.247 OA
HETATM    4  H   UNK A   0     -42.630  53.402 -55.194  1.00  0.00     0.170 HD
ATOM      5  N   TRP A   1     -42.721  56.597 -55.195  1.00  0.00    -0.336 N 
ATOM      6  H   TRP A   1     -43.115  56.728 -54.276  1.00  0.00     0.164 HD
ENDROOT
BRANCH   5   7
ATOM      7  CA  TRP A   1     -42.875  57.745 -56.100  1.00  0.00     0.114 C 
BRANCH   7   8
ATOM      8  C   TRP A   1     -44.363  58.104 -56.254  1.00  0.00     0.189 C 
BRANCH   8   9
ATOM      9  O   TRP A   1     -44.933  57.416 -57.371  1.00  0.00    -0.399 OA
ATOM     10  H   TRP A   1     -45.461  58.075 -57.854  1.00  0.00     0.209 HD
ENDBRANCH   8   9
ENDBRANCH   7   8
BRANCH   7  11
ATOM     11  CB  TRP A   1     -42.061  58.951 -55.581  1.00  0.00     0.068 C 
BRANCH  11  12
ATOM     12  CG  TRP A   1     -42.411  59.345 -54.170  1.00  0.00    -0.028 A 
ATOM     13  CD2 TRP A   1     -41.551  59.285 -53.021  1.00  0.00    -0.002 A 
ATOM     14  CE2 TRP A   1     -42.287  59.729 -51.920  1.00  0.00     0.042 A 
ATOM     15  CE3 TRP A   1     -40.214  58.890 -52.810  1.00  0.00     0.014 A 
ATOM     16  CZ2 TRP A   1     -41.758  59.797 -50.627  1.00  0.00     0.030 A 
ATOM     17  NE1 TRP A   1     -43.543  60.047 -52.377  1.00  0.00    -0.365 N 
ATOM     18  CH2 TRP A   1     -40.431  59.399 -50.448  1.00  0.00     0.002 A 
ATOM     19  CZ3 TRP A   1     -39.668  58.953 -51.522  1.00  0.00     0.001 A 
ATOM     20  HE1 TRP A   1     -44.297  60.383 -51.793  1.00  0.00     0.165 HD
ATOM     21  CD1 TRP A   1     -43.626  59.831 -53.723  1.00  0.00     0.096 A 
ENDBRANCH  11  12
ENDBRANCH   7  11
ENDBRANCH   5   7
BRANCH   1  22
HETATM   22  C   UNK A   0     -41.906  54.245 -53.489  1.00  0.00     0.066 A 
HETATM   23  C   UNK A   0     -42.072  55.196 -52.475  1.00  0.00     0.038 A 
HETATM   24  C   UNK A   0     -41.441  55.047 -51.234  1.00  0.00    -0.059 A 
HETATM   25  C   UNK A   0     -41.612  56.076 -50.156  1.00  0.00     0.048 C 
HETATM   26  C   UNK A   0     -40.607  53.947 -51.026  1.00  0.00     0.020 A 
HETATM   27  C   UNK A   0     -40.411  52.999 -52.041  1.00  0.00    -0.005 A 
HETATM   28  C   UNK A   0     -41.066  53.134 -53.284  1.00  0.00     0.093 A 
HETATM   29  C   UNK A   0     -39.554  51.905 -51.855  1.00  0.00     0.015 A 
HETATM   30  N   UNK A   0     -40.882  52.233 -54.279  1.00  0.00    -0.258 NA
HETATM   31  C   UNK A   0     -40.047  51.193 -54.063  1.00  0.00     0.117 A 
HETATM   32  C   UNK A   0     -39.366  50.989 -52.880  1.00  0.00     0.020 A 
ENDBRANCH   1  22
TORSDOF 6
ENDMDL
MODEL 9
REMARK VINA RESULT:      -8.1      1.942      6.770
REMARK  6 active torsions:
REMARK  status: ('A' for Active; 'I' for Inactive)
REMARK    1  A    between atoms: C_4  and  N_5 
REMARK       I    between atoms: N_5  and  C_6 
REMARK       I    between atoms: C_6  and  N_16 
REMARK    2  A    between atoms: N_16  and  CA_17 
REMARK    3  A    between atoms: CA_17  and  C_18 
REMARK    4  A    between atoms: CA_17  and  CB_20 
REMARK    5  A    between atoms: C_18  and  O_19 
REMARK    6  A    between atoms: CB_20  and  CG_21 
ROOT
HETATM    1  N   UNK A   0     -42.904  54.643 -53.552  1.00  0.00    -0.307 N 
HETATM    2  C   UNK A   0     -43.738  55.693 -53.751  1.00  0.00     0.321 C 
HETATM    3  O   UNK A   0     -44.220  55.885 -54.865  1.00  0.00    -0.247 OA
HETATM    4  H   UNK A   0     -42.816  54.062 -54.385  1.00  0.00     0.170 HD
ATOM      5  N   TRP A   1     -44.010  56.500 -52.696  1.00  0.00    -0.336 N 
ATOM      6  H   TRP A   1     -44.174  56.007 -51.832  1.00  0.00     0.164 HD
ENDROOT
BRANCH   5   7
ATOM      7  CA  TRP A   1     -44.781  57.742 -52.852  1.00  0.00     0.114 C 
BRANCH   7   8
ATOM      8  C   TRP A   1     -45.298  58.221 -51.485  1.00  0.00     0.189 C 
BRANCH   8   9
ATOM      9  O   TRP A   1     -44.865  57.339 -50.446  1.00  0.00    -0.399 OA
ATOM     10  H   TRP A   1     -44.188  57.825 -49.943  1.00  0.00     0.209 HD
ENDBRANCH   8   9
ENDBRANCH   7   8
BRANCH   7  11
ATOM     11  CB  TRP A   1     -43.920  58.827 -53.535  1.00  0.00     0.068 C 
BRANCH  11  12
ATOM     12  CG  TRP A   1     -42.446  58.680 -53.260  1.00  0.00    -0.028 A 
ATOM     13  CD2 TRP A   1     -41.748  59.081 -52.072  1.00  0.00    -0.002 A 
ATOM     14  CE2 TRP A   1     -40.398  58.772 -52.251  1.00  0.00     0.042 A 
ATOM     15  CE3 TRP A   1     -42.136  59.686 -50.858  1.00  0.00     0.014 A 
ATOM     16  CZ2 TRP A   1     -39.420  59.036 -51.284  1.00  0.00     0.030 A 
ATOM     17  NE1 TRP A   1     -40.275  58.204 -53.495  1.00  0.00    -0.365 N 
ATOM     18  CH2 TRP A   1     -39.833  59.635 -50.092  1.00  0.00     0.002 A 
ATOM     19  CZ3 TRP A   1     -41.171  59.955 -49.879  1.00  0.00     0.001 A 
ATOM     20  HE1 TRP A   1     -39.403  57.894 -53.900  1.00  0.00     0.165 HD
ATOM     21  CD1 TRP A   1     -41.497  58.135 -54.105  1.00  0.00     0.096 A 
ENDBRANCH  11  12
ENDBRANCH   7  11
ENDBRANCH   5   7
BRANCH   1  22
HETATM   22  C   UNK A   0     -42.017  54.240 -52.521  1.00  0.00     0.066 A 
HETATM   23  C   UNK A   0     -41.923  54.847 -51.262  1.00  0.00     0.038 A 
HETATM   24  C   UNK A   0     -41.005  54.391 -50.308  1.00  0.00    -0.059 A 
HETATM   25  C   UNK A   0     -40.899  55.054 -48.966  1.00  0.00     0.048 C 
HETATM   26  C   UNK A   0     -40.150  53.338 -50.639  1.00  0.00     0.020 A 
HETATM   27  C   UNK A   0     -40.215  52.737 -51.904  1.00  0.00    -0.005 A 
HETATM   28  C   UNK A   0     -41.157  53.178 -52.859  1.00  0.00     0.093 A 
HETATM   29  C   UNK A   0     -39.344  51.698 -52.259  1.00  0.00     0.015 A 
HETATM   30  N   UNK A   0     -41.231  52.615 -54.089  1.00  0.00    -0.258 NA
HETATM   31  C   UNK A   0     -40.372  51.618 -54.395  1.00  0.00     0.117 A 
HETATM   32  C   UNK A   0     -39.420  51.130 -53.523  1.00  0.00     0.020 A 
ENDBRANCH   1  22
TORSDOF 6
ENDMDL
MODEL 10
REMARK VINA RESULT:      -8.0      2.151      2.871
REMARK  6 active torsions:
REMARK  status: ('A' for Active; 'I' for Inactive)
REMARK    1  A    between atoms: C_4  and  N_5 
REMARK       I    between atoms: N_5  and  C_6 
REMARK       I    between atoms: C_6  and  N_16 
REMARK    2  A    between atoms: N_16  and  CA_17 
REMARK    3  A    between atoms: CA_17  and  C_18 
REMARK    4  A    between atoms: CA_17  and  CB_20 
REMARK    5  A    between atoms: C_18  and  O_19 
REMARK    6  A    between atoms: CB_20  and  CG_21 
ROOT
HETATM    1  N   UNK A   0     -42.068  59.233 -54.376  1.00  0.00    -0.307 N 
HETATM    2  C   UNK A   0     -42.398  58.181 -55.164  1.00  0.00     0.321 C 
HETATM    3  O   UNK A   0     -42.376  58.306 -56.387  1.00  0.00    -0.247 OA
HETATM    4  H   UNK A   0     -41.762  60.038 -54.922  1.00  0.00     0.170 HD
ATOM      5  N   TRP A   1     -42.742  57.016 -54.562  1.00  0.00    -0.336 N 
ATOM      6  H   TRP A   1     -42.160  56.771 -53.777  1.00  0.00     0.164 HD
ENDROOT
BRANCH   5   7
ATOM      7  CA  TRP A   1     -43.255  55.872 -55.329  1.00  0.00     0.114 C 
BRANCH   7   8
ATOM      8  C   TRP A   1     -42.163  55.328 -56.266  1.00  0.00     0.189 C 
BRANCH   8   9
ATOM      9  O   TRP A   1     -42.485  55.607 -57.630  1.00  0.00    -0.399 OA
ATOM     10  H   TRP A   1     -41.961  56.389 -57.878  1.00  0.00     0.209 HD
ENDBRANCH   8   9
ENDBRANCH   7   8
BRANCH   7  11
ATOM     11  CB  TRP A   1     -43.772  54.774 -54.375  1.00  0.00     0.068 C 
BRANCH  11  12
ATOM     12  CG  TRP A   1     -42.821  54.468 -53.247  1.00  0.00    -0.028 A 
ATOM     13  CD2 TRP A   1     -41.755  53.506 -53.256  1.00  0.00    -0.002 A 
ATOM     14  CE2 TRP A   1     -41.143  53.544 -52.001  1.00  0.00     0.042 A 
ATOM     15  CE3 TRP A   1     -41.255  52.599 -54.213  1.00  0.00     0.014 A 
ATOM     16  CZ2 TRP A   1     -40.062  52.725 -51.656  1.00  0.00     0.030 A 
ATOM     17  NE1 TRP A   1     -41.805  54.489 -51.257  1.00  0.00    -0.365 N 
ATOM     18  CH2 TRP A   1     -39.586  51.836 -52.624  1.00  0.00     0.002 A 
ATOM     19  CZ3 TRP A   1     -40.172  51.773 -53.885  1.00  0.00     0.001 A 
ATOM     20  HE1 TRP A   1     -41.585  54.721 -50.298  1.00  0.00     0.165 HD
ATOM     21  CD1 TRP A   1     -42.805  55.057 -51.996  1.00  0.00     0.096 A 
ENDBRANCH  11  12
ENDBRANCH   7  11
ENDBRANCH   5   7
BRANCH   1  22
HETATM   22  C   UNK A   0     -42.183  59.534 -52.995  1.00  0.00     0.066 A 
HETATM   23  C   UNK A   0     -43.363  59.936 -52.358  1.00  0.00     0.038 A 
HETATM   24  C   UNK A   0     -43.381  60.229 -50.988  1.00  0.00    -0.059 A 
HETATM   25  C   UNK A   0     -44.646  60.673 -50.314  1.00  0.00     0.048 C 
HETATM   26  C   UNK A   0     -42.191  60.149 -50.263  1.00  0.00     0.020 A 
HETATM   27  C   UNK A   0     -40.996  59.772 -50.892  1.00  0.00    -0.005 A 
HETATM   28  C   UNK A   0     -40.981  59.452 -52.267  1.00  0.00     0.093 A 
HETATM   29  C   UNK A   0     -39.789  59.715 -50.181  1.00  0.00     0.015 A 
HETATM   30  N   UNK A   0     -39.834  59.093 -52.895  1.00  0.00    -0.258 NA
HETATM   31  C   UNK A   0     -38.691  59.052 -52.176  1.00  0.00     0.117 A 
HETATM   32  C   UNK A   0     -38.617  59.353 -50.831  1.00  0.00     0.020 A 
ENDBRANCH   1  22
TORSDOF 6
ENDMDL
