MODEL 1
REMARK VINA RESULT:      -9.3      0.000      0.000
REMARK  7 active torsions:
REMARK  status: ('A' for Active; 'I' for Inactive)
REMARK    1  A    between atoms: O_2  and  C_3 
REMARK    2  A    between atoms: C_4  and  C_5 
REMARK    3  A    between atoms: N_10  and  C_12 
REMARK    4  A    between atoms: C_12  and  C_13 
REMARK       I    between atoms: C_13  and  N_14 
REMARK    5  A    between atoms: N_14  and  C_15 
REMARK    6  A    between atoms: C_15  and  C_16 
REMARK    7  A    between atoms: C_16  and  C_17 
ROOT
HETATM    1  C   UNL     1     -43.284  56.960 -58.108  1.00  0.00     0.190 C 
HETATM    2  O   UNL     1     -42.080  57.352 -58.796  1.00  0.00    -0.339 OA
HETATM    3  C   UNL     1     -42.069  58.614 -59.303  1.00  0.00     0.077 A 
HETATM    4  C   UNL     1     -42.098  59.744 -58.483  1.00  0.00     0.001 A 
HETATM    5  C   UNL     1     -42.098  59.620 -56.993  1.00  0.00     0.276 C 
HETATM    6  N   UNL     1     -43.314  58.944 -56.418  1.00  0.00    -0.056 N 
HETATM    7  H   UNL     1     -44.164  59.310 -56.868  1.00  0.00     0.280 HD
HETATM    8  C   UNL     1     -43.316  57.436 -56.634  1.00  0.00     0.273 C 
HETATM    9  C   UNL     1     -41.954  58.731 -60.688  1.00  0.00     0.037 A 
HETATM   10  C   UNL     1     -41.922  59.990 -61.279  1.00  0.00     0.003 A 
HETATM   11  C   UNL     1     -41.985  61.130 -60.482  1.00  0.00     0.001 A 
HETATM   12  C   UNL     1     -42.066  61.010 -59.093  1.00  0.00     0.012 A 
ENDROOT
BRANCH   6  13
HETATM   13  C   UNL     1     -43.478  59.300 -54.935  1.00  0.00     0.337 C 
BRANCH  13  14
HETATM   14  C   UNL     1     -43.197  58.121 -54.003  1.00  0.00     0.243 C 
HETATM   15  N   UNL     1     -41.869  57.915 -53.734  1.00  0.00    -0.359 N 
HETATM   16  H   UNL     1     -41.156  58.421 -54.261  1.00  0.00     0.162 HD
HETATM   17  O   UNL     1     -44.115  57.433 -53.566  1.00  0.00    -0.272 OA
BRANCH  15  18
HETATM   18  C   UNL     1     -41.360  56.707 -53.101  1.00  0.00     0.130 C 
BRANCH  18  19
HETATM   19  C   UNL     1     -40.942  55.665 -54.141  1.00  0.00     0.098 C 
BRANCH  19  20
HETATM   20  C   UNL     1     -40.575  54.332 -53.516  1.00  0.00     0.109 A 
HETATM   21  N   UNL     1     -40.492  53.254 -54.235  1.00  0.00    -0.234 NA
HETATM   22  C   UNL     1     -40.160  52.051 -53.579  1.00  0.00     0.074 A 
HETATM   23  C   UNL     1     -39.968  51.976 -52.196  1.00  0.00     0.061 A 
HETATM   24  C   UNL     1     -40.013  50.887 -54.337  1.00  0.00     0.032 A 
HETATM   25  C   UNL     1     -40.116  53.219 -51.422  1.00  0.00     0.259 A 
HETATM   26  C   UNL     1     -39.640  50.770 -51.570  1.00  0.00     0.019 A 
HETATM   27  O   UNL     1     -39.990  53.256 -50.206  1.00  0.00    -0.267 OA
HETATM   28  N   UNL     1     -40.412  54.341 -52.156  1.00  0.00    -0.311 N 
HETATM   29  H   UNL     1     -40.504  55.189 -51.613  1.00  0.00     0.170 HD
HETATM   30  C   UNL     1     -39.498  49.616 -52.340  1.00  0.00     0.001 A 
HETATM   31  C   UNL     1     -39.684  49.675 -53.722  1.00  0.00     0.002 A 
ENDBRANCH  19  20
ENDBRANCH  18  19
ENDBRANCH  15  18
ENDBRANCH  13  14
ENDBRANCH   6  13
BRANCH   1  32
HETATM   32  C   UNL     1     -44.599  57.058 -58.892  1.00  0.00     0.006 A 
HETATM   33  C   UNL     1     -44.966  56.031 -59.792  1.00  0.00     0.077 A 
HETATM   34  C   UNL     1     -46.176  56.102 -60.497  1.00  0.00     0.037 A 
HETATM   35  C   UNL     1     -47.020  57.199 -60.345  1.00  0.00     0.003 A 
HETATM   36  C   UNL     1     -46.665  58.228 -59.486  1.00  0.00     0.001 A 
HETATM   37  C   UNL     1     -45.470  58.157 -58.766  1.00  0.00     0.012 A 
BRANCH  33  38
HETATM   38  O   UNL     1     -44.110  54.964 -59.896  1.00  0.00    -0.355 OA
HETATM   39  C   UNL     1     -44.666  53.682 -59.609  1.00  0.00     0.210 C 
ENDBRANCH  33  38
ENDBRANCH   1  32
TORSDOF 7
ENDMDL
MODEL 2
REMARK VINA RESULT:      -9.3      1.616      2.117
REMARK  7 active torsions:
REMARK  status: ('A' for Active; 'I' for Inactive)
REMARK    1  A    between atoms: O_2  and  C_3 
REMARK    2  A    between atoms: C_4  and  C_5 
REMARK    3  A    between atoms: N_10  and  C_12 
REMARK    4  A    between atoms: C_12  and  C_13 
REMARK       I    between atoms: C_13  and  N_14 
REMARK    5  A    between atoms: N_14  and  C_15 
REMARK    6  A    between atoms: C_15  and  C_16 
REMARK    7  A    between atoms: C_16  and  C_17 
ROOT
HETATM    1  C   UNL     1     -43.085  57.542 -57.667  1.00  0.00     0.190 C 
HETATM    2  O   UNL     1     -41.959  57.793 -58.529  1.00  0.00    -0.339 OA
HETATM    3  C   UNL     1     -41.972  58.979 -59.195  1.00  0.00     0.077 A 
HETATM    4  C   UNL     1     -41.876  60.204 -58.532  1.00  0.00     0.001 A 
HETATM    5  C   UNL     1     -41.708  60.270 -57.048  1.00  0.00     0.276 C 
HETATM    6  N   UNL     1     -42.867  59.724 -56.258  1.00  0.00    -0.056 N 
HETATM    7  H   UNL     1     -43.753  60.064 -56.655  1.00  0.00     0.280 HD
HETATM    8  C   UNL     1     -42.934  58.202 -56.274  1.00  0.00     0.273 C 
HETATM    9  C   UNL     1     -42.015  58.915 -60.588  1.00  0.00     0.037 A 
HETATM   10  C   UNL     1     -42.017  60.086 -61.338  1.00  0.00     0.003 A 
HETATM   11  C   UNL     1     -41.958  61.319 -60.695  1.00  0.00     0.001 A 
HETATM   12  C   UNL     1     -41.881  61.380 -59.302  1.00  0.00     0.012 A 
ENDROOT
BRANCH   6  13
HETATM   13  C   UNL     1     -42.850  60.272 -54.826  1.00  0.00     0.337 C 
BRANCH  13  14
HETATM   14  C   UNL     1     -42.006  59.424 -53.872  1.00  0.00     0.243 C 
HETATM   15  N   UNL     1     -42.733  58.676 -52.984  1.00  0.00    -0.359 N 
HETATM   16  H   UNL     1     -43.738  58.828 -52.890  1.00  0.00     0.162 HD
HETATM   17  O   UNL     1     -40.779  59.453 -53.925  1.00  0.00    -0.272 OA
BRANCH  15  18
HETATM   18  C   UNL     1     -42.146  58.015 -51.828  1.00  0.00     0.130 C 
BRANCH  18  19
HETATM   19  C   UNL     1     -42.887  56.719 -51.491  1.00  0.00     0.098 C 
BRANCH  19  20
HETATM   20  C   UNL     1     -42.269  55.504 -52.158  1.00  0.00     0.109 A 
HETATM   21  N   UNL     1     -41.416  54.754 -51.528  1.00  0.00    -0.234 NA
HETATM   22  C   UNL     1     -40.874  53.652 -52.221  1.00  0.00     0.074 A 
HETATM   23  C   UNL     1     -41.187  53.373 -53.555  1.00  0.00     0.061 A 
HETATM   24  C   UNL     1     -39.994  52.799 -51.550  1.00  0.00     0.032 A 
HETATM   25  C   UNL     1     -42.126  54.279 -54.235  1.00  0.00     0.259 A 
HETATM   26  C   UNL     1     -40.635  52.273 -54.218  1.00  0.00     0.019 A 
HETATM   27  O   UNL     1     -42.447  54.135 -55.406  1.00  0.00    -0.267 OA
HETATM   28  N   UNL     1     -42.619  55.305 -53.467  1.00  0.00    -0.311 N 
HETATM   29  H   UNL     1     -43.269  55.916 -53.944  1.00  0.00     0.170 HD
HETATM   30  C   UNL     1     -39.757  51.433 -53.535  1.00  0.00     0.001 A 
HETATM   31  C   UNL     1     -39.437  51.696 -52.202  1.00  0.00     0.002 A 
ENDBRANCH  19  20
ENDBRANCH  18  19
ENDBRANCH  15  18
ENDBRANCH  13  14
ENDBRANCH   6  13
BRANCH   1  32
HETATM   32  C   UNL     1     -44.479  57.594 -58.306  1.00  0.00     0.006 A 
HETATM   33  C   UNL     1     -44.873  56.597 -59.228  1.00  0.00     0.077 A 
HETATM   34  C   UNL     1     -46.152  56.624 -59.802  1.00  0.00     0.037 A 
HETATM   35  C   UNL     1     -47.043  57.651 -59.496  1.00  0.00     0.003 A 
HETATM   36  C   UNL     1     -46.664  58.651 -58.613  1.00  0.00     0.001 A 
HETATM   37  C   UNL     1     -45.398  58.622 -58.023  1.00  0.00     0.012 A 
BRANCH  33  38
HETATM   38  O   UNL     1     -43.968  55.599 -59.485  1.00  0.00    -0.355 OA
HETATM   39  C   UNL     1     -44.512  54.298 -59.704  1.00  0.00     0.210 C 
ENDBRANCH  33  38
ENDBRANCH   1  32
TORSDOF 7
ENDMDL
MODEL 3
REMARK VINA RESULT:      -9.0      2.393      8.229
REMARK  7 active torsions:
REMARK  status: ('A' for Active; 'I' for Inactive)
REMARK    1  A    between atoms: O_2  and  C_3 
REMARK    2  A    between atoms: C_4  and  C_5 
REMARK    3  A    between atoms: N_10  and  C_12 
REMARK    4  A    between atoms: C_12  and  C_13 
REMARK       I    between atoms: C_13  and  N_14 
REMARK    5  A    between atoms: N_14  and  C_15 
REMARK    6  A    between atoms: C_15  and  C_16 
REMARK    7  A    between atoms: C_16  and  C_17 
ROOT
HETATM    1  C   UNL     1     -43.672  56.189 -53.564  1.00  0.00     0.190 C 
HETATM    2  O   UNL     1     -43.661  56.859 -52.288  1.00  0.00    -0.339 OA
HETATM    3  C   UNL     1     -42.571  57.631 -52.031  1.00  0.00     0.077 A 
HETATM    4  C   UNL     1     -42.291  58.787 -52.763  1.00  0.00     0.001 A 
HETATM    5  C   UNL     1     -43.209  59.260 -53.845  1.00  0.00     0.276 C 
HETATM    6  N   UNL     1     -43.332  58.326 -55.018  1.00  0.00    -0.056 N 
HETATM    7  H   UNL     1     -42.402  57.985 -55.295  1.00  0.00     0.280 HD
HETATM    8  C   UNL     1     -44.177  57.096 -54.714  1.00  0.00     0.273 C 
HETATM    9  C   UNL     1     -41.777  57.253 -50.949  1.00  0.00     0.037 A 
HETATM   10  C   UNL     1     -40.654  58.003 -50.616  1.00  0.00     0.003 A 
HETATM   11  C   UNL     1     -40.337  59.140 -51.355  1.00  0.00     0.001 A 
HETATM   12  C   UNL     1     -41.153  59.535 -52.417  1.00  0.00     0.012 A 
ENDROOT
BRANCH   6  13
HETATM   13  C   UNL     1     -43.851  59.075 -56.252  1.00  0.00     0.337 C 
BRANCH  13  14
HETATM   14  C   UNL     1     -42.782  59.942 -56.918  1.00  0.00     0.243 C 
HETATM   15  N   UNL     1     -43.262  60.805 -57.867  1.00  0.00    -0.359 N 
HETATM   16  H   UNL     1     -44.227  60.727 -58.189  1.00  0.00     0.162 HD
HETATM   17  O   UNL     1     -41.599  59.831 -56.606  1.00  0.00    -0.272 OA
BRANCH  15  18
HETATM   18  C   UNL     1     -42.406  61.520 -58.803  1.00  0.00     0.130 C 
BRANCH  18  19
HETATM   19  C   UNL     1     -42.591  61.006 -60.233  1.00  0.00     0.098 C 
BRANCH  19  20
HETATM   20  C   UNL     1     -43.167  59.603 -60.277  1.00  0.00     0.109 A 
HETATM   21  N   UNL     1     -44.450  59.402 -60.224  1.00  0.00    -0.234 NA
HETATM   22  C   UNL     1     -44.907  58.069 -60.255  1.00  0.00     0.074 A 
HETATM   23  C   UNL     1     -44.037  56.975 -60.295  1.00  0.00     0.061 A 
HETATM   24  C   UNL     1     -46.283  57.827 -60.252  1.00  0.00     0.032 A 
HETATM   25  C   UNL     1     -42.593  57.257 -60.310  1.00  0.00     0.259 A 
HETATM   26  C   UNL     1     -44.518  55.663 -60.325  1.00  0.00     0.019 A 
HETATM   27  O   UNL     1     -41.750  56.371 -60.322  1.00  0.00    -0.267 OA
HETATM   28  N   UNL     1     -42.250  58.586 -60.306  1.00  0.00    -0.311 N 
HETATM   29  H   UNL     1     -41.255  58.766 -60.324  1.00  0.00     0.170 HD
HETATM   30  C   UNL     1     -45.894  55.438 -60.319  1.00  0.00     0.001 A 
HETATM   31  C   UNL     1     -46.775  56.519 -60.283  1.00  0.00     0.002 A 
ENDBRANCH  19  20
ENDBRANCH  18  19
ENDBRANCH  15  18
ENDBRANCH  13  14
ENDBRANCH   6  13
BRANCH   1  32
HETATM   32  C   UNL     1     -42.482  55.274 -53.882  1.00  0.00     0.006 A 
HETATM   33  C   UNL     1     -42.272  54.097 -53.127  1.00  0.00     0.077 A 
HETATM   34  C   UNL     1     -41.201  53.243 -53.422  1.00  0.00     0.037 A 
HETATM   35  C   UNL     1     -40.309  53.556 -54.445  1.00  0.00     0.003 A 
HETATM   36  C   UNL     1     -40.484  54.719 -55.181  1.00  0.00     0.001 A 
HETATM   37  C   UNL     1     -41.559  55.566 -54.904  1.00  0.00     0.012 A 
BRANCH  33  38
HETATM   38  O   UNL     1     -43.186  53.823 -52.140  1.00  0.00    -0.355 OA
HETATM   39  C   UNL     1     -42.689  53.828 -50.803  1.00  0.00     0.210 C 
ENDBRANCH  33  38
ENDBRANCH   1  32
TORSDOF 7
ENDMDL
MODEL 4
REMARK VINA RESULT:      -8.7      2.831      6.045
REMARK  7 active torsions:
REMARK  status: ('A' for Active; 'I' for Inactive)
REMARK    1  A    between atoms: O_2  and  C_3 
REMARK    2  A    between atoms: C_4  and  C_5 
REMARK    3  A    between atoms: N_10  and  C_12 
REMARK    4  A    between atoms: C_12  and  C_13 
REMARK       I    between atoms: C_13  and  N_14 
REMARK    5  A    between atoms: N_14  and  C_15 
REMARK    6  A    between atoms: C_15  and  C_16 
REMARK    7  A    between atoms: C_16  and  C_17 
ROOT
HETATM    1  C   UNL     1     -44.421  57.447 -52.486  1.00  0.00     0.190 C 
HETATM    2  O   UNL     1     -45.378  58.401 -51.986  1.00  0.00    -0.339 OA
HETATM    3  C   UNL     1     -45.063  59.711 -52.169  1.00  0.00     0.077 A 
HETATM    4  C   UNL     1     -44.989  60.287 -53.439  1.00  0.00     0.001 A 
HETATM    5  C   UNL     1     -45.300  59.494 -54.669  1.00  0.00     0.276 C 
HETATM    6  N   UNL     1     -44.360  58.348 -54.932  1.00  0.00    -0.056 N 
HETATM    7  H   UNL     1     -43.387  58.652 -54.791  1.00  0.00     0.280 HD
HETATM    8  C   UNL     1     -44.588  57.164 -54.000  1.00  0.00     0.273 C 
HETATM    9  C   UNL     1     -44.885  60.479 -51.018  1.00  0.00     0.037 A 
HETATM   10  C   UNL     1     -44.575  61.831 -51.126  1.00  0.00     0.003 A 
HETATM   11  C   UNL     1     -44.462  62.416 -52.384  1.00  0.00     0.001 A 
HETATM   12  C   UNL     1     -44.675  61.653 -53.534  1.00  0.00     0.012 A 
ENDROOT
BRANCH   6  13
HETATM   13  C   UNL     1     -44.424  57.925 -56.405  1.00  0.00     0.337 C 
BRANCH  13  14
HETATM   14  C   UNL     1     -43.307  56.956 -56.796  1.00  0.00     0.243 C 
HETATM   15  N   UNL     1     -43.233  55.832 -56.017  1.00  0.00    -0.359 N 
HETATM   16  H   UNL     1     -43.783  55.766 -55.160  1.00  0.00     0.162 HD
HETATM   17  O   UNL     1     -42.553  57.212 -57.731  1.00  0.00    -0.272 OA
BRANCH  15  18
HETATM   18  C   UNL     1     -42.099  54.920 -56.037  1.00  0.00     0.130 C 
BRANCH  18  19
HETATM   19  C   UNL     1     -41.063  55.293 -54.973  1.00  0.00     0.098 C 
BRANCH  19  20
HETATM   20  C   UNL     1     -40.657  54.109 -54.115  1.00  0.00     0.109 A 
HETATM   21  N   UNL     1     -40.527  52.922 -54.627  1.00  0.00    -0.234 NA
HETATM   22  C   UNL     1     -40.161  51.871 -53.762  1.00  0.00     0.074 A 
HETATM   23  C   UNL     1     -39.981  52.054 -52.388  1.00  0.00     0.061 A 
HETATM   24  C   UNL     1     -39.964  50.595 -54.297  1.00  0.00     0.032 A 
HETATM   25  C   UNL     1     -40.183  53.410 -51.852  1.00  0.00     0.259 A 
HETATM   26  C   UNL     1     -39.618  50.993 -51.553  1.00  0.00     0.019 A 
HETATM   27  O   UNL     1     -40.071  53.670 -50.662  1.00  0.00    -0.267 OA
HETATM   28  N   UNL     1     -40.509  54.369 -52.778  1.00  0.00    -0.311 N 
HETATM   29  H   UNL     1     -40.638  55.298 -52.398  1.00  0.00     0.170 HD
HETATM   30  C   UNL     1     -39.428  49.725 -52.101  1.00  0.00     0.001 A 
HETATM   31  C   UNL     1     -39.600  49.528 -53.471  1.00  0.00     0.002 A 
ENDBRANCH  19  20
ENDBRANCH  18  19
ENDBRANCH  15  18
ENDBRANCH  13  14
ENDBRANCH   6  13
BRANCH   1  32
HETATM   32  C   UNL     1     -42.983  57.561 -51.962  1.00  0.00     0.006 A 
HETATM   33  C   UNL     1     -42.569  56.789 -50.853  1.00  0.00     0.077 A 
HETATM   34  C   UNL     1     -41.252  56.871 -50.380  1.00  0.00     0.037 A 
HETATM   35  C   UNL     1     -40.339  57.737 -50.976  1.00  0.00     0.003 A 
HETATM   36  C   UNL     1     -40.734  58.522 -52.050  1.00  0.00     0.001 A 
HETATM   37  C   UNL     1     -42.039  58.433 -52.539  1.00  0.00     0.012 A 
BRANCH  33  38
HETATM   38  O   UNL     1     -43.499  55.939 -50.309  1.00  0.00    -0.355 OA
HETATM   39  C   UNL     1     -43.549  54.624 -50.861  1.00  0.00     0.210 C 
ENDBRANCH  33  38
ENDBRANCH   1  32
TORSDOF 7
ENDMDL
MODEL 5
REMARK VINA RESULT:      -8.5      2.440      4.195
REMARK  7 active torsions:
REMARK  status: ('A' for Active; 'I' for Inactive)
REMARK    1  A    between atoms: O_2  and  C_3 
REMARK    2  A    between atoms: C_4  and  C_5 
REMARK    3  A    between atoms: N_10  and  C_12 
REMARK    4  A    between atoms: C_12  and  C_13 
REMARK       I    between atoms: C_13  and  N_14 
REMARK    5  A    between atoms: N_14  and  C_15 
REMARK    6  A    between atoms: C_15  and  C_16 
REMARK    7  A    between atoms: C_16  and  C_17 
ROOT
HETATM    1  C   UNL     1     -45.136  59.972 -58.553  1.00  0.00     0.190 C 
HETATM    2  O   UNL     1     -45.698  58.647 -58.483  1.00  0.00    -0.339 OA
HETATM    3  C   UNL     1     -44.808  57.632 -58.309  1.00  0.00     0.077 A 
HETATM    4  C   UNL     1     -44.058  57.494 -57.140  1.00  0.00     0.001 A 
HETATM    5  C   UNL     1     -44.230  58.439 -55.993  1.00  0.00     0.276 C 
HETATM    6  N   UNL     1     -43.848  59.864 -56.289  1.00  0.00    -0.056 N 
HETATM    7  H   UNL     1     -42.955  59.889 -56.801  1.00  0.00     0.280 HD
HETATM    8  C   UNL     1     -44.871  60.587 -57.157  1.00  0.00     0.273 C 
HETATM    9  C   UNL     1     -44.731  56.686 -59.331  1.00  0.00     0.037 A 
HETATM   10  C   UNL     1     -43.854  55.612 -59.219  1.00  0.00     0.003 A 
HETATM   11  C   UNL     1     -43.071  55.475 -58.076  1.00  0.00     0.001 A 
HETATM   12  C   UNL     1     -43.176  56.405 -57.039  1.00  0.00     0.012 A 
ENDROOT
BRANCH   6  13
HETATM   13  C   UNL     1     -43.570  60.630 -54.990  1.00  0.00     0.337 C 
BRANCH  13  14
HETATM   14  C   UNL     1     -42.381  60.068 -54.209  1.00  0.00     0.243 C 
HETATM   15  N   UNL     1     -42.604  59.920 -52.865  1.00  0.00    -0.359 N 
HETATM   16  H   UNL     1     -43.442  60.317 -52.439  1.00  0.00     0.162 HD
HETATM   17  O   UNL     1     -41.327  59.798 -54.778  1.00  0.00    -0.272 OA
BRANCH  15  18
HETATM   18  C   UNL     1     -41.544  59.662 -51.902  1.00  0.00     0.130 C 
BRANCH  18  19
HETATM   19  C   UNL     1     -41.901  58.497 -50.977  1.00  0.00     0.098 C 
BRANCH  19  20
HETATM   20  C   UNL     1     -41.820  57.152 -51.676  1.00  0.00     0.109 A 
HETATM   21  N   UNL     1     -41.158  57.011 -52.785  1.00  0.00    -0.234 NA
HETATM   22  C   UNL     1     -41.142  55.734 -53.382  1.00  0.00     0.074 A 
HETATM   23  C   UNL     1     -41.841  54.645 -52.851  1.00  0.00     0.061 A 
HETATM   24  C   UNL     1     -40.395  55.543 -54.547  1.00  0.00     0.032 A 
HETATM   25  C   UNL     1     -42.609  54.870 -51.616  1.00  0.00     0.259 A 
HETATM   26  C   UNL     1     -41.807  53.390 -53.464  1.00  0.00     0.019 A 
HETATM   27  O   UNL     1     -43.272  53.990 -51.085  1.00  0.00    -0.267 OA
HETATM   28  N   UNL     1     -42.539  56.139 -51.099  1.00  0.00    -0.311 N 
HETATM   29  H   UNL     1     -43.065  56.278 -50.246  1.00  0.00     0.170 HD
HETATM   30  C   UNL     1     -41.059  53.215 -54.627  1.00  0.00     0.001 A 
HETATM   31  C   UNL     1     -40.354  54.291 -55.167  1.00  0.00     0.002 A 
ENDBRANCH  19  20
ENDBRANCH  18  19
ENDBRANCH  15  18
ENDBRANCH  13  14
ENDBRANCH   6  13
BRANCH   1  32
HETATM   32  C   UNL     1     -44.071  60.221 -59.629  1.00  0.00     0.006 A 
HETATM   33  C   UNL     1     -44.439  60.262 -60.994  1.00  0.00     0.077 A 
HETATM   34  C   UNL     1     -43.476  60.511 -61.983  1.00  0.00     0.037 A 
HETATM   35  C   UNL     1     -42.139  60.691 -61.639  1.00  0.00     0.003 A 
HETATM   36  C   UNL     1     -41.755  60.629 -60.307  1.00  0.00     0.001 A 
HETATM   37  C   UNL     1     -42.711  60.400 -59.314  1.00  0.00     0.012 A 
BRANCH  33  38
HETATM   38  O   UNL     1     -45.769  60.095 -61.282  1.00  0.00    -0.355 OA
HETATM   39  C   UNL     1     -46.433  61.216 -61.864  1.00  0.00     0.210 C 
ENDBRANCH  33  38
ENDBRANCH   1  32
TORSDOF 7
ENDMDL
MODEL 6
REMARK VINA RESULT:      -8.4      2.024      2.782
REMARK  7 active torsions:
REMARK  status: ('A' for Active; 'I' for Inactive)
REMARK    1  A    between atoms: O_2  and  C_3 
REMARK    2  A    between atoms: C_4  and  C_5 
REMARK    3  A    between atoms: N_10  and  C_12 
REMARK    4  A    between atoms: C_12  and  C_13 
REMARK       I    between atoms: C_13  and  N_14 
REMARK    5  A    between atoms: N_14  and  C_15 
REMARK    6  A    between atoms: C_15  and  C_16 
REMARK    7  A    between atoms: C_16  and  C_17 
ROOT
HETATM    1  C   UNL     1     -43.727  57.455 -56.544  1.00  0.00     0.190 C 
HETATM    2  O   UNL     1     -42.416  58.014 -56.758  1.00  0.00    -0.339 OA
HETATM    3  C   UNL     1     -42.383  59.312 -57.165  1.00  0.00     0.077 A 
HETATM    4  C   UNL     1     -42.815  60.358 -56.348  1.00  0.00     0.001 A 
HETATM    5  C   UNL     1     -43.299  60.105 -54.956  1.00  0.00     0.276 C 
HETATM    6  N   UNL     1     -44.550  59.272 -54.867  1.00  0.00    -0.056 N 
HETATM    7  H   UNL     1     -45.238  59.596 -55.561  1.00  0.00     0.280 HD
HETATM    8  C   UNL     1     -44.305  57.795 -55.148  1.00  0.00     0.273 C 
HETATM    9  C   UNL     1     -41.826  59.560 -58.420  1.00  0.00     0.037 A 
HETATM   10  C   UNL     1     -41.744  60.863 -58.898  1.00  0.00     0.003 A 
HETATM   11  C   UNL     1     -42.202  61.918 -58.114  1.00  0.00     0.001 A 
HETATM   12  C   UNL     1     -42.728  61.670 -56.844  1.00  0.00     0.012 A 
ENDROOT
BRANCH   6  13
HETATM   13  C   UNL     1     -45.241  59.481 -53.513  1.00  0.00     0.337 C 
BRANCH  13  14
HETATM   14  C   UNL     1     -44.403  58.988 -52.333  1.00  0.00     0.243 C 
HETATM   15  N   UNL     1     -43.443  59.869 -51.911  1.00  0.00    -0.359 N 
HETATM   16  H   UNL     1     -43.229  60.698 -52.468  1.00  0.00     0.162 HD
HETATM   17  O   UNL     1     -44.600  57.879 -51.843  1.00  0.00    -0.272 OA
BRANCH  15  18
HETATM   18  C   UNL     1     -42.371  59.506 -50.996  1.00  0.00     0.130 C 
BRANCH  18  19
HETATM   19  C   UNL     1     -41.120  59.054 -51.753  1.00  0.00     0.098 C 
BRANCH  19  20
HETATM   20  C   UNL     1     -41.158  57.581 -52.115  1.00  0.00     0.109 A 
HETATM   21  N   UNL     1     -40.808  57.170 -53.296  1.00  0.00    -0.234 NA
HETATM   22  C   UNL     1     -40.885  55.788 -53.560  1.00  0.00     0.074 A 
HETATM   23  C   UNL     1     -41.362  54.867 -52.622  1.00  0.00     0.061 A 
HETATM   24  C   UNL     1     -40.465  55.314 -54.806  1.00  0.00     0.032 A 
HETATM   25  C   UNL     1     -41.786  55.391 -51.314  1.00  0.00     0.259 A 
HETATM   26  C   UNL     1     -41.428  53.501 -52.910  1.00  0.00     0.019 A 
HETATM   27  O   UNL     1     -42.238  54.672 -50.433  1.00  0.00    -0.267 OA
HETATM   28  N   UNL     1     -41.646  56.745 -51.145  1.00  0.00    -0.311 N 
HETATM   29  H   UNL     1     -41.934  57.091 -50.239  1.00  0.00     0.170 HD
HETATM   30  C   UNL     1     -41.007  53.044 -54.158  1.00  0.00     0.001 A 
HETATM   31  C   UNL     1     -40.526  53.950 -55.104  1.00  0.00     0.002 A 
ENDBRANCH  19  20
ENDBRANCH  18  19
ENDBRANCH  15  18
ENDBRANCH  13  14
ENDBRANCH   6  13
BRANCH   1  32
HETATM   32  C   UNL     1     -44.706  57.500 -57.724  1.00  0.00     0.006 A 
HETATM   33  C   UNL     1     -44.461  56.721 -58.878  1.00  0.00     0.077 A 
HETATM   34  C   UNL     1     -45.361  56.739 -59.954  1.00  0.00     0.037 A 
HETATM   35  C   UNL     1     -46.493  57.549 -59.914  1.00  0.00     0.003 A 
HETATM   36  C   UNL     1     -46.737  58.339 -58.801  1.00  0.00     0.001 A 
HETATM   37  C   UNL     1     -45.855  58.313 -57.718  1.00  0.00     0.012 A 
BRANCH  33  38
HETATM   38  O   UNL     1     -43.342  55.928 -58.864  1.00  0.00    -0.355 OA
HETATM   39  C   UNL     1     -42.363  56.204 -59.865  1.00  0.00     0.210 C 
ENDBRANCH  33  38
ENDBRANCH   1  32
TORSDOF 7
ENDMDL
MODEL 7
REMARK VINA RESULT:      -8.1      1.993      3.430
REMARK  7 active torsions:
REMARK  status: ('A' for Active; 'I' for Inactive)
REMARK    1  A    between atoms: O_2  and  C_3 
REMARK    2  A    between atoms: C_4  and  C_5 
REMARK    3  A    between atoms: N_10  and  C_12 
REMARK    4  A    between atoms: C_12  and  C_13 
REMARK       I    between atoms: C_13  and  N_14 
REMARK    5  A    between atoms: N_14  and  C_15 
REMARK    6  A    between atoms: C_15  and  C_16 
REMARK    7  A    between atoms: C_16  and  C_17 
ROOT
HETATM    1  C   UNL     1     -43.412  60.140 -58.039  1.00  0.00     0.190 C 
HETATM    2  O   UNL     1     -44.202  61.005 -58.878  1.00  0.00    -0.339 OA
HETATM    3  C   UNL     1     -45.446  60.555 -59.194  1.00  0.00     0.077 A 
HETATM    4  C   UNL     1     -46.445  60.397 -58.231  1.00  0.00     0.001 A 
HETATM    5  C   UNL     1     -46.206  60.761 -56.800  1.00  0.00     0.276 C 
HETATM    6  N   UNL     1     -45.153  59.938 -56.109  1.00  0.00    -0.056 N 
HETATM    7  H   UNL     1     -45.281  58.942 -56.334  1.00  0.00     0.280 HD
HETATM    8  C   UNL     1     -43.736  60.305 -56.533  1.00  0.00     0.273 C 
HETATM    9  C   UNL     1     -45.704  60.323 -60.545  1.00  0.00     0.037 A 
HETATM   10  C   UNL     1     -46.959  59.875 -60.946  1.00  0.00     0.003 A 
HETATM   11  C   UNL     1     -47.958  59.677 -59.997  1.00  0.00     0.001 A 
HETATM   12  C   UNL     1     -47.707  59.942 -58.649  1.00  0.00     0.012 A 
ENDROOT
BRANCH   6  13
HETATM   13  C   UNL     1     -45.322  60.014 -54.586  1.00  0.00     0.337 C 
BRANCH  13  14
HETATM   14  C   UNL     1     -44.532  58.935 -53.844  1.00  0.00     0.243 C 
HETATM   15  N   UNL     1     -44.730  57.663 -54.313  1.00  0.00    -0.359 N 
HETATM   16  H   UNL     1     -45.472  57.477 -54.988  1.00  0.00     0.162 HD
HETATM   17  O   UNL     1     -43.802  59.228 -52.901  1.00  0.00    -0.272 OA
BRANCH  15  18
HETATM   18  C   UNL     1     -44.298  56.471 -53.597  1.00  0.00     0.130 C 
BRANCH  18  19
HETATM   19  C   UNL     1     -43.585  55.489 -54.529  1.00  0.00     0.098 C 
BRANCH  19  20
HETATM   20  C   UNL     1     -42.550  54.646 -53.805  1.00  0.00     0.109 A 
HETATM   21  N   UNL     1     -42.013  53.608 -54.374  1.00  0.00    -0.234 NA
HETATM   22  C   UNL     1     -41.071  52.868 -53.631  1.00  0.00     0.074 A 
HETATM   23  C   UNL     1     -40.737  53.183 -52.310  1.00  0.00     0.061 A 
HETATM   24  C   UNL     1     -40.440  51.779 -54.237  1.00  0.00     0.032 A 
HETATM   25  C   UNL     1     -41.407  54.343 -51.700  1.00  0.00     0.259 A 
HETATM   26  C   UNL     1     -39.799  52.431 -51.597  1.00  0.00     0.019 A 
HETATM   27  O   UNL     1     -41.201  54.687 -50.544  1.00  0.00    -0.267 OA
HETATM   28  N   UNL     1     -42.285  55.014 -52.513  1.00  0.00    -0.311 N 
HETATM   29  H   UNL     1     -42.733  55.813 -52.084  1.00  0.00     0.170 HD
HETATM   30  C   UNL     1     -39.179  51.346 -52.215  1.00  0.00     0.001 A 
HETATM   31  C   UNL     1     -39.499  51.021 -53.534  1.00  0.00     0.002 A 
ENDBRANCH  19  20
ENDBRANCH  18  19
ENDBRANCH  15  18
ENDBRANCH  13  14
ENDBRANCH   6  13
BRANCH   1  32
HETATM   32  C   UNL     1     -43.175  58.710 -58.540  1.00  0.00     0.006 A 
HETATM   33  C   UNL     1     -42.278  58.472 -59.606  1.00  0.00     0.077 A 
HETATM   34  C   UNL     1     -42.038  57.166 -60.058  1.00  0.00     0.037 A 
HETATM   35  C   UNL     1     -42.703  56.086 -59.483  1.00  0.00     0.003 A 
HETATM   36  C   UNL     1     -43.606  56.302 -58.452  1.00  0.00     0.001 A 
HETATM   37  C   UNL     1     -43.837  57.598 -57.985  1.00  0.00     0.012 A 
BRANCH  33  38
HETATM   38  O   UNL     1     -41.635  59.565 -60.130  1.00  0.00    -0.355 OA
HETATM   39  C   UNL     1     -42.026  59.955 -61.446  1.00  0.00     0.210 C 
ENDBRANCH  33  38
ENDBRANCH   1  32
TORSDOF 7
ENDMDL
MODEL 8
REMARK VINA RESULT:      -8.0      1.700      2.360
REMARK  7 active torsions:
REMARK  status: ('A' for Active; 'I' for Inactive)
REMARK    1  A    between atoms: O_2  and  C_3 
REMARK    2  A    between atoms: C_4  and  C_5 
REMARK    3  A    between atoms: N_10  and  C_12 
REMARK    4  A    between atoms: C_12  and  C_13 
REMARK       I    between atoms: C_13  and  N_14 
REMARK    5  A    between atoms: N_14  and  C_15 
REMARK    6  A    between atoms: C_15  and  C_16 
REMARK    7  A    between atoms: C_16  and  C_17 
ROOT
HETATM    1  C   UNL     1     -43.446  58.171 -56.160  1.00  0.00     0.190 C 
HETATM    2  O   UNL     1     -42.524  59.219 -56.516  1.00  0.00    -0.339 OA
HETATM    3  C   UNL     1     -43.061  60.461 -56.662  1.00  0.00     0.077 A 
HETATM    4  C   UNL     1     -43.612  61.162 -55.588  1.00  0.00     0.001 A 
HETATM    5  C   UNL     1     -43.598  60.595 -54.204  1.00  0.00     0.276 C 
HETATM    6  N   UNL     1     -44.402  59.335 -54.032  1.00  0.00    -0.056 N 
HETATM    7  H   UNL     1     -45.313  59.433 -54.500  1.00  0.00     0.280 HD
HETATM    8  C   UNL     1     -43.728  58.111 -54.638  1.00  0.00     0.273 C 
HETATM    9  C   UNL     1     -42.971  61.036 -57.929  1.00  0.00     0.037 A 
HETATM   10  C   UNL     1     -43.485  62.310 -58.152  1.00  0.00     0.003 A 
HETATM   11  C   UNL     1     -44.071  63.012 -57.102  1.00  0.00     0.001 A 
HETATM   12  C   UNL     1     -44.128  62.447 -55.826  1.00  0.00     0.012 A 
ENDROOT
BRANCH   6  13
HETATM   13  C   UNL     1     -44.749  59.113 -52.555  1.00  0.00     0.337 C 
BRANCH  13  14
HETATM   14  C   UNL     1     -44.026  57.910 -51.946  1.00  0.00     0.243 C 
HETATM   15  N   UNL     1     -42.693  58.111 -51.706  1.00  0.00    -0.359 N 
HETATM   16  H   UNL     1     -42.227  58.944 -52.070  1.00  0.00     0.162 HD
HETATM   17  O   UNL     1     -44.629  56.864 -51.720  1.00  0.00    -0.272 OA
BRANCH  15  18
HETATM   18  C   UNL     1     -41.767  57.035 -51.388  1.00  0.00     0.130 C 
BRANCH  18  19
HETATM   19  C   UNL     1     -41.308  56.302 -52.651  1.00  0.00     0.098 C 
BRANCH  19  20
HETATM   20  C   UNL     1     -40.872  54.875 -52.371  1.00  0.00     0.109 A 
HETATM   21  N   UNL     1     -40.708  54.022 -53.337  1.00  0.00    -0.234 NA
HETATM   22  C   UNL     1     -40.315  52.712 -52.994  1.00  0.00     0.074 A 
HETATM   23  C   UNL     1     -40.145  52.298 -51.670  1.00  0.00     0.061 A 
HETATM   24  C   UNL     1     -40.081  51.788 -54.017  1.00  0.00     0.032 A 
HETATM   25  C   UNL     1     -40.386  53.293 -50.612  1.00  0.00     0.259 A 
HETATM   26  C   UNL     1     -39.756  50.992 -51.359  1.00  0.00     0.019 A 
HETATM   27  O   UNL     1     -40.286  53.025 -49.423  1.00  0.00    -0.267 OA
HETATM   28  N   UNL     1     -40.736  54.546 -51.048  1.00  0.00    -0.311 N 
HETATM   29  H   UNL     1     -40.891  55.222 -50.312  1.00  0.00     0.170 HD
HETATM   30  C   UNL     1     -39.528  50.081 -52.390  1.00  0.00     0.001 A 
HETATM   31  C   UNL     1     -39.690  50.480 -53.717  1.00  0.00     0.002 A 
ENDBRANCH  19  20
ENDBRANCH  18  19
ENDBRANCH  15  18
ENDBRANCH  13  14
ENDBRANCH   6  13
BRANCH   1  32
HETATM   32  C   UNL     1     -44.646  57.952 -57.091  1.00  0.00     0.006 A 
HETATM   33  C   UNL     1     -44.466  57.314 -58.340  1.00  0.00     0.077 A 
HETATM   34  C   UNL     1     -45.559  57.090 -59.189  1.00  0.00     0.037 A 
HETATM   35  C   UNL     1     -46.834  57.519 -58.829  1.00  0.00     0.003 A 
HETATM   36  C   UNL     1     -47.026  58.170 -57.619  1.00  0.00     0.001 A 
HETATM   37  C   UNL     1     -45.945  58.381 -56.759  1.00  0.00     0.012 A 
BRANCH  33  38
HETATM   38  O   UNL     1     -43.196  56.894 -58.644  1.00  0.00    -0.355 OA
HETATM   39  C   UNL     1     -43.073  56.015 -59.761  1.00  0.00     0.210 C 
ENDBRANCH  33  38
ENDBRANCH   1  32
TORSDOF 7
ENDMDL
MODEL 9
REMARK VINA RESULT:      -8.0      2.077      4.361
REMARK  7 active torsions:
REMARK  status: ('A' for Active; 'I' for Inactive)
REMARK    1  A    between atoms: O_2  and  C_3 
REMARK    2  A    between atoms: C_4  and  C_5 
REMARK    3  A    between atoms: N_10  and  C_12 
REMARK    4  A    between atoms: C_12  and  C_13 
REMARK       I    between atoms: C_13  and  N_14 
REMARK    5  A    between atoms: N_14  and  C_15 
REMARK    6  A    between atoms: C_15  and  C_16 
REMARK    7  A    between atoms: C_16  and  C_17 
ROOT
HETATM    1  C   UNL     1     -44.200  59.997 -57.999  1.00  0.00     0.190 C 
HETATM    2  O   UNL     1     -45.149  58.921 -58.128  1.00  0.00    -0.339 OA
HETATM    3  C   UNL     1     -44.641  57.723 -58.522  1.00  0.00     0.077 A 
HETATM    4  C   UNL     1     -43.757  56.992 -57.725  1.00  0.00     0.001 A 
HETATM    5  C   UNL     1     -43.358  57.476 -56.368  1.00  0.00     0.276 C 
HETATM    6  N   UNL     1     -42.586  58.768 -56.362  1.00  0.00    -0.056 N 
HETATM    7  H   UNL     1     -41.863  58.749 -57.094  1.00  0.00     0.280 HD
HETATM    8  C   UNL     1     -43.459  59.985 -56.638  1.00  0.00     0.273 C 
HETATM    9  C   UNL     1     -45.101  57.218 -59.738  1.00  0.00     0.037 A 
HETATM   10  C   UNL     1     -44.637  55.991 -60.201  1.00  0.00     0.003 A 
HETATM   11  C   UNL     1     -43.728  55.263 -59.438  1.00  0.00     0.001 A 
HETATM   12  C   UNL     1     -43.295  55.755 -58.205  1.00  0.00     0.012 A 
ENDROOT
BRANCH   6  13
HETATM   13  C   UNL     1     -41.803  58.922 -55.052  1.00  0.00     0.337 C 
BRANCH  13  14
HETATM   14  C   UNL     1     -42.709  59.049 -53.826  1.00  0.00     0.243 C 
HETATM   15  N   UNL     1     -42.303  58.316 -52.742  1.00  0.00    -0.359 N 
HETATM   16  H   UNL     1     -41.553  57.632 -52.840  1.00  0.00     0.162 HD
HETATM   17  O   UNL     1     -43.716  59.752 -53.860  1.00  0.00    -0.272 OA
BRANCH  15  18
HETATM   18  C   UNL     1     -43.144  58.078 -51.579  1.00  0.00     0.130 C 
BRANCH  18  19
HETATM   19  C   UNL     1     -44.003  56.823 -51.759  1.00  0.00     0.098 C 
BRANCH  19  20
HETATM   20  C   UNL     1     -43.222  55.664 -52.351  1.00  0.00     0.109 A 
HETATM   21  N   UNL     1     -42.208  55.147 -51.723  1.00  0.00    -0.234 NA
HETATM   22  C   UNL     1     -41.526  54.083 -52.345  1.00  0.00     0.074 A 
HETATM   23  C   UNL     1     -41.870  53.604 -53.613  1.00  0.00     0.061 A 
HETATM   24  C   UNL     1     -40.464  53.475 -51.669  1.00  0.00     0.032 A 
HETATM   25  C   UNL     1     -43.000  54.253 -54.298  1.00  0.00     0.259 A 
HETATM   26  C   UNL     1     -41.175  52.546 -54.206  1.00  0.00     0.019 A 
HETATM   27  O   UNL     1     -43.366  53.924 -55.418  1.00  0.00    -0.267 OA
HETATM   28  N   UNL     1     -43.616  55.260 -53.599  1.00  0.00    -0.311 N 
HETATM   29  H   UNL     1     -44.395  55.692 -54.078  1.00  0.00     0.170 HD
HETATM   30  C   UNL     1     -40.118  51.952 -53.520  1.00  0.00     0.001 A 
HETATM   31  C   UNL     1     -39.764  52.416 -52.252  1.00  0.00     0.002 A 
ENDBRANCH  19  20
ENDBRANCH  18  19
ENDBRANCH  15  18
ENDBRANCH  13  14
ENDBRANCH   6  13
BRANCH   1  32
HETATM   32  C   UNL     1     -43.360  60.338 -59.237  1.00  0.00     0.006 A 
HETATM   33  C   UNL     1     -43.402  61.641 -59.785  1.00  0.00     0.077 A 
HETATM   34  C   UNL     1     -42.622  61.968 -60.903  1.00  0.00     0.037 A 
HETATM   35  C   UNL     1     -41.818  61.007 -61.510  1.00  0.00     0.003 A 
HETATM   36  C   UNL     1     -41.783  59.717 -61.002  1.00  0.00     0.001 A 
HETATM   37  C   UNL     1     -42.543  59.387 -59.877  1.00  0.00     0.012 A 
BRANCH  33  38
HETATM   38  O   UNL     1     -44.196  62.557 -59.144  1.00  0.00    -0.355 OA
HETATM   39  C   UNL     1     -43.528  63.685 -58.581  1.00  0.00     0.210 C 
ENDBRANCH  33  38
ENDBRANCH   1  32
TORSDOF 7
ENDMDL
MODEL 10
REMARK VINA RESULT:      -7.9      3.351      7.975
REMARK  7 active torsions:
REMARK  status: ('A' for Active; 'I' for Inactive)
REMARK    1  A    between atoms: O_2  and  C_3 
REMARK    2  A    between atoms: C_4  and  C_5 
REMARK    3  A    between atoms: N_10  and  C_12 
REMARK    4  A    between atoms: C_12  and  C_13 
REMARK       I    between atoms: C_13  and  N_14 
REMARK    5  A    between atoms: N_14  and  C_15 
REMARK    6  A    between atoms: C_15  and  C_16 
REMARK    7  A    between atoms: C_16  and  C_17 
ROOT
HETATM    1  C   UNL     1     -44.692  58.105 -51.771  1.00  0.00     0.190 C 
HETATM    2  O   UNL     1     -45.680  58.565 -50.828  1.00  0.00    -0.339 OA
HETATM    3  C   UNL     1     -45.565  59.861 -50.430  1.00  0.00     0.077 A 
HETATM    4  C   UNL     1     -45.750  60.928 -51.311  1.00  0.00     0.001 A 
HETATM    5  C   UNL     1     -46.132  60.697 -52.739  1.00  0.00     0.276 C 
HETATM    6  N   UNL     1     -45.102  59.962 -53.554  1.00  0.00    -0.056 N 
HETATM    7  H   UNL     1     -44.166  60.345 -53.365  1.00  0.00     0.280 HD
HETATM    8  C   UNL     1     -45.040  58.474 -53.234  1.00  0.00     0.273 C 
HETATM    9  C   UNL     1     -45.321  60.079 -49.074  1.00  0.00     0.037 A 
HETATM   10  C   UNL     1     -45.205  61.378 -48.589  1.00  0.00     0.003 A 
HETATM   11  C   UNL     1     -45.351  62.456 -49.458  1.00  0.00     0.001 A 
HETATM   12  C   UNL     1     -45.629  62.235 -50.809  1.00  0.00     0.012 A 
ENDROOT
BRANCH   6  13
HETATM   13  C   UNL     1     -45.324  60.207 -55.051  1.00  0.00     0.337 C 
BRANCH  13  14
HETATM   14  C   UNL     1     -44.129  60.880 -55.730  1.00  0.00     0.243 C 
HETATM   15  N   UNL     1     -43.906  60.473 -57.018  1.00  0.00    -0.359 N 
HETATM   16  H   UNL     1     -44.410  59.671 -57.396  1.00  0.00     0.162 HD
HETATM   17  O   UNL     1     -43.446  61.702 -55.126  1.00  0.00    -0.272 OA
BRANCH  15  18
HETATM   18  C   UNL     1     -42.684  60.774 -57.751  1.00  0.00     0.130 C 
BRANCH  18  19
HETATM   19  C   UNL     1     -42.198  59.561 -58.548  1.00  0.00     0.098 C 
BRANCH  19  20
HETATM   20  C   UNL     1     -42.426  58.252 -57.813  1.00  0.00     0.109 A 
HETATM   21  N   UNL     1     -42.027  58.093 -56.587  1.00  0.00    -0.234 NA
HETATM   22  C   UNL     1     -42.261  56.844 -55.978  1.00  0.00     0.074 A 
HETATM   23  C   UNL     1     -42.857  55.775 -56.655  1.00  0.00     0.061 A 
HETATM   24  C   UNL     1     -41.890  56.663 -54.643  1.00  0.00     0.032 A 
HETATM   25  C   UNL     1     -43.251  55.995 -58.056  1.00  0.00     0.259 A 
HETATM   26  C   UNL     1     -43.078  54.546 -56.026  1.00  0.00     0.019 A 
HETATM   27  O   UNL     1     -43.759  55.119 -58.741  1.00  0.00    -0.267 OA
HETATM   28  N   UNL     1     -43.006  57.253 -58.548  1.00  0.00    -0.311 N 
HETATM   29  H   UNL     1     -43.288  57.393 -59.509  1.00  0.00     0.170 HD
HETATM   30  C   UNL     1     -42.699  54.381 -54.695  1.00  0.00     0.001 A 
HETATM   31  C   UNL     1     -42.107  55.439 -54.004  1.00  0.00     0.002 A 
ENDBRANCH  19  20
ENDBRANCH  18  19
ENDBRANCH  15  18
ENDBRANCH  13  14
ENDBRANCH   6  13
BRANCH   1  32
HETATM   32  C   UNL     1     -43.220  58.238 -51.358  1.00  0.00     0.006 A 
HETATM   33  C   UNL     1     -42.516  57.113 -50.871  1.00  0.00     0.077 A 
HETATM   34  C   UNL     1     -41.165  57.220 -50.512  1.00  0.00     0.037 A 
HETATM   35  C   UNL     1     -40.504  58.443 -50.600  1.00  0.00     0.003 A 
HETATM   36  C   UNL     1     -41.185  59.563 -51.052  1.00  0.00     0.001 A 
HETATM   37  C   UNL     1     -42.527  59.462 -51.429  1.00  0.00     0.012 A 
BRANCH  33  38
HETATM   38  O   UNL     1     -43.204  55.928 -50.817  1.00  0.00    -0.355 OA
HETATM   39  C   UNL     1     -42.577  54.869 -50.095  1.00  0.00     0.210 C 
ENDBRANCH  33  38
ENDBRANCH   1  32
TORSDOF 7
ENDMDL
