MODEL 1
REMARK VINA RESULT:      -8.1      0.000      0.000
REMARK  4 active torsions:
REMARK  status: ('A' for Active; 'I' for Inactive)
REMARK    1  A    between atoms: C_4  and  C_5 
REMARK    2  A    between atoms: C_8  and  N_9 
REMARK       I    between atoms: N_9  and  C_10 
REMARK       I    between atoms: C_10  and  N_11 
REMARK    3  A    between atoms: N_11  and  C_12 
REMARK    4  A    between atoms: C_12  and  C_13 
ROOT
HETATM    1  C   UNL     1     -40.993  53.490 -53.935  1.00  0.00     0.089 A 
HETATM    2  N   UNL     1     -40.198  54.239 -54.732  1.00  0.00    -0.148 NA
HETATM    3  N   UNL     1     -40.634  55.456 -55.221  1.00  0.00    -0.131 NA
HETATM    4  C   UNL     1     -41.854  55.923 -54.900  1.00  0.00     0.153 A 
HETATM    5  C   UNL     1     -42.690  55.188 -54.075  1.00  0.00     0.055 A 
HETATM    6  C   UNL     1     -42.254  53.956 -53.586  1.00  0.00     0.038 A 
ENDROOT
BRANCH   4   7
HETATM    7  N   UNL     1     -42.327  57.139 -55.392  1.00  0.00    -0.292 N 
HETATM    8  C   UNL     1     -42.540  57.534 -56.673  1.00  0.00     0.322 C 
HETATM    9  N   UNL     1     -42.208  56.676 -57.671  1.00  0.00    -0.337 N 
HETATM   10  O   UNL     1     -43.005  58.654 -56.877  1.00  0.00    -0.247 OA
HETATM   11  H   UNL     1     -42.081  55.704 -57.413  1.00  0.00     0.164 HD
HETATM   12  H   UNL     1     -42.577  57.857 -54.728  1.00  0.00     0.172 HD
BRANCH   9  13
HETATM   13  C   UNL     1     -42.548  56.981 -59.040  1.00  0.00     0.189 C 
BRANCH  13  14
HETATM   14  C   UNL     1     -43.533  55.999 -59.553  1.00  0.00     0.070 A 
HETATM   15  O   UNL     1     -44.007  56.222 -60.815  1.00  0.00    -0.325 OA
HETATM   16  C   UNL     1     -44.862  55.209 -61.106  1.00  0.00     0.142 A 
HETATM   17  C   UNL     1     -44.948  54.333 -60.050  1.00  0.00     0.027 A 
HETATM   18  C   UNL     1     -44.088  54.841 -59.046  1.00  0.00     0.036 A 
ENDBRANCH  13  14
ENDBRANCH   9  13
ENDBRANCH   4   7
BRANCH   1  19
HETATM   19  C   UNL     1     -40.447  52.203 -53.471  1.00  0.00    -0.006 A 
HETATM   20  C   UNL     1     -40.003  52.043 -52.145  1.00  0.00     0.014 A 
HETATM   21  C   UNL     1     -39.496  50.822 -51.688  1.00  0.00     0.001 A 
HETATM   22  C   UNL     1     -39.415  49.734 -52.553  1.00  0.00     0.000 A 
HETATM   23  C   UNL     1     -39.836  49.867 -53.871  1.00  0.00     0.001 A 
HETATM   24  C   UNL     1     -40.346  51.088 -54.325  1.00  0.00     0.014 A 
ENDBRANCH   1  19
TORSDOF 4
ENDMDL
MODEL 2
REMARK VINA RESULT:      -7.8      1.029      1.653
REMARK  4 active torsions:
REMARK  status: ('A' for Active; 'I' for Inactive)
REMARK    1  A    between atoms: C_4  and  C_5 
REMARK    2  A    between atoms: C_8  and  N_9 
REMARK       I    between atoms: N_9  and  C_10 
REMARK       I    between atoms: C_10  and  N_11 
REMARK    3  A    between atoms: N_11  and  C_12 
REMARK    4  A    between atoms: C_12  and  C_13 
ROOT
HETATM    1  C   UNL     1     -40.956  53.491 -53.964  1.00  0.00     0.089 A 
HETATM    2  N   UNL     1     -42.275  53.731 -53.785  1.00  0.00    -0.148 NA
HETATM    3  N   UNL     1     -42.839  54.924 -54.198  1.00  0.00    -0.131 NA
HETATM    4  C   UNL     1     -42.085  55.863 -54.797  1.00  0.00     0.153 A 
HETATM    5  C   UNL     1     -40.733  55.646 -55.007  1.00  0.00     0.055 A 
HETATM    6  C   UNL     1     -40.162  54.445 -54.586  1.00  0.00     0.038 A 
ENDROOT
BRANCH   4   7
HETATM    7  N   UNL     1     -42.622  57.083 -55.207  1.00  0.00    -0.292 N 
HETATM    8  C   UNL     1     -42.808  57.573 -56.459  1.00  0.00     0.322 C 
HETATM    9  N   UNL     1     -42.375  56.830 -57.508  1.00  0.00    -0.337 N 
HETATM   10  O   UNL     1     -43.342  58.674 -56.590  1.00  0.00    -0.247 OA
HETATM   11  H   UNL     1     -42.190  55.849 -57.327  1.00  0.00     0.164 HD
HETATM   12  H   UNL     1     -42.950  57.723 -54.497  1.00  0.00     0.172 HD
BRANCH   9  13
HETATM   13  C   UNL     1     -42.678  57.229 -58.862  1.00  0.00     0.189 C 
BRANCH  13  14
HETATM   14  C   UNL     1     -43.561  56.228 -59.506  1.00  0.00     0.070 A 
HETATM   15  O   UNL     1     -43.698  55.036 -58.853  1.00  0.00    -0.325 OA
HETATM   16  C   UNL     1     -44.558  54.279 -59.580  1.00  0.00     0.142 A 
HETATM   17  C   UNL     1     -44.981  54.965 -60.694  1.00  0.00     0.027 A 
HETATM   18  C   UNL     1     -44.339  56.226 -60.647  1.00  0.00     0.036 A 
ENDBRANCH  13  14
ENDBRANCH   9  13
ENDBRANCH   4   7
BRANCH   1  19
HETATM   19  C   UNL     1     -40.444  52.197 -53.482  1.00  0.00    -0.006 A 
HETATM   20  C   UNL     1     -40.398  51.077 -54.334  1.00  0.00     0.014 A 
HETATM   21  C   UNL     1     -39.901  49.847 -53.894  1.00  0.00     0.001 A 
HETATM   22  C   UNL     1     -39.445  49.707 -52.587  1.00  0.00     0.000 A 
HETATM   23  C   UNL     1     -39.490  50.794 -51.720  1.00  0.00     0.001 A 
HETATM   24  C   UNL     1     -39.984  52.024 -52.163  1.00  0.00     0.014 A 
ENDBRANCH   1  19
TORSDOF 4
ENDMDL
MODEL 3
REMARK VINA RESULT:      -7.4     13.857     16.830
REMARK  4 active torsions:
REMARK  status: ('A' for Active; 'I' for Inactive)
REMARK    1  A    between atoms: C_4  and  C_5 
REMARK    2  A    between atoms: C_8  and  N_9 
REMARK       I    between atoms: N_9  and  C_10 
REMARK       I    between atoms: C_10  and  N_11 
REMARK    3  A    between atoms: N_11  and  C_12 
REMARK    4  A    between atoms: C_12  and  C_13 
ROOT
HETATM    1  C   UNL     1     -37.836  40.260 -58.715  1.00  0.00     0.089 A 
HETATM    2  N   UNL     1     -38.066  39.664 -57.522  1.00  0.00    -0.148 NA
HETATM    3  N   UNL     1     -37.790  40.324 -56.339  1.00  0.00    -0.131 NA
HETATM    4  C   UNL     1     -37.302  41.577 -56.354  1.00  0.00     0.153 A 
HETATM    5  C   UNL     1     -37.068  42.222 -57.557  1.00  0.00     0.055 A 
HETATM    6  C   UNL     1     -37.339  41.556 -58.752  1.00  0.00     0.038 A 
ENDROOT
BRANCH   4   7
HETATM    7  N   UNL     1     -36.998  42.260 -55.176  1.00  0.00    -0.292 N 
HETATM    8  C   UNL     1     -36.036  42.014 -54.252  1.00  0.00     0.322 C 
HETATM    9  N   UNL     1     -35.255  40.917 -54.419  1.00  0.00    -0.337 N 
HETATM   10  O   UNL     1     -35.923  42.781 -53.297  1.00  0.00    -0.247 OA
HETATM   11  H   UNL     1     -35.244  40.501 -55.344  1.00  0.00     0.164 HD
HETATM   12  H   UNL     1     -37.544  43.079 -54.947  1.00  0.00     0.172 HD
BRANCH   9  13
HETATM   13  C   UNL     1     -34.123  40.687 -53.553  1.00  0.00     0.189 C 
BRANCH  13  14
HETATM   14  C   UNL     1     -32.967  40.196 -54.340  1.00  0.00     0.070 A 
HETATM   15  O   UNL     1     -32.941  40.550 -55.659  1.00  0.00    -0.325 OA
HETATM   16  C   UNL     1     -31.803  40.033 -56.189  1.00  0.00     0.142 A 
HETATM   17  C   UNL     1     -31.092  39.351 -55.231  1.00  0.00     0.027 A 
HETATM   18  C   UNL     1     -31.842  39.456 -54.035  1.00  0.00     0.036 A 
ENDBRANCH  13  14
ENDBRANCH   9  13
ENDBRANCH   4   7
BRANCH   1  19
HETATM   19  C   UNL     1     -38.150  39.475 -59.921  1.00  0.00    -0.006 A 
HETATM   20  C   UNL     1     -37.386  39.619 -61.094  1.00  0.00     0.014 A 
HETATM   21  C   UNL     1     -37.663  38.869 -62.241  1.00  0.00     0.001 A 
HETATM   22  C   UNL     1     -38.720  37.963 -62.242  1.00  0.00     0.000 A 
HETATM   23  C   UNL     1     -39.499  37.809 -61.101  1.00  0.00     0.001 A 
HETATM   24  C   UNL     1     -39.217  38.557 -59.953  1.00  0.00     0.014 A 
ENDBRANCH   1  19
TORSDOF 4
ENDMDL
MODEL 4
REMARK VINA RESULT:      -7.2      3.556      5.495
REMARK  4 active torsions:
REMARK  status: ('A' for Active; 'I' for Inactive)
REMARK    1  A    between atoms: C_4  and  C_5 
REMARK    2  A    between atoms: C_8  and  N_9 
REMARK       I    between atoms: N_9  and  C_10 
REMARK       I    between atoms: C_10  and  N_11 
REMARK    3  A    between atoms: N_11  and  C_12 
REMARK    4  A    between atoms: C_12  and  C_13 
ROOT
HETATM    1  C   UNL     1     -40.525  53.610 -53.649  1.00  0.00     0.089 A 
HETATM    2  N   UNL     1     -40.662  54.467 -52.612  1.00  0.00    -0.148 NA
HETATM    3  N   UNL     1     -40.966  55.798 -52.831  1.00  0.00    -0.131 NA
HETATM    4  C   UNL     1     -41.144  56.261 -54.081  1.00  0.00     0.153 A 
HETATM    5  C   UNL     1     -41.024  55.408 -55.166  1.00  0.00     0.055 A 
HETATM    6  C   UNL     1     -40.712  54.066 -54.948  1.00  0.00     0.038 A 
ENDROOT
BRANCH   4   7
HETATM    7  N   UNL     1     -41.434  57.601 -54.333  1.00  0.00    -0.292 N 
HETATM    8  C   UNL     1     -41.856  58.573 -53.485  1.00  0.00     0.322 C 
HETATM    9  N   UNL     1     -42.103  58.233 -52.195  1.00  0.00    -0.337 N 
HETATM   10  O   UNL     1     -42.015  59.712 -53.923  1.00  0.00    -0.247 OA
HETATM   11  H   UNL     1     -41.706  57.359 -51.869  1.00  0.00     0.164 HD
HETATM   12  H   UNL     1     -41.308  57.947 -55.274  1.00  0.00     0.172 HD
BRANCH   9  13
HETATM   13  C   UNL     1     -42.410  59.250 -51.217  1.00  0.00     0.189 C 
BRANCH  13  14
HETATM   14  C   UNL     1     -43.877  59.422 -51.100  1.00  0.00     0.070 A 
HETATM   15  O   UNL     1     -44.329  60.707 -51.003  1.00  0.00    -0.325 OA
HETATM   16  C   UNL     1     -45.684  60.651 -50.935  1.00  0.00     0.142 A 
HETATM   17  C   UNL     1     -46.114  59.346 -50.988  1.00  0.00     0.027 A 
HETATM   18  C   UNL     1     -44.949  58.551 -51.097  1.00  0.00     0.036 A 
ENDBRANCH  13  14
ENDBRANCH   9  13
ENDBRANCH   4   7
BRANCH   1  19
HETATM   19  C   UNL     1     -40.190  52.214 -53.319  1.00  0.00    -0.006 A 
HETATM   20  C   UNL     1     -39.810  51.853 -52.013  1.00  0.00     0.014 A 
HETATM   21  C   UNL     1     -39.504  50.529 -51.683  1.00  0.00     0.001 A 
HETATM   22  C   UNL     1     -39.564  49.537 -52.656  1.00  0.00     0.000 A 
HETATM   23  C   UNL     1     -39.926  49.867 -53.958  1.00  0.00     0.001 A 
HETATM   24  C   UNL     1     -40.235  51.191 -54.285  1.00  0.00     0.014 A 
ENDBRANCH   1  19
TORSDOF 4
ENDMDL
MODEL 5
REMARK VINA RESULT:      -7.1      1.760      2.239
REMARK  4 active torsions:
REMARK  status: ('A' for Active; 'I' for Inactive)
REMARK    1  A    between atoms: C_4  and  C_5 
REMARK    2  A    between atoms: C_8  and  N_9 
REMARK       I    between atoms: N_9  and  C_10 
REMARK       I    between atoms: C_10  and  N_11 
REMARK    3  A    between atoms: N_11  and  C_12 
REMARK    4  A    between atoms: C_12  and  C_13 
ROOT
HETATM    1  C   UNL     1     -41.823  54.582 -53.621  1.00  0.00     0.089 A 
HETATM    2  N   UNL     1     -42.986  54.374 -54.280  1.00  0.00    -0.148 NA
HETATM    3  N   UNL     1     -43.804  55.435 -54.619  1.00  0.00    -0.131 NA
HETATM    4  C   UNL     1     -43.450  56.696 -54.311  1.00  0.00     0.153 A 
HETATM    5  C   UNL     1     -42.260  56.947 -53.649  1.00  0.00     0.055 A 
HETATM    6  C   UNL     1     -41.436  55.877 -53.300  1.00  0.00     0.038 A 
ENDROOT
BRANCH   4   7
HETATM    7  N   UNL     1     -44.265  57.784 -54.626  1.00  0.00    -0.292 N 
HETATM    8  C   UNL     1     -44.564  58.324 -55.834  1.00  0.00     0.322 C 
HETATM    9  N   UNL     1     -43.967  57.802 -56.934  1.00  0.00    -0.337 N 
HETATM   10  O   UNL     1     -45.347  59.273 -55.880  1.00  0.00    -0.247 OA
HETATM   11  H   UNL     1     -43.552  56.881 -56.835  1.00  0.00     0.164 HD
HETATM   12  H   UNL     1     -44.735  58.261 -53.870  1.00  0.00     0.172 HD
BRANCH   9  13
HETATM   13  C   UNL     1     -44.358  58.236 -58.255  1.00  0.00     0.189 C 
BRANCH  13  14
HETATM   14  C   UNL     1     -44.837  57.082 -59.052  1.00  0.00     0.070 A 
HETATM   15  O   UNL     1     -43.959  56.047 -59.206  1.00  0.00    -0.325 OA
HETATM   16  C   UNL     1     -44.591  55.090 -59.931  1.00  0.00     0.142 A 
HETATM   17  C   UNL     1     -45.868  55.490 -60.247  1.00  0.00     0.027 A 
HETATM   18  C   UNL     1     -46.030  56.776 -59.678  1.00  0.00     0.036 A 
ENDBRANCH  13  14
ENDBRANCH   9  13
ENDBRANCH   4   7
BRANCH   1  19
HETATM   19  C   UNL     1     -41.022  53.390 -53.292  1.00  0.00    -0.006 A 
HETATM   20  C   UNL     1     -40.693  52.447 -54.283  1.00  0.00     0.014 A 
HETATM   21  C   UNL     1     -39.921  51.319 -53.987  1.00  0.00     0.001 A 
HETATM   22  C   UNL     1     -39.468  51.106 -52.689  1.00  0.00     0.000 A 
HETATM   23  C   UNL     1     -39.788  52.016 -51.687  1.00  0.00     0.001 A 
HETATM   24  C   UNL     1     -40.557  53.146 -51.986  1.00  0.00     0.014 A 
ENDBRANCH   1  19
TORSDOF 4
ENDMDL
MODEL 6
REMARK VINA RESULT:      -7.1      3.404      4.509
REMARK  4 active torsions:
REMARK  status: ('A' for Active; 'I' for Inactive)
REMARK    1  A    between atoms: C_4  and  C_5 
REMARK    2  A    between atoms: C_8  and  N_9 
REMARK       I    between atoms: N_9  and  C_10 
REMARK       I    between atoms: C_10  and  N_11 
REMARK    3  A    between atoms: N_11  and  C_12 
REMARK    4  A    between atoms: C_12  and  C_13 
ROOT
HETATM    1  C   UNL     1     -41.968  54.319 -51.955  1.00  0.00     0.089 A 
HETATM    2  N   UNL     1     -41.588  55.605 -52.130  1.00  0.00    -0.148 NA
HETATM    3  N   UNL     1     -42.375  56.643 -51.665  1.00  0.00    -0.131 NA
HETATM    4  C   UNL     1     -43.527  56.390 -51.019  1.00  0.00     0.153 A 
HETATM    5  C   UNL     1     -43.939  55.084 -50.810  1.00  0.00     0.055 A 
HETATM    6  C   UNL     1     -43.150  54.035 -51.284  1.00  0.00     0.038 A 
ENDROOT
BRANCH   4   7
HETATM    7  N   UNL     1     -44.349  57.417 -50.555  1.00  0.00    -0.292 N 
HETATM    8  C   UNL     1     -44.914  58.449 -51.230  1.00  0.00     0.322 C 
HETATM    9  N   UNL     1     -44.627  58.585 -52.549  1.00  0.00    -0.337 N 
HETATM   10  O   UNL     1     -45.645  59.226 -50.617  1.00  0.00    -0.247 OA
HETATM   11  H   UNL     1     -44.238  57.773 -53.017  1.00  0.00     0.164 HD
HETATM   12  H   UNL     1     -44.599  57.421 -49.576  1.00  0.00     0.172 HD
BRANCH   9  13
HETATM   13  C   UNL     1     -45.313  59.571 -53.349  1.00  0.00     0.189 C 
BRANCH  13  14
HETATM   14  C   UNL     1     -45.214  59.224 -54.786  1.00  0.00     0.070 A 
HETATM   15  O   UNL     1     -44.887  60.244 -55.633  1.00  0.00    -0.325 OA
HETATM   16  C   UNL     1     -44.819  59.720 -56.883  1.00  0.00     0.142 A 
HETATM   17  C   UNL     1     -45.095  58.373 -56.857  1.00  0.00     0.027 A 
HETATM   18  C   UNL     1     -45.348  58.050 -55.502  1.00  0.00     0.036 A 
ENDBRANCH  13  14
ENDBRANCH   9  13
ENDBRANCH   4   7
BRANCH   1  19
HETATM   19  C   UNL     1     -41.071  53.282 -52.493  1.00  0.00    -0.006 A 
HETATM   20  C   UNL     1     -40.183  52.588 -51.650  1.00  0.00     0.014 A 
HETATM   21  C   UNL     1     -39.337  51.591 -52.146  1.00  0.00     0.001 A 
HETATM   22  C   UNL     1     -39.356  51.271 -53.500  1.00  0.00     0.000 A 
HETATM   23  C   UNL     1     -40.216  51.949 -54.358  1.00  0.00     0.001 A 
HETATM   24  C   UNL     1     -41.064  52.943 -53.860  1.00  0.00     0.014 A 
ENDBRANCH   1  19
TORSDOF 4
ENDMDL
MODEL 7
REMARK VINA RESULT:      -7.1      3.184      7.510
REMARK  4 active torsions:
REMARK  status: ('A' for Active; 'I' for Inactive)
REMARK    1  A    between atoms: C_4  and  C_5 
REMARK    2  A    between atoms: C_8  and  N_9 
REMARK       I    between atoms: N_9  and  C_10 
REMARK       I    between atoms: C_10  and  N_11 
REMARK    3  A    between atoms: N_11  and  C_12 
REMARK    4  A    between atoms: C_12  and  C_13 
ROOT
HETATM    1  C   UNL     1     -43.119  56.509 -56.068  1.00  0.00     0.089 A 
HETATM    2  N   UNL     1     -41.848  56.123 -55.811  1.00  0.00    -0.148 NA
HETATM    3  N   UNL     1     -41.406  55.970 -54.511  1.00  0.00    -0.131 NA
HETATM    4  C   UNL     1     -42.238  56.191 -53.477  1.00  0.00     0.153 A 
HETATM    5  C   UNL     1     -43.549  56.574 -53.704  1.00  0.00     0.055 A 
HETATM    6  C   UNL     1     -43.996  56.734 -55.016  1.00  0.00     0.038 A 
ENDROOT
BRANCH   4   7
HETATM    7  N   UNL     1     -41.815  56.062 -52.154  1.00  0.00    -0.292 N 
HETATM    8  C   UNL     1     -41.170  55.035 -51.544  1.00  0.00     0.322 C 
HETATM    9  N   UNL     1     -40.922  53.915 -52.268  1.00  0.00    -0.337 N 
HETATM   10  O   UNL     1     -40.855  55.154 -50.361  1.00  0.00    -0.247 OA
HETATM   11  H   UNL     1     -40.979  54.002 -53.277  1.00  0.00     0.164 HD
HETATM   12  H   UNL     1     -41.978  56.834 -51.524  1.00  0.00     0.172 HD
BRANCH   9  13
HETATM   13  C   UNL     1     -40.112  52.853 -51.719  1.00  0.00     0.189 C 
BRANCH  13  14
HETATM   14  C   UNL     1     -39.981  51.750 -52.700  1.00  0.00     0.070 A 
HETATM   15  O   UNL     1     -39.567  50.547 -52.204  1.00  0.00    -0.325 OA
HETATM   16  C   UNL     1     -39.540  49.674 -53.243  1.00  0.00     0.142 A 
HETATM   17  C   UNL     1     -39.933  50.295 -54.404  1.00  0.00     0.027 A 
HETATM   18  C   UNL     1     -40.221  51.636 -54.056  1.00  0.00     0.036 A 
ENDBRANCH  13  14
ENDBRANCH   9  13
ENDBRANCH   4   7
BRANCH   1  19
HETATM   19  C   UNL     1     -43.495  56.655 -57.485  1.00  0.00    -0.006 A 
HETATM   20  C   UNL     1     -44.248  57.761 -57.921  1.00  0.00     0.014 A 
HETATM   21  C   UNL     1     -44.600  57.919 -59.265  1.00  0.00     0.001 A 
HETATM   22  C   UNL     1     -44.211  56.968 -60.203  1.00  0.00     0.000 A 
HETATM   23  C   UNL     1     -43.477  55.859 -59.798  1.00  0.00     0.001 A 
HETATM   24  C   UNL     1     -43.123  55.704 -58.455  1.00  0.00     0.014 A 
ENDBRANCH   1  19
TORSDOF 4
ENDMDL
MODEL 8
REMARK VINA RESULT:      -7.1      2.259      2.738
REMARK  4 active torsions:
REMARK  status: ('A' for Active; 'I' for Inactive)
REMARK    1  A    between atoms: C_4  and  C_5 
REMARK    2  A    between atoms: C_8  and  N_9 
REMARK       I    between atoms: N_9  and  C_10 
REMARK       I    between atoms: C_10  and  N_11 
REMARK    3  A    between atoms: N_11  and  C_12 
REMARK    4  A    between atoms: C_12  and  C_13 
ROOT
HETATM    1  C   UNL     1     -41.899  54.104 -53.893  1.00  0.00     0.089 A 
HETATM    2  N   UNL     1     -42.190  55.217 -53.182  1.00  0.00    -0.148 NA
HETATM    3  N   UNL     1     -42.998  56.205 -53.715  1.00  0.00    -0.131 NA
HETATM    4  C   UNL     1     -43.519  56.068 -54.948  1.00  0.00     0.153 A 
HETATM    5  C   UNL     1     -43.253  54.935 -55.699  1.00  0.00     0.055 A 
HETATM    6  C   UNL     1     -42.433  53.940 -55.165  1.00  0.00     0.038 A 
ENDROOT
BRANCH   4   7
HETATM    7  N   UNL     1     -44.323  57.055 -55.518  1.00  0.00    -0.292 N 
HETATM    8  C   UNL     1     -43.971  58.195 -56.165  1.00  0.00     0.322 C 
HETATM    9  N   UNL     1     -42.652  58.501 -56.251  1.00  0.00    -0.337 N 
HETATM   10  O   UNL     1     -44.859  58.911 -56.627  1.00  0.00    -0.247 OA
HETATM   11  H   UNL     1     -41.997  57.746 -56.079  1.00  0.00     0.164 HD
HETATM   12  H   UNL     1     -45.325  56.934 -55.481  1.00  0.00     0.172 HD
BRANCH   9  13
HETATM   13  C   UNL     1     -42.211  59.618 -57.052  1.00  0.00     0.189 C 
BRANCH  13  14
HETATM   14  C   UNL     1     -42.098  59.216 -58.474  1.00  0.00     0.070 A 
HETATM   15  O   UNL     1     -41.796  57.905 -58.709  1.00  0.00    -0.325 OA
HETATM   16  C   UNL     1     -41.768  57.736 -60.055  1.00  0.00     0.142 A 
HETATM   17  C   UNL     1     -42.049  58.919 -60.695  1.00  0.00     0.027 A 
HETATM   18  C   UNL     1     -42.265  59.877 -59.676  1.00  0.00     0.036 A 
ENDBRANCH  13  14
ENDBRANCH   9  13
ENDBRANCH   4   7
BRANCH   1  19
HETATM   19  C   UNL     1     -41.022  53.113 -53.247  1.00  0.00    -0.006 A 
HETATM   20  C   UNL     1     -40.733  53.193 -51.872  1.00  0.00     0.014 A 
HETATM   21  C   UNL     1     -39.914  52.250 -51.243  1.00  0.00     0.001 A 
HETATM   22  C   UNL     1     -39.360  51.208 -51.980  1.00  0.00     0.000 A 
HETATM   23  C   UNL     1     -39.620  51.110 -53.342  1.00  0.00     0.001 A 
HETATM   24  C   UNL     1     -40.442  52.052 -53.968  1.00  0.00     0.014 A 
ENDBRANCH   1  19
TORSDOF 4
ENDMDL
MODEL 9
REMARK VINA RESULT:      -7.0      3.441      4.388
REMARK  4 active torsions:
REMARK  status: ('A' for Active; 'I' for Inactive)
REMARK    1  A    between atoms: C_4  and  C_5 
REMARK    2  A    between atoms: C_8  and  N_9 
REMARK       I    between atoms: N_9  and  C_10 
REMARK       I    between atoms: C_10  and  N_11 
REMARK    3  A    between atoms: N_11  and  C_12 
REMARK    4  A    between atoms: C_12  and  C_13 
ROOT
HETATM    1  C   UNL     1     -40.963  53.391 -51.626  1.00  0.00     0.089 A 
HETATM    2  N   UNL     1     -40.202  54.224 -50.881  1.00  0.00    -0.148 NA
HETATM    3  N   UNL     1     -40.650  55.492 -50.559  1.00  0.00    -0.131 NA
HETATM    4  C   UNL     1     -41.859  55.913 -50.973  1.00  0.00     0.153 A 
HETATM    5  C   UNL     1     -42.670  55.082 -51.727  1.00  0.00     0.055 A 
HETATM    6  C   UNL     1     -42.217  53.804 -52.057  1.00  0.00     0.038 A 
ENDROOT
BRANCH   4   7
HETATM    7  N   UNL     1     -42.330  57.193 -50.679  1.00  0.00    -0.292 N 
HETATM    8  C   UNL     1     -42.171  58.355 -51.361  1.00  0.00     0.322 C 
HETATM    9  N   UNL     1     -41.402  58.341 -52.478  1.00  0.00    -0.337 N 
HETATM   10  O   UNL     1     -42.714  59.372 -50.931  1.00  0.00    -0.247 OA
HETATM   11  H   UNL     1     -41.215  57.435 -52.893  1.00  0.00     0.164 HD
HETATM   12  H   UNL     1     -42.892  57.314 -49.849  1.00  0.00     0.172 HD
BRANCH   9  13
HETATM   13  C   UNL     1     -41.319  59.509 -53.324  1.00  0.00     0.189 C 
BRANCH  13  14
HETATM   14  C   UNL     1     -41.792  59.185 -54.691  1.00  0.00     0.070 A 
HETATM   15  O   UNL     1     -41.726  60.195 -55.608  1.00  0.00    -0.325 OA
HETATM   16  C   UNL     1     -42.172  59.693 -56.788  1.00  0.00     0.142 A 
HETATM   17  C   UNL     1     -42.523  58.372 -56.647  1.00  0.00     0.027 A 
HETATM   18  C   UNL     1     -42.277  58.040 -55.294  1.00  0.00     0.036 A 
ENDBRANCH  13  14
ENDBRANCH   9  13
ENDBRANCH   4   7
BRANCH   1  19
HETATM   19  C   UNL     1     -40.397  52.064 -51.927  1.00  0.00    -0.006 A 
HETATM   20  C   UNL     1     -40.069  51.168 -50.892  1.00  0.00     0.014 A 
HETATM   21  C   UNL     1     -39.546  49.901 -51.165  1.00  0.00     0.001 A 
HETATM   22  C   UNL     1     -39.331  49.504 -52.481  1.00  0.00     0.000 A 
HETATM   23  C   UNL     1     -39.636  50.373 -53.523  1.00  0.00     0.001 A 
HETATM   24  C   UNL     1     -40.163  51.639 -53.249  1.00  0.00     0.014 A 
ENDBRANCH   1  19
TORSDOF 4
ENDMDL
MODEL 10
REMARK VINA RESULT:      -6.9      2.964      7.684
REMARK  4 active torsions:
REMARK  status: ('A' for Active; 'I' for Inactive)
REMARK    1  A    between atoms: C_4  and  C_5 
REMARK    2  A    between atoms: C_8  and  N_9 
REMARK       I    between atoms: N_9  and  C_10 
REMARK       I    between atoms: C_10  and  N_11 
REMARK    3  A    between atoms: N_11  and  C_12 
REMARK    4  A    between atoms: C_12  and  C_13 
ROOT
HETATM    1  C   UNL     1     -42.948  57.157 -56.805  1.00  0.00     0.089 A 
HETATM    2  N   UNL     1     -42.678  55.833 -56.745  1.00  0.00    -0.148 NA
HETATM    3  N   UNL     1     -42.933  55.112 -55.593  1.00  0.00    -0.131 NA
HETATM    4  C   UNL     1     -43.467  55.714 -54.515  1.00  0.00     0.153 A 
HETATM    5  C   UNL     1     -43.768  57.065 -54.546  1.00  0.00     0.055 A 
HETATM    6  C   UNL     1     -43.506  57.796 -55.705  1.00  0.00     0.038 A 
ENDROOT
BRANCH   4   7
HETATM    7  N   UNL     1     -43.718  55.015 -53.334  1.00  0.00    -0.292 N 
HETATM    8  C   UNL     1     -42.882  54.265 -52.574  1.00  0.00     0.322 C 
HETATM    9  N   UNL     1     -41.609  54.088 -53.008  1.00  0.00    -0.337 N 
HETATM   10  O   UNL     1     -43.314  53.764 -51.537  1.00  0.00    -0.247 OA
HETATM   11  H   UNL     1     -41.273  54.733 -53.715  1.00  0.00     0.164 HD
HETATM   12  H   UNL     1     -44.648  55.061 -52.943  1.00  0.00     0.172 HD
BRANCH   9  13
HETATM   13  C   UNL     1     -40.636  53.427 -52.170  1.00  0.00     0.189 C 
BRANCH  13  14
HETATM   14  C   UNL     1     -40.265  52.115 -52.753  1.00  0.00     0.070 A 
HETATM   15  O   UNL     1     -40.669  51.889 -54.038  1.00  0.00    -0.325 OA
HETATM   16  C   UNL     1     -40.211  50.661 -54.390  1.00  0.00     0.142 A 
HETATM   17  C   UNL     1     -39.516  50.090 -53.351  1.00  0.00     0.027 A 
HETATM   18  C   UNL     1     -39.548  51.028 -52.292  1.00  0.00     0.036 A 
ENDBRANCH  13  14
ENDBRANCH   9  13
ENDBRANCH   4   7
BRANCH   1  19
HETATM   19  C   UNL     1     -42.633  57.844 -58.069  1.00  0.00    -0.006 A 
HETATM   20  C   UNL     1     -42.428  59.236 -58.103  1.00  0.00     0.014 A 
HETATM   21  C   UNL     1     -42.114  59.897 -59.294  1.00  0.00     0.001 A 
HETATM   22  C   UNL     1     -42.005  59.180 -60.481  1.00  0.00     0.000 A 
HETATM   23  C   UNL     1     -42.213  57.805 -60.479  1.00  0.00     0.001 A 
HETATM   24  C   UNL     1     -42.524  57.144 -59.287  1.00  0.00     0.014 A 
ENDBRANCH   1  19
TORSDOF 4
ENDMDL
