MODEL 1
REMARK VINA RESULT:      -7.5      0.000      0.000
REMARK  9 active torsions:
REMARK  status: ('A' for Active; 'I' for Inactive)
REMARK    1  A    between atoms: C_3  and  C_4 
REMARK    2  A    between atoms: C_4  and  C_5 
REMARK       I    between atoms: C_5  and  N_6 
REMARK    3  A    between atoms: N_6  and  C_7 
REMARK    4  A    between atoms: C_16  and  N_17 
REMARK       I    between atoms: N_17  and  C_18 
REMARK    5  A    between atoms: C_18  and  C_19 
REMARK    6  A    between atoms: C_19  and  O_20 
REMARK    7  A    between atoms: C_26  and  C_27 
REMARK    8  A    between atoms: C_27  and  O_28 
REMARK    9  A    between atoms: C_30  and  O_31 
ROOT
HETATM    1  C   UNL     1     -40.197  58.752 -53.254  1.00  0.00     0.016 C 
HETATM    2  C   UNL     1     -41.732  58.475 -53.238  1.00  0.00    -0.030 C 
HETATM    3  C   UNL     1     -41.999  56.930 -53.506  1.00  0.00     0.056 C 
HETATM    4  C   UNL     1     -41.707  56.121 -52.261  1.00  0.00     0.056 A 
HETATM    5  C   UNL     1     -41.608  56.663 -50.996  1.00  0.00     0.012 A 
HETATM    6  S   UNL     1     -41.374  55.434 -49.838  1.00  0.00    -0.055 SA
HETATM    7  C   UNL     1     -41.385  54.285 -51.100  1.00  0.00     0.174 A 
HETATM    8  N   UNL     1     -41.564  54.746 -52.314  1.00  0.00    -0.227 NA
HETATM    9  C   UNL     1     -41.678  58.109 -50.653  1.00  0.00     0.055 C 
HETATM   10  C   UNL     1     -42.295  58.930 -51.822  1.00  0.00     0.012 C 
HETATM   11  C   UNL     1     -43.871  59.105 -51.720  1.00  0.00     0.008 C 
HETATM   12  C   UNL     1     -44.133  60.223 -50.664  1.00  0.00     0.020 C 
HETATM   13  C   UNL     1     -44.477  59.615 -53.064  1.00  0.00     0.128 C 
HETATM   14  C   UNL     1     -43.439  60.305 -53.940  1.00  0.00     0.033 C 
HETATM   15  C   UNL     1     -42.356  59.328 -54.387  1.00  0.00     0.013 C 
ENDROOT
BRANCH   3  16
HETATM   16  C   UNL     1     -41.243  56.380 -54.734  1.00  0.00     0.114 C 
BRANCH  16  17
HETATM   17  C   UNL     1     -42.162  55.839 -55.814  1.00  0.00     0.218 C 
HETATM   18  N   UNL     1     -42.323  56.646 -56.911  1.00  0.00    -0.356 N 
HETATM   19  H   UNL     1     -41.939  57.594 -56.859  1.00  0.00     0.162 HD
HETATM   20  O   UNL     1     -42.730  54.757 -55.677  1.00  0.00    -0.274 OA
BRANCH  18  21
HETATM   21  C   UNL     1     -43.349  56.393 -57.896  1.00  0.00     0.084 C 
HETATM   22  C   UNL     1     -44.124  57.659 -58.255  1.00  0.00     0.025 C 
HETATM   23  C   UNL     1     -44.652  57.426 -59.669  1.00  0.00     0.002 C 
HETATM   24  C   UNL     1     -43.925  56.195 -60.208  1.00  0.00     0.002 C 
HETATM   25  C   UNL     1     -42.789  55.926 -59.233  1.00  0.00     0.025 C 
ENDBRANCH  18  21
ENDBRANCH  16  17
ENDBRANCH   3  16
BRANCH  11  26
HETATM   26  C   UNL     1     -44.614  57.837 -51.219  1.00  0.00     0.176 C 
BRANCH  26  27
HETATM   27  O   UNL     1     -45.479  58.141 -50.126  1.00  0.00    -0.400 OA
HETATM   28  H   UNL     1     -46.035  58.879 -50.450  1.00  0.00     0.209 HD
ENDBRANCH  26  27
ENDBRANCH  11  26
BRANCH   7  29
HETATM   29  N   UNL     1     -41.222  52.998 -50.685  1.00  0.00    -0.304 N 
HETATM   30  C   UNL     1     -40.087  52.268 -50.955  1.00  0.00     0.247 C 
HETATM   31  O   UNL     1     -39.054  52.676 -51.475  1.00  0.00    -0.271 OA
HETATM   32  H   UNL     1     -41.981  52.555 -50.184  1.00  0.00     0.171 HD
BRANCH  30  33
HETATM   33  C   UNL     1     -40.212  50.825 -50.459  1.00  0.00     0.270 C 
BRANCH  33  34
HETATM   34  O   UNL     1     -39.240  49.951 -51.031  1.00  0.00    -0.387 OA
HETATM   35  C   UNL     1     -39.664  49.439 -52.292  1.00  0.00     0.202 C 
ENDBRANCH  33  34
ENDBRANCH  30  33
ENDBRANCH   7  29
BRANCH  13  36
HETATM   36  O   UNL     1     -45.062  58.534 -53.796  1.00  0.00    -0.395 OA
HETATM   37  H   UNL     1     -44.617  57.710 -53.521  1.00  0.00     0.210 HD
ENDBRANCH  13  36
TORSDOF 9
ENDMDL
MODEL 2
REMARK VINA RESULT:      -7.5      2.830      6.781
REMARK  9 active torsions:
REMARK  status: ('A' for Active; 'I' for Inactive)
REMARK    1  A    between atoms: C_3  and  C_4 
REMARK    2  A    between atoms: C_4  and  C_5 
REMARK       I    between atoms: C_5  and  N_6 
REMARK    3  A    between atoms: N_6  and  C_7 
REMARK    4  A    between atoms: C_16  and  N_17 
REMARK       I    between atoms: N_17  and  C_18 
REMARK    5  A    between atoms: C_18  and  C_19 
REMARK    6  A    between atoms: C_19  and  O_20 
REMARK    7  A    between atoms: C_26  and  C_27 
REMARK    8  A    between atoms: C_27  and  O_28 
REMARK    9  A    between atoms: C_30  and  O_31 
ROOT
HETATM    1  C   UNL     1     -44.910  57.307 -51.583  1.00  0.00     0.016 C 
HETATM    2  C   UNL     1     -43.587  57.926 -52.131  1.00  0.00    -0.030 C 
HETATM    3  C   UNL     1     -43.161  57.180 -53.469  1.00  0.00     0.056 C 
HETATM    4  C   UNL     1     -44.015  57.649 -54.628  1.00  0.00     0.056 A 
HETATM    5  C   UNL     1     -44.764  58.808 -54.613  1.00  0.00     0.012 A 
HETATM    6  S   UNL     1     -45.507  59.056 -56.127  1.00  0.00    -0.055 SA
HETATM    7  C   UNL     1     -44.812  57.596 -56.674  1.00  0.00     0.174 A 
HETATM    8  N   UNL     1     -44.058  56.948 -55.820  1.00  0.00    -0.227 NA
HETATM    9  C   UNL     1     -44.933  59.728 -53.457  1.00  0.00     0.055 C 
HETATM   10  C   UNL     1     -43.840  59.476 -52.379  1.00  0.00     0.012 C 
HETATM   11  C   UNL     1     -42.543  60.376 -52.561  1.00  0.00     0.008 C 
HETATM   12  C   UNL     1     -42.896  61.793 -52.013  1.00  0.00     0.020 C 
HETATM   13  C   UNL     1     -41.358  59.850 -51.692  1.00  0.00     0.128 C 
HETATM   14  C   UNL     1     -41.831  58.984 -50.532  1.00  0.00     0.033 C 
HETATM   15  C   UNL     1     -42.499  57.706 -51.033  1.00  0.00     0.013 C 
ENDROOT
BRANCH   3  16
HETATM   16  C   UNL     1     -43.166  55.642 -53.344  1.00  0.00     0.114 C 
BRANCH  16  17
HETATM   17  C   UNL     1     -41.800  55.017 -53.553  1.00  0.00     0.218 C 
HETATM   18  N   UNL     1     -41.783  53.647 -53.632  1.00  0.00    -0.356 N 
HETATM   19  H   UNL     1     -42.650  53.152 -53.404  1.00  0.00     0.162 HD
HETATM   20  O   UNL     1     -40.789  55.713 -53.619  1.00  0.00    -0.274 OA
BRANCH  18  21
HETATM   21  C   UNL     1     -40.549  52.898 -53.575  1.00  0.00     0.084 C 
HETATM   22  C   UNL     1     -40.204  52.468 -52.151  1.00  0.00     0.025 C 
HETATM   23  C   UNL     1     -39.341  51.218 -52.301  1.00  0.00     0.002 C 
HETATM   24  C   UNL     1     -39.465  50.775 -53.758  1.00  0.00     0.002 C 
HETATM   25  C   UNL     1     -40.616  51.582 -54.339  1.00  0.00     0.025 C 
ENDBRANCH  18  21
ENDBRANCH  16  17
ENDBRANCH   3  16
BRANCH  11  26
HETATM   26  C   UNL     1     -42.110  60.565 -54.039  1.00  0.00     0.176 C 
BRANCH  26  27
HETATM   27  O   UNL     1     -42.485  61.851 -54.529  1.00  0.00    -0.400 OA
HETATM   28  H   UNL     1     -42.821  61.683 -55.433  1.00  0.00     0.209 HD
ENDBRANCH  26  27
ENDBRANCH  11  26
BRANCH   7  29
HETATM   29  N   UNL     1     -45.113  57.283 -57.964  1.00  0.00    -0.304 N 
HETATM   30  C   UNL     1     -44.175  57.293 -58.970  1.00  0.00     0.247 C 
HETATM   31  O   UNL     1     -42.966  57.459 -58.849  1.00  0.00    -0.271 OA
HETATM   32  H   UNL     1     -46.073  57.061 -58.193  1.00  0.00     0.171 HD
BRANCH  30  33
HETATM   33  C   UNL     1     -44.805  56.998 -60.334  1.00  0.00     0.270 C 
BRANCH  33  34
HETATM   34  O   UNL     1     -44.327  55.787 -60.920  1.00  0.00    -0.387 OA
HETATM   35  C   UNL     1     -44.734  54.641 -60.177  1.00  0.00     0.202 C 
ENDBRANCH  33  34
ENDBRANCH  30  33
ENDBRANCH   7  29
BRANCH  13  36
HETATM   36  O   UNL     1     -40.441  59.098 -52.493  1.00  0.00    -0.395 OA
HETATM   37  H   UNL     1     -40.768  59.106 -53.412  1.00  0.00     0.210 HD
ENDBRANCH  13  36
TORSDOF 9
ENDMDL
MODEL 3
REMARK VINA RESULT:      -7.4      2.778      6.973
REMARK  9 active torsions:
REMARK  status: ('A' for Active; 'I' for Inactive)
REMARK    1  A    between atoms: C_3  and  C_4 
REMARK    2  A    between atoms: C_4  and  C_5 
REMARK       I    between atoms: C_5  and  N_6 
REMARK    3  A    between atoms: N_6  and  C_7 
REMARK    4  A    between atoms: C_16  and  N_17 
REMARK       I    between atoms: N_17  and  C_18 
REMARK    5  A    between atoms: C_18  and  C_19 
REMARK    6  A    between atoms: C_19  and  O_20 
REMARK    7  A    between atoms: C_26  and  C_27 
REMARK    8  A    between atoms: C_27  and  O_28 
REMARK    9  A    between atoms: C_30  and  O_31 
ROOT
HETATM    1  C   UNL     1     -40.095  57.930 -53.603  1.00  0.00     0.016 C 
HETATM    2  C   UNL     1     -41.571  57.574 -53.964  1.00  0.00    -0.030 C 
HETATM    3  C   UNL     1     -42.430  57.440 -52.633  1.00  0.00     0.056 C 
HETATM    4  C   UNL     1     -42.758  58.808 -52.077  1.00  0.00     0.056 A 
HETATM    5  C   UNL     1     -42.670  59.977 -52.806  1.00  0.00     0.012 A 
HETATM    6  S   UNL     1     -43.216  61.299 -51.879  1.00  0.00    -0.055 SA
HETATM    7  C   UNL     1     -43.492  60.233 -50.575  1.00  0.00     0.174 A 
HETATM    8  N   UNL     1     -43.222  58.967 -50.784  1.00  0.00    -0.227 NA
HETATM    9  C   UNL     1     -42.165  60.106 -54.199  1.00  0.00     0.055 C 
HETATM   10  C   UNL     1     -42.132  58.723 -54.910  1.00  0.00     0.012 C 
HETATM   11  C   UNL     1     -43.462  58.382 -55.710  1.00  0.00     0.008 C 
HETATM   12  C   UNL     1     -43.402  59.182 -57.048  1.00  0.00     0.020 C 
HETATM   13  C   UNL     1     -43.522  56.873 -56.101  1.00  0.00     0.128 C 
HETATM   14  C   UNL     1     -42.144  56.223 -56.110  1.00  0.00     0.033 C 
HETATM   15  C   UNL     1     -41.533  56.204 -54.712  1.00  0.00     0.013 C 
ENDROOT
BRANCH   3  16
HETATM   16  C   UNL     1     -41.775  56.533 -51.568  1.00  0.00     0.114 C 
BRANCH  16  17
HETATM   17  C   UNL     1     -41.975  55.053 -51.834  1.00  0.00     0.218 C 
HETATM   18  N   UNL     1     -40.826  54.307 -51.911  1.00  0.00    -0.356 N 
HETATM   19  H   UNL     1     -39.936  54.814 -51.929  1.00  0.00     0.162 HD
HETATM   20  O   UNL     1     -43.100  54.584 -51.989  1.00  0.00    -0.274 OA
BRANCH  18  21
HETATM   21  C   UNL     1     -40.834  52.949 -52.404  1.00  0.00     0.084 C 
HETATM   22  C   UNL     1     -40.603  52.885 -53.912  1.00  0.00     0.025 C 
HETATM   23  C   UNL     1     -39.996  51.508 -54.172  1.00  0.00     0.002 C 
HETATM   24  C   UNL     1     -39.601  50.941 -52.810  1.00  0.00     0.002 C 
HETATM   25  C   UNL     1     -39.703  52.103 -51.833  1.00  0.00     0.025 C 
ENDBRANCH  18  21
ENDBRANCH  16  17
ENDBRANCH   3  16
BRANCH  11  26
HETATM   26  C   UNL     1     -44.762  58.822 -54.986  1.00  0.00     0.176 C 
BRANCH  26  27
HETATM   27  O   UNL     1     -45.915  58.559 -55.784  1.00  0.00    -0.400 OA
HETATM   28  H   UNL     1     -45.592  58.607 -56.707  1.00  0.00     0.209 HD
ENDBRANCH  26  27
ENDBRANCH  11  26
BRANCH   7  29
HETATM   29  N   UNL     1     -43.987  60.833 -49.457  1.00  0.00    -0.304 N 
HETATM   30  C   UNL     1     -45.333  60.894 -49.182  1.00  0.00     0.247 C 
HETATM   31  O   UNL     1     -46.239  60.345 -49.800  1.00  0.00    -0.271 OA
HETATM   32  H   UNL     1     -43.336  61.275 -48.821  1.00  0.00     0.171 HD
BRANCH  30  33
HETATM   33  C   UNL     1     -45.614  61.709 -47.916  1.00  0.00     0.270 C 
BRANCH  33  34
HETATM   34  O   UNL     1     -46.690  61.182 -47.140  1.00  0.00    -0.387 OA
HETATM   35  C   UNL     1     -46.232  60.264 -46.151  1.00  0.00     0.202 C 
ENDBRANCH  33  34
ENDBRANCH  30  33
ENDBRANCH   7  29
BRANCH  13  36
HETATM   36  O   UNL     1     -44.372  56.153 -55.203  1.00  0.00    -0.395 OA
HETATM   37  H   UNL     1     -43.905  55.340 -54.934  1.00  0.00     0.210 HD
ENDBRANCH  13  36
TORSDOF 9
ENDMDL
MODEL 4
REMARK VINA RESULT:      -7.3      3.048      7.741
REMARK  9 active torsions:
REMARK  status: ('A' for Active; 'I' for Inactive)
REMARK    1  A    between atoms: C_3  and  C_4 
REMARK    2  A    between atoms: C_4  and  C_5 
REMARK       I    between atoms: C_5  and  N_6 
REMARK    3  A    between atoms: N_6  and  C_7 
REMARK    4  A    between atoms: C_16  and  N_17 
REMARK       I    between atoms: N_17  and  C_18 
REMARK    5  A    between atoms: C_18  and  C_19 
REMARK    6  A    between atoms: C_19  and  O_20 
REMARK    7  A    between atoms: C_26  and  C_27 
REMARK    8  A    between atoms: C_27  and  O_28 
REMARK    9  A    between atoms: C_30  and  O_31 
ROOT
HETATM    1  C   UNL     1     -40.321  58.518 -53.232  1.00  0.00     0.016 C 
HETATM    2  C   UNL     1     -41.445  57.662 -52.568  1.00  0.00    -0.030 C 
HETATM    3  C   UNL     1     -42.858  58.079 -53.165  1.00  0.00     0.056 C 
HETATM    4  C   UNL     1     -43.042  57.488 -54.545  1.00  0.00     0.056 A 
HETATM    5  C   UNL     1     -42.289  56.443 -55.042  1.00  0.00     0.012 A 
HETATM    6  S   UNL     1     -42.852  55.984 -56.584  1.00  0.00    -0.055 SA
HETATM    7  C   UNL     1     -44.022  57.223 -56.493  1.00  0.00     0.174 A 
HETATM    8  N   UNL     1     -44.034  57.941 -55.396  1.00  0.00    -0.227 NA
HETATM    9  C   UNL     1     -41.137  55.793 -54.364  1.00  0.00     0.055 C 
HETATM   10  C   UNL     1     -41.120  56.131 -52.846  1.00  0.00     0.012 C 
HETATM   11  C   UNL     1     -41.898  55.077 -51.946  1.00  0.00     0.008 C 
HETATM   12  C   UNL     1     -40.959  53.842 -51.782  1.00  0.00     0.020 C 
HETATM   13  C   UNL     1     -42.154  55.631 -50.510  1.00  0.00     0.128 C 
HETATM   14  C   UNL     1     -41.192  56.755 -50.145  1.00  0.00     0.033 C 
HETATM   15  C   UNL     1     -41.403  57.974 -51.038  1.00  0.00     0.013 C 
ENDROOT
BRANCH   3  16
HETATM   16  C   UNL     1     -43.102  59.604 -53.161  1.00  0.00     0.114 C 
BRANCH  16  17
HETATM   17  C   UNL     1     -44.319  60.017 -52.356  1.00  0.00     0.218 C 
HETATM   18  N   UNL     1     -44.062  60.784 -51.248  1.00  0.00    -0.356 N 
HETATM   19  H   UNL     1     -43.083  60.898 -50.971  1.00  0.00     0.162 HD
HETATM   20  O   UNL     1     -45.447  59.653 -52.682  1.00  0.00    -0.274 OA
BRANCH  18  21
HETATM   21  C   UNL     1     -45.075  61.042 -50.250  1.00  0.00     0.084 C 
HETATM   22  C   UNL     1     -44.469  61.304 -48.873  1.00  0.00     0.025 C 
HETATM   23  C   UNL     1     -45.492  62.165 -48.136  1.00  0.00     0.002 C 
HETATM   24  C   UNL     1     -46.499  62.637 -49.183  1.00  0.00     0.002 C 
HETATM   25  C   UNL     1     -45.881  62.302 -50.532  1.00  0.00     0.025 C 
ENDBRANCH  18  21
ENDBRANCH  16  17
ENDBRANCH   3  16
BRANCH  11  26
HETATM   26  C   UNL     1     -43.213  54.555 -52.584  1.00  0.00     0.176 C 
BRANCH  26  27
HETATM   27  O   UNL     1     -43.960  53.767 -51.659  1.00  0.00    -0.400 OA
HETATM   28  H   UNL     1     -44.825  54.221 -51.590  1.00  0.00     0.209 HD
ENDBRANCH  26  27
ENDBRANCH  11  26
BRANCH   7  29
HETATM   29  N   UNL     1     -44.833  57.307 -57.584  1.00  0.00    -0.304 N 
HETATM   30  C   UNL     1     -44.553  58.121 -58.657  1.00  0.00     0.247 C 
HETATM   31  O   UNL     1     -43.527  58.767 -58.845  1.00  0.00    -0.271 OA
HETATM   32  H   UNL     1     -45.690  56.770 -57.588  1.00  0.00     0.171 HD
BRANCH  30  33
HETATM   33  C   UNL     1     -45.678  58.095 -59.695  1.00  0.00     0.270 C 
BRANCH  33  34
HETATM   34  O   UNL     1     -46.747  57.218 -59.339  1.00  0.00    -0.387 OA
HETATM   35  C   UNL     1     -47.031  56.281 -60.374  1.00  0.00     0.202 C 
ENDBRANCH  33  34
ENDBRANCH  30  33
ENDBRANCH   7  29
BRANCH  13  36
HETATM   36  O   UNL     1     -43.497  56.106 -50.385  1.00  0.00    -0.395 OA
HETATM   37  H   UNL     1     -43.509  56.792 -49.691  1.00  0.00     0.210 HD
ENDBRANCH  13  36
TORSDOF 9
ENDMDL
MODEL 5
REMARK VINA RESULT:      -7.1      3.254      7.494
REMARK  9 active torsions:
REMARK  status: ('A' for Active; 'I' for Inactive)
REMARK    1  A    between atoms: C_3  and  C_4 
REMARK    2  A    between atoms: C_4  and  C_5 
REMARK       I    between atoms: C_5  and  N_6 
REMARK    3  A    between atoms: N_6  and  C_7 
REMARK    4  A    between atoms: C_16  and  N_17 
REMARK       I    between atoms: N_17  and  C_18 
REMARK    5  A    between atoms: C_18  and  C_19 
REMARK    6  A    between atoms: C_19  and  O_20 
REMARK    7  A    between atoms: C_26  and  C_27 
REMARK    8  A    between atoms: C_27  and  O_28 
REMARK    9  A    between atoms: C_30  and  O_31 
ROOT
HETATM    1  C   UNL     1     -44.569  54.755 -54.454  1.00  0.00     0.016 C 
HETATM    2  C   UNL     1     -43.444  55.611 -53.791  1.00  0.00    -0.030 C 
HETATM    3  C   UNL     1     -42.364  56.014 -54.885  1.00  0.00     0.056 C 
HETATM    4  C   UNL     1     -42.887  57.137 -55.753  1.00  0.00     0.056 A 
HETATM    5  C   UNL     1     -43.954  57.943 -55.410  1.00  0.00     0.012 A 
HETATM    6  S   UNL     1     -44.186  59.157 -56.583  1.00  0.00    -0.055 SA
HETATM    7  C   UNL     1     -42.883  58.504 -57.473  1.00  0.00     0.174 A 
HETATM    8  N   UNL     1     -42.282  57.462 -56.954  1.00  0.00    -0.227 NA
HETATM    9  C   UNL     1     -44.811  57.797 -54.203  1.00  0.00     0.055 C 
HETATM   10  C   UNL     1     -44.126  56.891 -53.140  1.00  0.00     0.012 C 
HETATM   11  C   UNL     1     -43.246  57.692 -52.087  1.00  0.00     0.008 C 
HETATM   12  C   UNL     1     -44.235  58.322 -51.058  1.00  0.00     0.020 C 
HETATM   13  C   UNL     1     -42.315  56.738 -51.277  1.00  0.00     0.128 C 
HETATM   14  C   UNL     1     -42.813  55.298 -51.289  1.00  0.00     0.033 C 
HETATM   15  C   UNL     1     -42.782  54.713 -52.698  1.00  0.00     0.013 C 
ENDROOT
BRANCH   3  16
HETATM   16  C   UNL     1     -41.871  54.821 -55.732  1.00  0.00     0.114 C 
BRANCH  16  17
HETATM   17  C   UNL     1     -40.676  54.108 -55.128  1.00  0.00     0.218 C 
HETATM   18  N   UNL     1     -40.874  52.787 -54.815  1.00  0.00    -0.356 N 
HETATM   19  H   UNL     1     -41.831  52.427 -54.875  1.00  0.00     0.162 HD
HETATM   20  O   UNL     1     -39.621  54.704 -54.920  1.00  0.00    -0.274 OA
BRANCH  18  21
HETATM   21  C   UNL     1     -39.929  52.047 -54.011  1.00  0.00     0.084 C 
HETATM   22  C   UNL     1     -40.097  52.334 -52.520  1.00  0.00     0.025 C 
HETATM   23  C   UNL     1     -39.568  51.093 -51.805  1.00  0.00     0.002 C 
HETATM   24  C   UNL     1     -39.405  50.012 -52.871  1.00  0.00     0.002 C 
HETATM   25  C   UNL     1     -40.118  50.539 -54.107  1.00  0.00     0.025 C 
ENDBRANCH  18  21
ENDBRANCH  16  17
ENDBRANCH   3  16
BRANCH  11  26
HETATM   26  C   UNL     1     -42.439  58.865 -52.705  1.00  0.00     0.176 C 
BRANCH  26  27
HETATM   27  O   UNL     1     -41.732  59.593 -51.702  1.00  0.00    -0.400 OA
HETATM   28  H   UNL     1     -41.074  58.958 -51.354  1.00  0.00     0.209 HD
ENDBRANCH  26  27
ENDBRANCH  11  26
BRANCH   7  29
HETATM   29  N   UNL     1     -42.606  59.169 -58.628  1.00  0.00    -0.304 N 
HETATM   30  C   UNL     1     -41.746  60.242 -58.681  1.00  0.00     0.247 C 
HETATM   31  O   UNL     1     -41.040  60.667 -57.772  1.00  0.00    -0.271 OA
HETATM   32  H   UNL     1     -43.076  58.877 -59.475  1.00  0.00     0.171 HD
BRANCH  30  33
HETATM   33  C   UNL     1     -41.695  60.857 -60.082  1.00  0.00     0.270 C 
BRANCH  33  34
HETATM   34  O   UNL     1     -42.262  60.014 -61.084  1.00  0.00    -0.387 OA
HETATM   35  C   UNL     1     -43.179  60.721 -61.915  1.00  0.00     0.202 C 
ENDBRANCH  33  34
ENDBRANCH  30  33
ENDBRANCH   7  29
BRANCH  13  36
HETATM   36  O   UNL     1     -40.981  56.774 -51.796  1.00  0.00    -0.395 OA
HETATM   37  H   UNL     1     -41.038  56.913 -52.759  1.00  0.00     0.210 HD
ENDBRANCH  13  36
TORSDOF 9
ENDMDL
MODEL 6
REMARK VINA RESULT:      -6.7      3.888      7.652
REMARK  9 active torsions:
REMARK  status: ('A' for Active; 'I' for Inactive)
REMARK    1  A    between atoms: C_3  and  C_4 
REMARK    2  A    between atoms: C_4  and  C_5 
REMARK       I    between atoms: C_5  and  N_6 
REMARK    3  A    between atoms: N_6  and  C_7 
REMARK    4  A    between atoms: C_16  and  N_17 
REMARK       I    between atoms: N_17  and  C_18 
REMARK    5  A    between atoms: C_18  and  C_19 
REMARK    6  A    between atoms: C_19  and  O_20 
REMARK    7  A    between atoms: C_26  and  C_27 
REMARK    8  A    between atoms: C_27  and  O_28 
REMARK    9  A    between atoms: C_30  and  O_31 
ROOT
HETATM    1  C   UNL     1     -45.338  57.629 -55.004  1.00  0.00     0.016 C 
HETATM    2  C   UNL     1     -44.425  58.203 -53.876  1.00  0.00    -0.030 C 
HETATM    3  C   UNL     1     -42.966  58.467 -54.451  1.00  0.00     0.056 C 
HETATM    4  C   UNL     1     -42.950  59.729 -55.286  1.00  0.00     0.056 A 
HETATM    5  C   UNL     1     -43.931  60.699 -55.236  1.00  0.00     0.012 A 
HETATM    6  S   UNL     1     -43.519  62.015 -56.237  1.00  0.00    -0.055 SA
HETATM    7  C   UNL     1     -42.096  61.188 -56.688  1.00  0.00     0.174 A 
HETATM    8  N   UNL     1     -41.898  60.014 -56.139  1.00  0.00    -0.227 NA
HETATM    9  C   UNL     1     -45.187  60.635 -54.442  1.00  0.00     0.055 C 
HETATM   10  C   UNL     1     -45.095  59.541 -53.339  1.00  0.00     0.012 C 
HETATM   11  C   UNL     1     -44.558  60.080 -51.945  1.00  0.00     0.008 C 
HETATM   12  C   UNL     1     -45.750  60.815 -51.256  1.00  0.00     0.020 C 
HETATM   13  C   UNL     1     -44.154  58.909 -50.996  1.00  0.00     0.128 C 
HETATM   14  C   UNL     1     -44.827  57.597 -51.380  1.00  0.00     0.033 C 
HETATM   15  C   UNL     1     -44.363  57.119 -52.753  1.00  0.00     0.013 C 
ENDROOT
BRANCH   3  16
HETATM   16  C   UNL     1     -42.383  57.265 -55.223  1.00  0.00     0.114 C 
BRANCH  16  17
HETATM   17  C   UNL     1     -41.296  56.530 -54.461  1.00  0.00     0.218 C 
HETATM   18  N   UNL     1     -41.242  55.175 -54.670  1.00  0.00    -0.356 N 
HETATM   19  H   UNL     1     -42.010  54.749 -55.197  1.00  0.00     0.162 HD
HETATM   20  O   UNL     1     -40.544  57.129 -53.695  1.00  0.00    -0.274 OA
BRANCH  18  21
HETATM   21  C   UNL     1     -40.441  54.309 -53.835  1.00  0.00     0.084 C 
HETATM   22  C   UNL     1     -41.075  54.086 -52.464  1.00  0.00     0.025 C 
HETATM   23  C   UNL     1     -40.544  52.737 -51.985  1.00  0.00     0.002 C 
HETATM   24  C   UNL     1     -39.882  52.076 -53.192  1.00  0.00     0.002 C 
HETATM   25  C   UNL     1     -40.303  52.901 -54.398  1.00  0.00     0.025 C 
ENDBRANCH  18  21
ENDBRANCH  16  17
ENDBRANCH   3  16
BRANCH  11  26
HETATM   26  C   UNL     1     -43.410  61.117 -52.070  1.00  0.00     0.176 C 
BRANCH  26  27
HETATM   27  O   UNL     1     -42.940  61.528 -50.788  1.00  0.00    -0.400 OA
HETATM   28  H   UNL     1     -43.242  60.825 -50.177  1.00  0.00     0.209 HD
ENDBRANCH  26  27
ENDBRANCH  11  26
BRANCH   7  29
HETATM   29  N   UNL     1     -41.309  61.867 -57.569  1.00  0.00    -0.304 N 
HETATM   30  C   UNL     1     -41.341  61.637 -58.924  1.00  0.00     0.247 C 
HETATM   31  O   UNL     1     -42.123  60.912 -59.532  1.00  0.00    -0.271 OA
HETATM   32  H   UNL     1     -40.657  62.548 -57.203  1.00  0.00     0.171 HD
BRANCH  30  33
HETATM   33  C   UNL     1     -40.288  62.467 -59.663  1.00  0.00     0.270 C 
BRANCH  33  34
HETATM   34  O   UNL     1     -39.831  63.589 -58.909  1.00  0.00    -0.387 OA
HETATM   35  C   UNL     1     -38.636  64.144 -59.454  1.00  0.00     0.202 C 
ENDBRANCH  33  34
ENDBRANCH  30  33
ENDBRANCH   7  29
BRANCH  13  36
HETATM   36  O   UNL     1     -42.735  58.725 -51.000  1.00  0.00    -0.395 OA
HETATM   37  H   UNL     1     -42.340  59.435 -50.461  1.00  0.00     0.210 HD
ENDBRANCH  13  36
TORSDOF 9
ENDMDL
MODEL 7
REMARK VINA RESULT:      -6.6      2.138      2.701
REMARK  9 active torsions:
REMARK  status: ('A' for Active; 'I' for Inactive)
REMARK    1  A    between atoms: C_3  and  C_4 
REMARK    2  A    between atoms: C_4  and  C_5 
REMARK       I    between atoms: C_5  and  N_6 
REMARK    3  A    between atoms: N_6  and  C_7 
REMARK    4  A    between atoms: C_16  and  N_17 
REMARK       I    between atoms: N_17  and  C_18 
REMARK    5  A    between atoms: C_18  and  C_19 
REMARK    6  A    between atoms: C_19  and  O_20 
REMARK    7  A    between atoms: C_26  and  C_27 
REMARK    8  A    between atoms: C_27  and  O_28 
REMARK    9  A    between atoms: C_30  and  O_31 
ROOT
HETATM    1  C   UNL     1     -41.730  60.010 -55.024  1.00  0.00     0.016 C 
HETATM    2  C   UNL     1     -43.072  59.683 -54.298  1.00  0.00    -0.030 C 
HETATM    3  C   UNL     1     -43.582  58.242 -54.737  1.00  0.00     0.056 C 
HETATM    4  C   UNL     1     -42.786  57.165 -54.033  1.00  0.00     0.056 A 
HETATM    5  C   UNL     1     -42.019  57.385 -52.907  1.00  0.00     0.012 A 
HETATM    6  S   UNL     1     -41.356  55.921 -52.342  1.00  0.00    -0.055 SA
HETATM    7  C   UNL     1     -42.102  55.114 -53.648  1.00  0.00     0.174 A 
HETATM    8  N   UNL     1     -42.818  55.850 -54.462  1.00  0.00    -0.227 NA
HETATM    9  C   UNL     1     -41.773  58.700 -52.258  1.00  0.00     0.055 C 
HETATM   10  C   UNL     1     -42.809  59.759 -52.731  1.00  0.00     0.012 C 
HETATM   11  C   UNL     1     -44.100  59.849 -51.810  1.00  0.00     0.008 C 
HETATM   12  C   UNL     1     -43.696  60.667 -50.544  1.00  0.00     0.020 C 
HETATM   13  C   UNL     1     -45.244  60.650 -52.506  1.00  0.00     0.128 C 
HETATM   14  C   UNL     1     -44.721  61.568 -53.603  1.00  0.00     0.033 C 
HETATM   15  C   UNL     1     -44.102  60.769 -54.745  1.00  0.00     0.013 C 
ENDROOT
BRANCH   3  16
HETATM   16  C   UNL     1     -43.593  58.035 -56.267  1.00  0.00     0.114 C 
BRANCH  16  17
HETATM   17  C   UNL     1     -44.978  57.773 -56.828  1.00  0.00     0.218 C 
HETATM   18  N   UNL     1     -45.013  57.287 -58.110  1.00  0.00    -0.356 N 
HETATM   19  H   UNL     1     -44.133  57.275 -58.634  1.00  0.00     0.162 HD
HETATM   20  O   UNL     1     -45.985  58.013 -56.165  1.00  0.00    -0.274 OA
BRANCH  18  21
HETATM   21  C   UNL     1     -46.243  57.228 -58.867  1.00  0.00     0.084 C 
HETATM   22  C   UNL     1     -46.498  58.515 -59.648  1.00  0.00     0.025 C 
HETATM   23  C   UNL     1     -47.371  58.107 -60.832  1.00  0.00     0.002 C 
HETATM   24  C   UNL     1     -47.341  56.581 -60.889  1.00  0.00     0.002 C 
HETATM   25  C   UNL     1     -46.227  56.154 -59.946  1.00  0.00     0.025 C 
ENDBRANCH  18  21
ENDBRANCH  16  17
ENDBRANCH   3  16
BRANCH  11  26
HETATM   26  C   UNL     1     -44.611  58.473 -51.306  1.00  0.00     0.176 C 
BRANCH  26  27
HETATM   27  O   UNL     1     -45.523  58.624 -50.220  1.00  0.00    -0.400 OA
HETATM   28  H   UNL     1     -46.277  58.042 -50.448  1.00  0.00     0.209 HD
ENDBRANCH  26  27
ENDBRANCH  11  26
BRANCH   7  29
HETATM   29  N   UNL     1     -41.877  53.771 -53.678  1.00  0.00    -0.304 N 
HETATM   30  C   UNL     1     -40.849  53.206 -54.396  1.00  0.00     0.247 C 
HETATM   31  O   UNL     1     -39.952  53.796 -54.990  1.00  0.00    -0.271 OA
HETATM   32  H   UNL     1     -42.511  53.166 -53.172  1.00  0.00     0.171 HD
BRANCH  30  33
HETATM   33  C   UNL     1     -40.888  51.677 -54.332  1.00  0.00     0.270 C 
BRANCH  33  34
HETATM   34  O   UNL     1     -39.760  51.116 -53.660  1.00  0.00    -0.387 OA
HETATM   35  C   UNL     1     -39.496  49.783 -54.088  1.00  0.00     0.202 C 
ENDBRANCH  33  34
ENDBRANCH  30  33
ENDBRANCH   7  29
BRANCH  13  36
HETATM   36  O   UNL     1     -46.215  59.760 -53.065  1.00  0.00    -0.395 OA
HETATM   37  H   UNL     1     -45.808  59.318 -53.834  1.00  0.00     0.210 HD
ENDBRANCH  13  36
TORSDOF 9
ENDMDL
MODEL 8
REMARK VINA RESULT:      -6.3      1.993      3.312
REMARK  9 active torsions:
REMARK  status: ('A' for Active; 'I' for Inactive)
REMARK    1  A    between atoms: C_3  and  C_4 
REMARK    2  A    between atoms: C_4  and  C_5 
REMARK       I    between atoms: C_5  and  N_6 
REMARK    3  A    between atoms: N_6  and  C_7 
REMARK    4  A    between atoms: C_16  and  N_17 
REMARK       I    between atoms: N_17  and  C_18 
REMARK    5  A    between atoms: C_18  and  C_19 
REMARK    6  A    between atoms: C_19  and  O_20 
REMARK    7  A    between atoms: C_26  and  C_27 
REMARK    8  A    between atoms: C_27  and  O_28 
REMARK    9  A    between atoms: C_30  and  O_31 
ROOT
HETATM    1  C   UNL     1     -42.852  62.343 -53.669  1.00  0.00     0.016 C 
HETATM    2  C   UNL     1     -44.032  61.476 -53.130  1.00  0.00    -0.030 C 
HETATM    3  C   UNL     1     -44.032  60.061 -53.856  1.00  0.00     0.056 C 
HETATM    4  C   UNL     1     -42.946  59.176 -53.283  1.00  0.00     0.056 A 
HETATM    5  C   UNL     1     -42.323  59.406 -52.073  1.00  0.00     0.012 A 
HETATM    6  S   UNL     1     -41.233  58.146 -51.715  1.00  0.00    -0.055 SA
HETATM    7  C   UNL     1     -41.640  57.412 -53.201  1.00  0.00     0.174 A 
HETATM    8  N   UNL     1     -42.536  58.027 -53.934  1.00  0.00    -0.227 NA
HETATM    9  C   UNL     1     -42.537  60.581 -51.186  1.00  0.00     0.055 C 
HETATM   10  C   UNL     1     -43.849  61.328 -51.557  1.00  0.00     0.012 C 
HETATM   11  C   UNL     1     -45.123  60.827 -50.750  1.00  0.00     0.008 C 
HETATM   12  C   UNL     1     -45.040  61.471 -49.332  1.00  0.00     0.020 C 
HETATM   13  C   UNL     1     -46.447  61.343 -51.393  1.00  0.00     0.128 C 
HETATM   14  C   UNL     1     -46.224  62.573 -52.265  1.00  0.00     0.033 C 
HETATM   15  C   UNL     1     -45.348  62.245 -53.470  1.00  0.00     0.013 C 
ENDROOT
BRANCH   3  16
HETATM   16  C   UNL     1     -43.935  60.159 -55.393  1.00  0.00     0.114 C 
BRANCH  16  17
HETATM   17  C   UNL     1     -44.500  58.947 -56.110  1.00  0.00     0.218 C 
HETATM   18  N   UNL     1     -43.640  58.319 -56.975  1.00  0.00    -0.356 N 
HETATM   19  H   UNL     1     -42.753  58.787 -57.180  1.00  0.00     0.162 HD
HETATM   20  O   UNL     1     -45.661  58.588 -55.926  1.00  0.00    -0.274 OA
BRANCH  18  21
HETATM   21  C   UNL     1     -44.101  57.319 -57.911  1.00  0.00     0.084 C 
HETATM   22  C   UNL     1     -44.144  57.849 -59.342  1.00  0.00     0.025 C 
HETATM   23  C   UNL     1     -43.989  56.620 -60.236  1.00  0.00     0.002 C 
HETATM   24  C   UNL     1     -43.550  55.474 -59.327  1.00  0.00     0.002 C 
HETATM   25  C   UNL     1     -43.169  56.117 -58.003  1.00  0.00     0.025 C 
ENDBRANCH  18  21
ENDBRANCH  16  17
ENDBRANCH   3  16
BRANCH  11  26
HETATM   26  C   UNL     1     -45.168  59.290 -50.539  1.00  0.00     0.176 C 
BRANCH  26  27
HETATM   27  O   UNL     1     -45.961  58.945 -49.404  1.00  0.00    -0.400 OA
HETATM   28  H   UNL     1     -46.703  58.422 -49.771  1.00  0.00     0.209 HD
ENDBRANCH  26  27
ENDBRANCH  11  26
BRANCH   7  29
HETATM   29  N   UNL     1     -40.988  56.241 -53.444  1.00  0.00    -0.304 N 
HETATM   30  C   UNL     1     -41.561  55.011 -53.220  1.00  0.00     0.247 C 
HETATM   31  O   UNL     1     -42.723  54.785 -52.900  1.00  0.00    -0.271 OA
HETATM   32  H   UNL     1     -40.033  56.284 -53.775  1.00  0.00     0.171 HD
BRANCH  30  33
HETATM   33  C   UNL     1     -40.573  53.871 -53.484  1.00  0.00     0.270 C 
BRANCH  33  34
HETATM   34  O   UNL     1     -40.673  52.813 -52.531  1.00  0.00    -0.387 OA
HETATM   35  C   UNL     1     -39.865  53.055 -51.382  1.00  0.00     0.202 C 
ENDBRANCH  33  34
ENDBRANCH  30  33
ENDBRANCH   7  29
BRANCH  13  36
HETATM   36  O   UNL     1     -47.059  60.317 -52.181  1.00  0.00    -0.395 OA
HETATM   37  H   UNL     1     -47.420  60.733 -52.986  1.00  0.00     0.210 HD
ENDBRANCH  13  36
TORSDOF 9
ENDMDL
MODEL 9
REMARK VINA RESULT:      -6.3      3.070      6.468
REMARK  9 active torsions:
REMARK  status: ('A' for Active; 'I' for Inactive)
REMARK    1  A    between atoms: C_3  and  C_4 
REMARK    2  A    between atoms: C_4  and  C_5 
REMARK       I    between atoms: C_5  and  N_6 
REMARK    3  A    between atoms: N_6  and  C_7 
REMARK    4  A    between atoms: C_16  and  N_17 
REMARK       I    between atoms: N_17  and  C_18 
REMARK    5  A    between atoms: C_18  and  C_19 
REMARK    6  A    between atoms: C_19  and  O_20 
REMARK    7  A    between atoms: C_26  and  C_27 
REMARK    8  A    between atoms: C_27  and  O_28 
REMARK    9  A    between atoms: C_30  and  O_31 
ROOT
HETATM    1  C   UNL     1     -46.539  58.999 -57.064  1.00  0.00     0.016 C 
HETATM    2  C   UNL     1     -45.159  59.680 -56.805  1.00  0.00    -0.030 C 
HETATM    3  C   UNL     1     -44.404  58.927 -55.626  1.00  0.00     0.056 C 
HETATM    4  C   UNL     1     -43.816  57.625 -56.124  1.00  0.00     0.056 A 
HETATM    5  C   UNL     1     -43.623  57.327 -57.458  1.00  0.00     0.012 A 
HETATM    6  S   UNL     1     -42.846  55.820 -57.626  1.00  0.00    -0.055 SA
HETATM    7  C   UNL     1     -42.857  55.659 -55.926  1.00  0.00     0.174 A 
HETATM    8  N   UNL     1     -43.381  56.649 -55.246  1.00  0.00    -0.227 NA
HETATM    9  C   UNL     1     -44.031  58.171 -58.613  1.00  0.00     0.055 C 
HETATM   10  C   UNL     1     -44.329  59.629 -58.160  1.00  0.00     0.012 C 
HETATM   11  C   UNL     1     -43.070  60.596 -58.244  1.00  0.00     0.008 C 
HETATM   12  C   UNL     1     -42.904  60.990 -59.745  1.00  0.00     0.020 C 
HETATM   13  C   UNL     1     -43.316  61.924 -57.464  1.00  0.00     0.128 C 
HETATM   14  C   UNL     1     -44.800  62.213 -57.268  1.00  0.00     0.033 C 
HETATM   15  C   UNL     1     -45.457  61.155 -56.387  1.00  0.00     0.013 C 
ENDROOT
BRANCH   3  16
HETATM   16  C   UNL     1     -45.279  58.714 -54.372  1.00  0.00     0.114 C 
BRANCH  16  17
HETATM   17  C   UNL     1     -44.629  59.207 -53.093  1.00  0.00     0.218 C 
HETATM   18  N   UNL     1     -43.394  58.676 -52.817  1.00  0.00    -0.356 N 
HETATM   19  H   UNL     1     -43.074  57.899 -53.402  1.00  0.00     0.162 HD
HETATM   20  O   UNL     1     -45.202  60.009 -52.360  1.00  0.00    -0.274 OA
BRANCH  18  21
HETATM   21  C   UNL     1     -42.764  58.848 -51.528  1.00  0.00     0.084 C 
HETATM   22  C   UNL     1     -41.802  57.708 -51.204  1.00  0.00     0.025 C 
HETATM   23  C   UNL     1     -40.781  58.300 -50.235  1.00  0.00     0.002 C 
HETATM   24  C   UNL     1     -40.980  59.814 -50.265  1.00  0.00     0.002 C 
HETATM   25  C   UNL     1     -41.885  60.089 -51.456  1.00  0.00     0.025 C 
ENDBRANCH  18  21
ENDBRANCH  16  17
ENDBRANCH   3  16
BRANCH  11  26
HETATM   26  C   UNL     1     -41.737  59.932 -57.808  1.00  0.00     0.176 C 
BRANCH  26  27
HETATM   27  O   UNL     1     -40.671  60.880 -57.778  1.00  0.00    -0.400 OA
HETATM   28  H   UNL     1     -40.886  61.469 -57.026  1.00  0.00     0.209 HD
ENDBRANCH  26  27
ENDBRANCH  11  26
BRANCH   7  29
HETATM   29  N   UNL     1     -42.291  54.507 -55.470  1.00  0.00    -0.304 N 
HETATM   30  C   UNL     1     -41.002  54.451 -54.993  1.00  0.00     0.247 C 
HETATM   31  O   UNL     1     -40.245  55.396 -54.801  1.00  0.00    -0.271 OA
HETATM   32  H   UNL     1     -42.836  53.655 -55.512  1.00  0.00     0.171 HD
BRANCH  30  33
HETATM   33  C   UNL     1     -40.593  53.018 -54.640  1.00  0.00     0.270 C 
BRANCH  33  34
HETATM   34  O   UNL     1     -40.021  52.905 -53.337  1.00  0.00    -0.387 OA
HETATM   35  C   UNL     1     -40.958  53.236 -52.315  1.00  0.00     0.202 C 
ENDBRANCH  33  34
ENDBRANCH  30  33
ENDBRANCH   7  29
BRANCH  13  36
HETATM   36  O   UNL     1     -42.677  61.883 -56.184  1.00  0.00    -0.395 OA
HETATM   37  H   UNL     1     -42.892  61.027 -55.769  1.00  0.00     0.210 HD
ENDBRANCH  13  36
TORSDOF 9
ENDMDL
MODEL 10
REMARK VINA RESULT:      -6.2      4.180      7.469
REMARK  9 active torsions:
REMARK  status: ('A' for Active; 'I' for Inactive)
REMARK    1  A    between atoms: C_3  and  C_4 
REMARK    2  A    between atoms: C_4  and  C_5 
REMARK       I    between atoms: C_5  and  N_6 
REMARK    3  A    between atoms: N_6  and  C_7 
REMARK    4  A    between atoms: C_16  and  N_17 
REMARK       I    between atoms: N_17  and  C_18 
REMARK    5  A    between atoms: C_18  and  C_19 
REMARK    6  A    between atoms: C_19  and  O_20 
REMARK    7  A    between atoms: C_26  and  C_27 
REMARK    8  A    between atoms: C_27  and  O_28 
REMARK    9  A    between atoms: C_30  and  O_31 
ROOT
HETATM    1  C   UNL     1     -44.624  57.208 -54.115  1.00  0.00     0.016 C 
HETATM    2  C   UNL     1     -43.352  57.994 -53.669  1.00  0.00    -0.030 C 
HETATM    3  C   UNL     1     -43.599  59.555 -53.843  1.00  0.00     0.056 C 
HETATM    4  C   UNL     1     -44.474  60.077 -52.724  1.00  0.00     0.056 A 
HETATM    5  C   UNL     1     -44.694  59.403 -51.540  1.00  0.00     0.012 A 
HETATM    6  S   UNL     1     -45.645  60.345 -50.485  1.00  0.00    -0.055 SA
HETATM    7  C   UNL     1     -45.724  61.555 -51.686  1.00  0.00     0.174 A 
HETATM    8  N   UNL     1     -45.084  61.316 -52.805  1.00  0.00    -0.227 NA
HETATM    9  C   UNL     1     -44.198  58.042 -51.200  1.00  0.00     0.055 C 
HETATM   10  C   UNL     1     -43.048  57.613 -52.156  1.00  0.00     0.012 C 
HETATM   11  C   UNL     1     -41.599  57.982 -51.620  1.00  0.00     0.008 C 
HETATM   12  C   UNL     1     -41.232  56.917 -50.540  1.00  0.00     0.020 C 
HETATM   13  C   UNL     1     -40.525  57.857 -52.745  1.00  0.00     0.128 C 
HETATM   14  C   UNL     1     -40.981  56.950 -53.880  1.00  0.00     0.033 C 
HETATM   15  C   UNL     1     -42.189  57.535 -54.605  1.00  0.00     0.013 C 
ENDROOT
BRANCH   3  16
HETATM   16  C   UNL     1     -44.159  59.938 -55.229  1.00  0.00     0.114 C 
BRANCH  16  17
HETATM   17  C   UNL     1     -43.094  60.017 -56.307  1.00  0.00     0.218 C 
HETATM   18  N   UNL     1     -43.428  59.446 -57.509  1.00  0.00    -0.356 N 
HETATM   19  H   UNL     1     -44.290  58.896 -57.546  1.00  0.00     0.162 HD
HETATM   20  O   UNL     1     -42.004  60.540 -56.083  1.00  0.00    -0.274 OA
BRANCH  18  21
HETATM   21  C   UNL     1     -42.442  59.217 -58.541  1.00  0.00     0.084 C 
HETATM   22  C   UNL     1     -42.248  57.729 -58.827  1.00  0.00     0.025 C 
HETATM   23  C   UNL     1     -41.752  57.654 -60.269  1.00  0.00     0.002 C 
HETATM   24  C   UNL     1     -41.968  59.038 -60.877  1.00  0.00     0.002 C 
HETATM   25  C   UNL     1     -42.849  59.790 -59.891  1.00  0.00     0.025 C 
ENDBRANCH  18  21
ENDBRANCH  16  17
ENDBRANCH   3  16
BRANCH  11  26
HETATM   26  C   UNL     1     -41.519  59.367 -50.924  1.00  0.00     0.176 C 
BRANCH  26  27
HETATM   27  O   UNL     1     -41.169  59.236 -49.547  1.00  0.00    -0.400 OA
HETATM   28  H   UNL     1     -40.876  58.306 -49.454  1.00  0.00     0.209 HD
ENDBRANCH  26  27
ENDBRANCH  11  26
BRANCH   7  29
HETATM   29  N   UNL     1     -46.441  62.656 -51.325  1.00  0.00    -0.304 N 
HETATM   30  C   UNL     1     -47.700  62.916 -51.815  1.00  0.00     0.247 C 
HETATM   31  O   UNL     1     -48.384  62.181 -52.519  1.00  0.00    -0.271 OA
HETATM   32  H   UNL     1     -46.015  63.320 -50.692  1.00  0.00     0.171 HD
BRANCH  30  33
HETATM   33  C   UNL     1     -48.230  64.265 -51.320  1.00  0.00     0.270 C 
BRANCH  33  34
HETATM   34  O   UNL     1     -49.331  64.136 -50.421  1.00  0.00    -0.387 OA
HETATM   35  C   UNL     1     -48.902  64.067 -49.064  1.00  0.00     0.202 C 
ENDBRANCH  33  34
ENDBRANCH  30  33
ENDBRANCH   7  29
BRANCH  13  36
HETATM   36  O   UNL     1     -40.202  59.145 -53.278  1.00  0.00    -0.395 OA
HETATM   37  H   UNL     1     -40.379  59.126 -54.236  1.00  0.00     0.210 HD
ENDBRANCH  13  36
TORSDOF 9
ENDMDL
