MODEL 1
REMARK VINA RESULT:      -7.9      0.000      0.000
REMARK  9 active torsions:
REMARK  status: ('A' for Active; 'I' for Inactive)
REMARK    1  A    between atoms: C_2  and  O_3 
REMARK    2  A    between atoms: O_3  and  C_4 
REMARK    3  A    between atoms: C_4  and  C_5 
REMARK    4  A    between atoms: C_8  and  N_9 
REMARK       I    between atoms: N_9  and  C_10 
REMARK    5  A    between atoms: C_10  and  C_11 
REMARK    6  A    between atoms: C_11  and  C_12 
REMARK    7  A    between atoms: N_13  and  C_14 
REMARK    8  A    between atoms: C_14  and  C_15 
REMARK    9  A    between atoms: N_23  and  C_24 
ROOT
HETATM    1  C   UNL     1     -44.218  59.400 -51.616  1.00  0.00     0.191 C 
HETATM    2  N   UNL     1     -43.764  60.741 -51.925  1.00  0.00    -0.315 N 
HETATM    3  C   UNL     1     -44.001  61.593 -50.843  1.00  0.00     0.333 C 
HETATM    4  O   UNL     1     -43.391  62.641 -50.687  1.00  0.00    -0.246 OA
HETATM    5  N   UNL     1     -44.962  61.008 -50.038  1.00  0.00    -0.232 N 
HETATM    6  C   UNL     1     -45.229  59.742 -50.521  1.00  0.00     0.256 C 
HETATM    7  O   UNL     1     -46.074  58.933 -50.160  1.00  0.00    -0.270 OA
ENDROOT
BRANCH   1   8
HETATM    8  C   UNL     1     -43.086  58.550 -51.047  1.00  0.00     0.138 C 
BRANCH   8   9
HETATM    9  C   UNL     1     -42.989  57.186 -51.695  1.00  0.00     0.224 C 
HETATM   10  N   UNL     1     -41.696  56.831 -52.041  1.00  0.00    -0.327 N 
HETATM   11  H   UNL     1     -40.965  57.516 -51.893  1.00  0.00     0.169 HD
HETATM   12  O   UNL     1     -43.995  56.497 -51.822  1.00  0.00    -0.273 OA
BRANCH  10  13
HETATM   13  C   UNL     1     -41.256  55.567 -52.494  1.00  0.00     0.034 A 
HETATM   14  C   UNL     1     -41.079  55.234 -53.840  1.00  0.00     0.030 A 
HETATM   15  C   UNL     1     -40.681  53.943 -54.214  1.00  0.00     0.020 A 
HETATM   16  C   UNL     1     -40.450  52.963 -53.244  1.00  0.00     0.039 A 
HETATM   17  C   UNL     1     -40.618  53.293 -51.894  1.00  0.00     0.020 A 
HETATM   18  C   UNL     1     -41.016  54.585 -51.524  1.00  0.00     0.030 A 
BRANCH  16  19
HETATM   19  C   UNL     1     -40.026  51.577 -53.585  1.00  0.00     0.293 C 
HETATM   20  O   UNL     1     -40.391  50.994 -54.594  1.00  0.00    -0.259 OA
BRANCH  19  21
HETATM   21  O   UNL     1     -39.203  51.079 -52.630  1.00  0.00    -0.318 OA
BRANCH  21  22
HETATM   22  C   UNL     1     -39.522  49.764 -52.150  1.00  0.00     0.174 C 
HETATM   23  C   UNL     1     -39.798  49.795 -50.659  1.00  0.00     0.034 C 
ENDBRANCH  21  22
ENDBRANCH  19  21
ENDBRANCH  16  19
ENDBRANCH  10  13
ENDBRANCH   8   9
ENDBRANCH   1   8
BRANCH   2  24
HETATM   24  C   UNL     1     -42.747  61.011 -52.926  1.00  0.00     0.168 C 
BRANCH  24  25
HETATM   25  C   UNL     1     -42.989  60.291 -54.222  1.00  0.00    -0.023 A 
HETATM   26  C   UNL     1     -44.087  60.588 -55.023  1.00  0.00     0.125 A 
HETATM   27  N   UNL     1     -44.357  59.983 -56.202  1.00  0.00    -0.273 NA
HETATM   28  C   UNL     1     -43.476  59.047 -56.618  1.00  0.00     0.116 A 
HETATM   29  C   UNL     1     -42.348  58.682 -55.907  1.00  0.00     0.020 A 
HETATM   30  C   UNL     1     -42.106  59.313 -54.691  1.00  0.00     0.012 A 
ENDBRANCH  24  25
ENDBRANCH   2  24
BRANCH   5  31
HETATM   31  C   UNL     1     -45.587  61.629 -48.909  1.00  0.00     0.047 A 
HETATM   32  C   UNL     1     -45.130  61.408 -47.598  1.00  0.00     0.031 A 
HETATM   33  C   UNL     1     -45.733  62.016 -46.487  1.00  0.00     0.009 A 
HETATM   34  C   UNL     1     -46.819  62.872 -46.651  1.00  0.00    -0.062 A 
HETATM   35  C   UNL     1     -47.460  63.545 -45.475  1.00  0.00     0.048 C 
HETATM   36  C   UNL     1     -47.285  63.113 -47.943  1.00  0.00     0.009 A 
HETATM   37  C   UNL     1     -46.681  62.496 -49.050  1.00  0.00     0.031 A 
ENDBRANCH   5  31
TORSDOF 9
ENDMDL
MODEL 2
REMARK VINA RESULT:      -7.8      4.946     10.170
REMARK  9 active torsions:
REMARK  status: ('A' for Active; 'I' for Inactive)
REMARK    1  A    between atoms: C_2  and  O_3 
REMARK    2  A    between atoms: O_3  and  C_4 
REMARK    3  A    between atoms: C_4  and  C_5 
REMARK    4  A    between atoms: C_8  and  N_9 
REMARK       I    between atoms: N_9  and  C_10 
REMARK    5  A    between atoms: C_10  and  C_11 
REMARK    6  A    between atoms: C_11  and  C_12 
REMARK    7  A    between atoms: N_13  and  C_14 
REMARK    8  A    between atoms: C_14  and  C_15 
REMARK    9  A    between atoms: N_23  and  C_24 
ROOT
HETATM    1  C   UNL     1     -43.150  56.142 -56.372  1.00  0.00     0.191 C 
HETATM    2  N   UNL     1     -42.539  57.058 -55.430  1.00  0.00    -0.315 N 
HETATM    3  C   UNL     1     -41.613  56.382 -54.630  1.00  0.00     0.333 C 
HETATM    4  O   UNL     1     -40.710  56.959 -54.042  1.00  0.00    -0.246 OA
HETATM    5  N   UNL     1     -41.900  55.031 -54.689  1.00  0.00    -0.232 N 
HETATM    6  C   UNL     1     -42.900  54.834 -55.622  1.00  0.00     0.256 C 
HETATM    7  O   UNL     1     -43.504  53.809 -55.911  1.00  0.00    -0.270 OA
ENDROOT
BRANCH   1   8
HETATM    8  C   UNL     1     -42.406  56.141 -57.705  1.00  0.00     0.138 C 
BRANCH   8   9
HETATM    9  C   UNL     1     -43.334  56.204 -58.899  1.00  0.00     0.224 C 
HETATM   10  N   UNL     1     -44.582  56.724 -58.600  1.00  0.00    -0.327 N 
HETATM   11  H   UNL     1     -44.778  56.948 -57.633  1.00  0.00     0.169 HD
HETATM   12  O   UNL     1     -42.931  55.858 -60.003  1.00  0.00    -0.273 OA
BRANCH  10  13
HETATM   13  C   UNL     1     -45.597  57.074 -59.519  1.00  0.00     0.034 A 
HETATM   14  C   UNL     1     -45.955  58.389 -59.830  1.00  0.00     0.030 A 
HETATM   15  C   UNL     1     -47.004  58.656 -60.720  1.00  0.00     0.020 A 
HETATM   16  C   UNL     1     -47.711  57.608 -61.318  1.00  0.00     0.039 A 
HETATM   17  C   UNL     1     -47.352  56.290 -61.016  1.00  0.00     0.020 A 
HETATM   18  C   UNL     1     -46.303  56.026 -60.125  1.00  0.00     0.030 A 
BRANCH  16  19
HETATM   19  C   UNL     1     -48.833  57.836 -62.271  1.00  0.00     0.293 C 
HETATM   20  O   UNL     1     -49.662  56.983 -62.544  1.00  0.00    -0.259 OA
BRANCH  19  21
HETATM   21  O   UNL     1     -48.787  59.094 -62.773  1.00  0.00    -0.318 OA
BRANCH  21  22
HETATM   22  C   UNL     1     -50.026  59.820 -62.761  1.00  0.00     0.174 C 
HETATM   23  C   UNL     1     -50.351  60.294 -61.357  1.00  0.00     0.034 C 
ENDBRANCH  21  22
ENDBRANCH  19  21
ENDBRANCH  16  19
ENDBRANCH  10  13
ENDBRANCH   8   9
ENDBRANCH   1   8
BRANCH   2  24
HETATM   24  C   UNL     1     -42.476  58.491 -55.660  1.00  0.00     0.168 C 
BRANCH  24  25
HETATM   25  C   UNL     1     -43.160  59.291 -54.588  1.00  0.00    -0.023 A 
HETATM   26  C   UNL     1     -42.480  60.270 -53.870  1.00  0.00     0.125 A 
HETATM   27  N   UNL     1     -43.040  61.029 -52.900  1.00  0.00    -0.273 NA
HETATM   28  C   UNL     1     -44.350  60.819 -52.645  1.00  0.00     0.116 A 
HETATM   29  C   UNL     1     -45.120  59.881 -53.306  1.00  0.00     0.020 A 
HETATM   30  C   UNL     1     -44.513  59.106 -54.289  1.00  0.00     0.012 A 
ENDBRANCH  24  25
ENDBRANCH   2  24
BRANCH   5  31
HETATM   31  C   UNL     1     -41.276  54.015 -53.896  1.00  0.00     0.047 A 
HETATM   32  C   UNL     1     -40.494  53.001 -54.475  1.00  0.00     0.031 A 
HETATM   33  C   UNL     1     -39.876  52.006 -53.704  1.00  0.00     0.009 A 
HETATM   34  C   UNL     1     -40.018  51.992 -52.319  1.00  0.00    -0.062 A 
HETATM   35  C   UNL     1     -39.344  50.947 -51.480  1.00  0.00     0.048 C 
HETATM   36  C   UNL     1     -40.782  52.993 -51.721  1.00  0.00     0.009 A 
HETATM   37  C   UNL     1     -41.404  53.983 -52.498  1.00  0.00     0.031 A 
ENDBRANCH   5  31
TORSDOF 9
ENDMDL
MODEL 3
REMARK VINA RESULT:      -7.8      3.190      9.825
REMARK  9 active torsions:
REMARK  status: ('A' for Active; 'I' for Inactive)
REMARK    1  A    between atoms: C_2  and  O_3 
REMARK    2  A    between atoms: O_3  and  C_4 
REMARK    3  A    between atoms: C_4  and  C_5 
REMARK    4  A    between atoms: C_8  and  N_9 
REMARK       I    between atoms: N_9  and  C_10 
REMARK    5  A    between atoms: C_10  and  C_11 
REMARK    6  A    between atoms: C_11  and  C_12 
REMARK    7  A    between atoms: N_13  and  C_14 
REMARK    8  A    between atoms: C_14  and  C_15 
REMARK    9  A    between atoms: N_23  and  C_24 
ROOT
HETATM    1  C   UNL     1     -42.571  54.089 -52.776  1.00  0.00     0.191 C 
HETATM    2  N   UNL     1     -41.220  53.997 -53.291  1.00  0.00    -0.315 N 
HETATM    3  C   UNL     1     -41.037  54.909 -54.334  1.00  0.00     0.333 C 
HETATM    4  O   UNL     1     -39.931  55.302 -54.675  1.00  0.00    -0.246 OA
HETATM    5  N   UNL     1     -42.283  55.267 -54.815  1.00  0.00    -0.232 N 
HETATM    6  C   UNL     1     -43.247  54.705 -54.001  1.00  0.00     0.256 C 
HETATM    7  O   UNL     1     -44.465  54.699 -54.126  1.00  0.00    -0.270 OA
ENDROOT
BRANCH   1   8
HETATM    8  C   UNL     1     -42.647  55.047 -51.590  1.00  0.00     0.138 C 
BRANCH   8   9
HETATM    9  C   UNL     1     -42.953  56.471 -52.000  1.00  0.00     0.224 C 
HETATM   10  N   UNL     1     -44.309  56.751 -52.047  1.00  0.00    -0.327 N 
HETATM   11  H   UNL     1     -44.952  55.991 -51.872  1.00  0.00     0.169 HD
HETATM   12  O   UNL     1     -42.036  57.258 -52.205  1.00  0.00    -0.273 OA
BRANCH  10  13
HETATM   13  C   UNL     1     -44.907  58.021 -52.220  1.00  0.00     0.034 A 
HETATM   14  C   UNL     1     -44.925  58.721 -53.430  1.00  0.00     0.030 A 
HETATM   15  C   UNL     1     -45.500  59.997 -53.512  1.00  0.00     0.020 A 
HETATM   16  C   UNL     1     -46.070  60.592 -52.383  1.00  0.00     0.039 A 
HETATM   17  C   UNL     1     -46.061  59.891 -51.171  1.00  0.00     0.020 A 
HETATM   18  C   UNL     1     -45.485  58.617 -51.092  1.00  0.00     0.030 A 
BRANCH  16  19
HETATM   19  C   UNL     1     -46.694  61.944 -52.414  1.00  0.00     0.293 C 
HETATM   20  O   UNL     1     -46.604  62.744 -51.497  1.00  0.00    -0.259 OA
BRANCH  19  21
HETATM   21  O   UNL     1     -47.358  62.137 -53.580  1.00  0.00    -0.318 OA
BRANCH  21  22
HETATM   22  C   UNL     1     -48.552  62.931 -53.498  1.00  0.00     0.174 C 
HETATM   23  C   UNL     1     -49.730  62.077 -53.072  1.00  0.00     0.034 C 
ENDBRANCH  21  22
ENDBRANCH  19  21
ENDBRANCH  16  19
ENDBRANCH  10  13
ENDBRANCH   8   9
ENDBRANCH   1   8
BRANCH   2  24
HETATM   24  C   UNL     1     -40.116  53.476 -52.504  1.00  0.00     0.168 C 
BRANCH  24  25
HETATM   25  C   UNL     1     -39.899  52.002 -52.694  1.00  0.00    -0.023 A 
HETATM   26  C   UNL     1     -39.638  51.162 -51.615  1.00  0.00     0.125 A 
HETATM   27  N   UNL     1     -39.442  49.828 -51.719  1.00  0.00    -0.273 NA
HETATM   28  C   UNL     1     -39.532  49.296 -52.957  1.00  0.00     0.116 A 
HETATM   29  C   UNL     1     -39.798  50.037 -54.095  1.00  0.00     0.020 A 
HETATM   30  C   UNL     1     -39.980  51.409 -53.957  1.00  0.00     0.012 A 
ENDBRANCH  24  25
ENDBRANCH   2  24
BRANCH   5  31
HETATM   31  C   UNL     1     -42.524  56.069 -55.977  1.00  0.00     0.047 A 
HETATM   32  C   UNL     1     -42.426  57.471 -55.941  1.00  0.00     0.031 A 
HETATM   33  C   UNL     1     -42.656  58.262 -57.076  1.00  0.00     0.009 A 
HETATM   34  C   UNL     1     -42.992  57.675 -58.293  1.00  0.00    -0.062 A 
HETATM   35  C   UNL     1     -43.219  58.507 -59.520  1.00  0.00     0.048 C 
HETATM   36  C   UNL     1     -43.087  56.285 -58.355  1.00  0.00     0.009 A 
HETATM   37  C   UNL     1     -42.862  55.499 -57.214  1.00  0.00     0.031 A 
ENDBRANCH   5  31
TORSDOF 9
ENDMDL
MODEL 4
REMARK VINA RESULT:      -7.5      2.022      2.803
REMARK  9 active torsions:
REMARK  status: ('A' for Active; 'I' for Inactive)
REMARK    1  A    between atoms: C_2  and  O_3 
REMARK    2  A    between atoms: O_3  and  C_4 
REMARK    3  A    between atoms: C_4  and  C_5 
REMARK    4  A    between atoms: C_8  and  N_9 
REMARK       I    between atoms: N_9  and  C_10 
REMARK    5  A    between atoms: C_10  and  C_11 
REMARK    6  A    between atoms: C_11  and  C_12 
REMARK    7  A    between atoms: N_13  and  C_14 
REMARK    8  A    between atoms: C_14  and  C_15 
REMARK    9  A    between atoms: N_23  and  C_24 
ROOT
HETATM    1  C   UNL     1     -43.440  58.463 -52.081  1.00  0.00     0.191 C 
HETATM    2  N   UNL     1     -43.313  59.263 -53.283  1.00  0.00    -0.315 N 
HETATM    3  C   UNL     1     -44.020  60.461 -53.142  1.00  0.00     0.333 C 
HETATM    4  O   UNL     1     -43.774  61.450 -53.817  1.00  0.00    -0.246 OA
HETATM    5  N   UNL     1     -44.942  60.299 -52.125  1.00  0.00    -0.232 N 
HETATM    6  C   UNL     1     -44.731  59.069 -51.531  1.00  0.00     0.256 C 
HETATM    7  O   UNL     1     -45.381  58.503 -50.663  1.00  0.00    -0.270 OA
ENDROOT
BRANCH   1   8
HETATM    8  C   UNL     1     -42.282  58.719 -51.120  1.00  0.00     0.138 C 
BRANCH   8   9
HETATM    9  C   UNL     1     -41.405  57.503 -50.916  1.00  0.00     0.224 C 
HETATM   10  N   UNL     1     -42.038  56.309 -51.219  1.00  0.00    -0.327 N 
HETATM   11  H   UNL     1     -43.015  56.349 -51.481  1.00  0.00     0.169 HD
HETATM   12  O   UNL     1     -40.240  57.644 -50.562  1.00  0.00    -0.273 OA
BRANCH  10  13
HETATM   13  C   UNL     1     -41.442  55.030 -51.301  1.00  0.00     0.034 A 
HETATM   14  C   UNL     1     -41.076  54.411 -52.499  1.00  0.00     0.030 A 
HETATM   15  C   UNL     1     -40.529  53.120 -52.503  1.00  0.00     0.020 A 
HETATM   16  C   UNL     1     -40.337  52.428 -51.303  1.00  0.00     0.039 A 
HETATM   17  C   UNL     1     -40.695  53.047 -50.099  1.00  0.00     0.020 A 
HETATM   18  C   UNL     1     -41.242  54.337 -50.100  1.00  0.00     0.030 A 
BRANCH  16  19
HETATM   19  C   UNL     1     -39.760  51.057 -51.249  1.00  0.00     0.293 C 
HETATM   20  O   UNL     1     -39.853  50.329 -50.273  1.00  0.00    -0.259 OA
BRANCH  19  21
HETATM   21  O   UNL     1     -39.133  50.755 -52.412  1.00  0.00    -0.318 OA
BRANCH  21  22
HETATM   22  C   UNL     1     -39.635  49.608 -53.116  1.00  0.00     0.174 C 
HETATM   23  C   UNL     1     -39.922  49.958 -54.564  1.00  0.00     0.034 C 
ENDBRANCH  21  22
ENDBRANCH  19  21
ENDBRANCH  16  19
ENDBRANCH  10  13
ENDBRANCH   8   9
ENDBRANCH   1   8
BRANCH   2  24
HETATM   24  C   UNL     1     -42.205  59.112 -54.210  1.00  0.00     0.168 C 
BRANCH  24  25
HETATM   25  C   UNL     1     -42.472  58.097 -55.286  1.00  0.00    -0.023 A 
HETATM   26  C   UNL     1     -42.945  58.476 -56.539  1.00  0.00     0.125 A 
HETATM   27  N   UNL     1     -43.197  57.615 -57.551  1.00  0.00    -0.273 NA
HETATM   28  C   UNL     1     -42.945  56.309 -57.312  1.00  0.00     0.116 A 
HETATM   29  C   UNL     1     -42.464  55.826 -56.109  1.00  0.00     0.020 A 
HETATM   30  C   UNL     1     -42.229  56.735 -55.083  1.00  0.00     0.012 A 
ENDBRANCH  24  25
ENDBRANCH   2  24
BRANCH   5  31
HETATM   31  C   UNL     1     -45.958  61.243 -51.769  1.00  0.00     0.047 A 
HETATM   32  C   UNL     1     -45.892  61.984 -50.576  1.00  0.00     0.031 A 
HETATM   33  C   UNL     1     -46.881  62.914 -50.222  1.00  0.00     0.009 A 
HETATM   34  C   UNL     1     -47.973  63.139 -51.056  1.00  0.00    -0.062 A 
HETATM   35  C   UNL     1     -49.026  64.146 -50.701  1.00  0.00     0.048 C 
HETATM   36  C   UNL     1     -48.055  62.422 -52.249  1.00  0.00     0.009 A 
HETATM   37  C   UNL     1     -47.066  61.487 -52.594  1.00  0.00     0.031 A 
ENDBRANCH   5  31
TORSDOF 9
ENDMDL
MODEL 5
REMARK VINA RESULT:      -7.4      3.946      8.296
REMARK  9 active torsions:
REMARK  status: ('A' for Active; 'I' for Inactive)
REMARK    1  A    between atoms: C_2  and  O_3 
REMARK    2  A    between atoms: O_3  and  C_4 
REMARK    3  A    between atoms: C_4  and  C_5 
REMARK    4  A    between atoms: C_8  and  N_9 
REMARK       I    between atoms: N_9  and  C_10 
REMARK    5  A    between atoms: C_10  and  C_11 
REMARK    6  A    between atoms: C_11  and  C_12 
REMARK    7  A    between atoms: N_13  and  C_14 
REMARK    8  A    between atoms: C_14  and  C_15 
REMARK    9  A    between atoms: N_23  and  C_24 
ROOT
HETATM    1  C   UNL     1     -42.035  56.211 -54.414  1.00  0.00     0.191 C 
HETATM    2  N   UNL     1     -42.446  55.558 -53.187  1.00  0.00    -0.315 N 
HETATM    3  C   UNL     1     -43.030  56.485 -52.319  1.00  0.00     0.333 C 
HETATM    4  O   UNL     1     -43.785  56.153 -51.417  1.00  0.00    -0.246 OA
HETATM    5  N   UNL     1     -42.631  57.750 -52.709  1.00  0.00    -0.232 N 
HETATM    6  C   UNL     1     -41.922  57.643 -53.890  1.00  0.00     0.256 C 
HETATM    7  O   UNL     1     -41.321  58.505 -54.517  1.00  0.00    -0.270 OA
ENDROOT
BRANCH   1   8
HETATM    8  C   UNL     1     -43.122  56.121 -55.481  1.00  0.00     0.138 C 
BRANCH   8   9
HETATM    9  C   UNL     1     -43.219  57.368 -56.333  1.00  0.00     0.224 C 
HETATM   10  N   UNL     1     -42.198  57.479 -57.263  1.00  0.00    -0.327 N 
HETATM   11  H   UNL     1     -41.471  56.777 -57.249  1.00  0.00     0.169 HD
HETATM   12  O   UNL     1     -44.165  58.133 -56.190  1.00  0.00    -0.273 OA
BRANCH  10  13
HETATM   13  C   UNL     1     -42.106  58.424 -58.311  1.00  0.00     0.034 A 
HETATM   14  C   UNL     1     -42.171  58.098 -59.668  1.00  0.00     0.030 A 
HETATM   15  C   UNL     1     -42.027  59.087 -60.652  1.00  0.00     0.020 A 
HETATM   16  C   UNL     1     -41.819  60.422 -60.290  1.00  0.00     0.039 A 
HETATM   17  C   UNL     1     -41.761  60.754 -58.932  1.00  0.00     0.020 A 
HETATM   18  C   UNL     1     -41.905  59.763 -57.952  1.00  0.00     0.030 A 
BRANCH  16  19
HETATM   19  C   UNL     1     -41.661  61.511 -61.293  1.00  0.00     0.293 C 
HETATM   20  O   UNL     1     -41.807  61.343 -62.493  1.00  0.00    -0.259 OA
BRANCH  19  21
HETATM   21  O   UNL     1     -41.334  62.678 -60.685  1.00  0.00    -0.318 OA
BRANCH  21  22
HETATM   22  C   UNL     1     -40.047  63.221 -61.017  1.00  0.00     0.174 C 
HETATM   23  C   UNL     1     -39.174  63.314 -59.781  1.00  0.00     0.034 C 
ENDBRANCH  21  22
ENDBRANCH  19  21
ENDBRANCH  16  19
ENDBRANCH  10  13
ENDBRANCH   8   9
ENDBRANCH   1   8
BRANCH   2  24
HETATM   24  C   UNL     1     -42.723  54.134 -53.114  1.00  0.00     0.168 C 
BRANCH  24  25
HETATM   25  C   UNL     1     -41.486  53.302 -52.923  1.00  0.00    -0.023 A 
HETATM   26  C   UNL     1     -40.861  53.206 -51.684  1.00  0.00     0.125 A 
HETATM   27  N   UNL     1     -39.752  52.470 -51.445  1.00  0.00    -0.273 NA
HETATM   28  C   UNL     1     -39.250  51.774 -52.488  1.00  0.00     0.116 A 
HETATM   29  C   UNL     1     -39.798  51.790 -53.758  1.00  0.00     0.020 A 
HETATM   30  C   UNL     1     -40.930  52.568 -53.975  1.00  0.00     0.012 A 
ENDBRANCH  24  25
ENDBRANCH   2  24
BRANCH   5  31
HETATM   31  C   UNL     1     -42.893  58.960 -51.990  1.00  0.00     0.047 A 
HETATM   32  C   UNL     1     -41.978  59.479 -51.058  1.00  0.00     0.031 A 
HETATM   33  C   UNL     1     -42.226  60.667 -50.354  1.00  0.00     0.009 A 
HETATM   34  C   UNL     1     -43.403  61.381 -50.561  1.00  0.00    -0.062 A 
HETATM   35  C   UNL     1     -43.671  62.664 -49.832  1.00  0.00     0.048 C 
HETATM   36  C   UNL     1     -44.322  60.891 -51.488  1.00  0.00     0.009 A 
HETATM   37  C   UNL     1     -44.071  59.698 -52.185  1.00  0.00     0.031 A 
ENDBRANCH   5  31
TORSDOF 9
ENDMDL
MODEL 6
REMARK VINA RESULT:      -7.3     19.451     21.915
REMARK  9 active torsions:
REMARK  status: ('A' for Active; 'I' for Inactive)
REMARK    1  A    between atoms: C_2  and  O_3 
REMARK    2  A    between atoms: O_3  and  C_4 
REMARK    3  A    between atoms: C_4  and  C_5 
REMARK    4  A    between atoms: C_8  and  N_9 
REMARK       I    between atoms: N_9  and  C_10 
REMARK    5  A    between atoms: C_10  and  C_11 
REMARK    6  A    between atoms: C_11  and  C_12 
REMARK    7  A    between atoms: N_13  and  C_14 
REMARK    8  A    between atoms: C_14  and  C_15 
REMARK    9  A    between atoms: N_23  and  C_24 
ROOT
HETATM    1  C   UNL     1     -33.875  39.674 -52.293  1.00  0.00     0.191 C 
HETATM    2  N   UNL     1     -32.893  38.625 -52.481  1.00  0.00    -0.315 N 
HETATM    3  C   UNL     1     -32.460  38.142 -51.242  1.00  0.00     0.333 C 
HETATM    4  O   UNL     1     -31.949  37.040 -51.111  1.00  0.00    -0.246 OA
HETATM    5  N   UNL     1     -32.757  39.092 -50.283  1.00  0.00    -0.232 N 
HETATM    6  C   UNL     1     -33.495  40.099 -50.874  1.00  0.00     0.256 C 
HETATM    7  O   UNL     1     -33.878  41.162 -50.404  1.00  0.00    -0.270 OA
ENDROOT
BRANCH   1   8
HETATM    8  C   UNL     1     -35.295  39.115 -52.317  1.00  0.00     0.138 C 
BRANCH   8   9
HETATM    9  C   UNL     1     -35.914  39.137 -53.698  1.00  0.00     0.224 C 
HETATM   10  N   UNL     1     -36.071  40.414 -54.211  1.00  0.00    -0.327 N 
HETATM   11  H   UNL     1     -35.825  41.194 -53.615  1.00  0.00     0.169 HD
HETATM   12  O   UNL     1     -36.179  38.084 -54.265  1.00  0.00    -0.273 OA
BRANCH  10  13
HETATM   13  C   UNL     1     -36.450  40.758 -55.529  1.00  0.00     0.034 A 
HETATM   14  C   UNL     1     -37.729  40.559 -56.054  1.00  0.00     0.030 A 
HETATM   15  C   UNL     1     -38.018  40.885 -57.387  1.00  0.00     0.020 A 
HETATM   16  C   UNL     1     -37.027  41.421 -58.215  1.00  0.00     0.039 A 
HETATM   17  C   UNL     1     -35.746  41.629 -57.692  1.00  0.00     0.020 A 
HETATM   18  C   UNL     1     -35.461  41.301 -56.360  1.00  0.00     0.030 A 
BRANCH  16  19
HETATM   19  C   UNL     1     -37.278  41.786 -59.637  1.00  0.00     0.293 C 
HETATM   20  O   UNL     1     -37.211  42.930 -60.057  1.00  0.00    -0.259 OA
BRANCH  19  21
HETATM   21  O   UNL     1     -37.588  40.685 -60.366  1.00  0.00    -0.318 OA
BRANCH  21  22
HETATM   22  C   UNL     1     -36.691  39.572 -60.235  1.00  0.00     0.174 C 
HETATM   23  C   UNL     1     -37.459  38.265 -60.257  1.00  0.00     0.034 C 
ENDBRANCH  21  22
ENDBRANCH  19  21
ENDBRANCH  16  19
ENDBRANCH  10  13
ENDBRANCH   8   9
ENDBRANCH   1   8
BRANCH   2  24
HETATM   24  C   UNL     1     -32.811  37.840 -53.700  1.00  0.00     0.168 C 
BRANCH  24  25
HETATM   25  C   UNL     1     -31.922  38.458 -54.740  1.00  0.00    -0.023 A 
HETATM   26  C   UNL     1     -30.614  38.021 -54.930  1.00  0.00     0.125 A 
HETATM   27  N   UNL     1     -29.767  38.530 -55.853  1.00  0.00    -0.273 NA
HETATM   28  C   UNL     1     -30.251  39.511 -56.645  1.00  0.00     0.116 A 
HETATM   29  C   UNL     1     -31.537  40.012 -56.549  1.00  0.00     0.020 A 
HETATM   30  C   UNL     1     -32.379  39.478 -55.580  1.00  0.00     0.012 A 
ENDBRANCH  24  25
ENDBRANCH   2  24
BRANCH   5  31
HETATM   31  C   UNL     1     -32.345  39.043 -48.912  1.00  0.00     0.047 A 
HETATM   32  C   UNL     1     -32.987  38.214 -47.977  1.00  0.00     0.031 A 
HETATM   33  C   UNL     1     -32.585  38.157 -46.634  1.00  0.00     0.009 A 
HETATM   34  C   UNL     1     -31.520  38.930 -46.179  1.00  0.00    -0.062 A 
HETATM   35  C   UNL     1     -31.067  38.863 -44.752  1.00  0.00     0.048 C 
HETATM   36  C   UNL     1     -30.863  39.755 -47.091  1.00  0.00     0.009 A 
HETATM   37  C   UNL     1     -31.273  39.812 -48.433  1.00  0.00     0.031 A 
ENDBRANCH   5  31
TORSDOF 9
ENDMDL
MODEL 7
REMARK VINA RESULT:      -7.2      2.420      9.844
REMARK  9 active torsions:
REMARK  status: ('A' for Active; 'I' for Inactive)
REMARK    1  A    between atoms: C_2  and  O_3 
REMARK    2  A    between atoms: O_3  and  C_4 
REMARK    3  A    between atoms: C_4  and  C_5 
REMARK    4  A    between atoms: C_8  and  N_9 
REMARK       I    between atoms: N_9  and  C_10 
REMARK    5  A    between atoms: C_10  and  C_11 
REMARK    6  A    between atoms: C_11  and  C_12 
REMARK    7  A    between atoms: N_13  and  C_14 
REMARK    8  A    between atoms: C_14  and  C_15 
REMARK    9  A    between atoms: N_23  and  C_24 
ROOT
HETATM    1  C   UNL     1     -42.123  54.898 -52.286  1.00  0.00     0.191 C 
HETATM    2  N   UNL     1     -41.032  54.267 -53.000  1.00  0.00    -0.315 N 
HETATM    3  C   UNL     1     -40.898  54.829 -54.273  1.00  0.00     0.333 C 
HETATM    4  O   UNL     1     -39.859  54.762 -54.914  1.00  0.00    -0.246 OA
HETATM    5  N   UNL     1     -42.086  55.461 -54.591  1.00  0.00    -0.232 N 
HETATM    6  C   UNL     1     -42.913  55.426 -53.484  1.00  0.00     0.256 C 
HETATM    7  O   UNL     1     -44.077  55.787 -53.370  1.00  0.00    -0.270 OA
ENDROOT
BRANCH   1   8
HETATM    8  C   UNL     1     -41.626  56.057 -51.427  1.00  0.00     0.138 C 
BRANCH   8   9
HETATM    9  C   UNL     1     -42.257  57.381 -51.798  1.00  0.00     0.224 C 
HETATM   10  N   UNL     1     -43.408  57.663 -51.080  1.00  0.00    -0.327 N 
HETATM   11  H   UNL     1     -43.748  56.957 -50.440  1.00  0.00     0.169 HD
HETATM   12  O   UNL     1     -41.716  58.104 -52.626  1.00  0.00    -0.273 OA
BRANCH  10  13
HETATM   13  C   UNL     1     -44.121  58.884 -51.067  1.00  0.00     0.034 A 
HETATM   14  C   UNL     1     -43.556  60.118 -50.737  1.00  0.00     0.030 A 
HETATM   15  C   UNL     1     -44.339  61.281 -50.704  1.00  0.00     0.020 A 
HETATM   16  C   UNL     1     -45.704  61.225 -51.004  1.00  0.00     0.039 A 
HETATM   17  C   UNL     1     -46.273  59.992 -51.341  1.00  0.00     0.020 A 
HETATM   18  C   UNL     1     -45.487  58.832 -51.373  1.00  0.00     0.030 A 
BRANCH  16  19
HETATM   19  C   UNL     1     -46.582  62.428 -50.983  1.00  0.00     0.293 C 
HETATM   20  O   UNL     1     -47.408  62.669 -51.849  1.00  0.00    -0.259 OA
BRANCH  19  21
HETATM   21  O   UNL     1     -46.325  63.189 -49.891  1.00  0.00    -0.318 OA
BRANCH  21  22
HETATM   22  C   UNL     1     -46.965  62.777 -48.674  1.00  0.00     0.174 C 
HETATM   23  C   UNL     1     -45.966  62.738 -47.535  1.00  0.00     0.034 C 
ENDBRANCH  21  22
ENDBRANCH  19  21
ENDBRANCH  16  19
ENDBRANCH  10  13
ENDBRANCH   8   9
ENDBRANCH   1   8
BRANCH   2  24
HETATM   24  C   UNL     1     -39.937  53.597 -52.321  1.00  0.00     0.168 C 
BRANCH  24  25
HETATM   25  C   UNL     1     -39.870  52.126 -52.620  1.00  0.00    -0.023 A 
HETATM   26  C   UNL     1     -39.616  51.194 -51.618  1.00  0.00     0.125 A 
HETATM   27  N   UNL     1     -39.551  49.858 -51.820  1.00  0.00    -0.273 NA
HETATM   28  C   UNL     1     -39.772  49.423 -53.079  1.00  0.00     0.116 A 
HETATM   29  C   UNL     1     -40.044  50.261 -54.145  1.00  0.00     0.020 A 
HETATM   30  C   UNL     1     -40.090  51.631 -53.909  1.00  0.00     0.012 A 
ENDBRANCH  24  25
ENDBRANCH   2  24
BRANCH   5  31
HETATM   31  C   UNL     1     -42.407  56.033 -55.864  1.00  0.00     0.047 A 
HETATM   32  C   UNL     1     -42.873  55.245 -56.931  1.00  0.00     0.031 A 
HETATM   33  C   UNL     1     -43.194  55.799 -58.180  1.00  0.00     0.009 A 
HETATM   34  C   UNL     1     -43.061  57.166 -58.403  1.00  0.00    -0.062 A 
HETATM   35  C   UNL     1     -43.421  57.774 -59.726  1.00  0.00     0.048 C 
HETATM   36  C   UNL     1     -42.609  57.969 -57.357  1.00  0.00     0.009 A 
HETATM   37  C   UNL     1     -42.283  57.408 -56.112  1.00  0.00     0.031 A 
ENDBRANCH   5  31
TORSDOF 9
ENDMDL
MODEL 8
REMARK VINA RESULT:      -7.2      3.879      9.714
REMARK  9 active torsions:
REMARK  status: ('A' for Active; 'I' for Inactive)
REMARK    1  A    between atoms: C_2  and  O_3 
REMARK    2  A    between atoms: O_3  and  C_4 
REMARK    3  A    between atoms: C_4  and  C_5 
REMARK    4  A    between atoms: C_8  and  N_9 
REMARK       I    between atoms: N_9  and  C_10 
REMARK    5  A    between atoms: C_10  and  C_11 
REMARK    6  A    between atoms: C_11  and  C_12 
REMARK    7  A    between atoms: N_13  and  C_14 
REMARK    8  A    between atoms: C_14  and  C_15 
REMARK    9  A    between atoms: N_23  and  C_24 
ROOT
HETATM    1  C   UNL     1     -42.507  54.570 -52.688  1.00  0.00     0.191 C 
HETATM    2  N   UNL     1     -41.245  54.156 -53.267  1.00  0.00    -0.315 N 
HETATM    3  C   UNL     1     -41.020  54.833 -54.469  1.00  0.00     0.333 C 
HETATM    4  O   UNL     1     -39.903  54.962 -54.949  1.00  0.00    -0.246 OA
HETATM    5  N   UNL     1     -42.232  55.318 -54.922  1.00  0.00    -0.232 N 
HETATM    6  C   UNL     1     -43.191  55.080 -53.956  1.00  0.00     0.256 C 
HETATM    7  O   UNL     1     -44.400  55.267 -53.997  1.00  0.00    -0.270 OA
ENDROOT
BRANCH   1   8
HETATM    8  C   UNL     1     -42.312  55.712 -51.695  1.00  0.00     0.138 C 
BRANCH   8   9
HETATM    9  C   UNL     1     -43.251  56.874 -51.938  1.00  0.00     0.224 C 
HETATM   10  N   UNL     1     -42.747  57.814 -52.822  1.00  0.00    -0.327 N 
HETATM   11  H   UNL     1     -41.805  57.678 -53.165  1.00  0.00     0.169 HD
HETATM   12  O   UNL     1     -44.356  56.887 -51.408  1.00  0.00    -0.273 OA
BRANCH  10  13
HETATM   13  C   UNL     1     -43.443  58.907 -53.385  1.00  0.00     0.034 A 
HETATM   14  C   UNL     1     -44.656  58.796 -54.071  1.00  0.00     0.030 A 
HETATM   15  C   UNL     1     -45.266  59.923 -54.640  1.00  0.00     0.020 A 
HETATM   16  C   UNL     1     -44.670  61.183 -54.529  1.00  0.00     0.039 A 
HETATM   17  C   UNL     1     -43.459  61.301 -53.836  1.00  0.00     0.020 A 
HETATM   18  C   UNL     1     -42.853  60.173 -53.269  1.00  0.00     0.030 A 
BRANCH  16  19
HETATM   19  C   UNL     1     -45.274  62.413 -55.114  1.00  0.00     0.293 C 
HETATM   20  O   UNL     1     -45.464  63.434 -54.474  1.00  0.00    -0.259 OA
BRANCH  19  21
HETATM   21  O   UNL     1     -45.572  62.223 -56.422  1.00  0.00    -0.318 OA
BRANCH  21  22
HETATM   22  C   UNL     1     -44.481  62.373 -57.343  1.00  0.00     0.174 C 
HETATM   23  C   UNL     1     -44.332  61.129 -58.198  1.00  0.00     0.034 C 
ENDBRANCH  21  22
ENDBRANCH  19  21
ENDBRANCH  16  19
ENDBRANCH  10  13
ENDBRANCH   8   9
ENDBRANCH   1   8
BRANCH   2  24
HETATM   24  C   UNL     1     -40.168  53.590 -52.473  1.00  0.00     0.168 C 
BRANCH  24  25
HETATM   25  C   UNL     1     -39.971  52.120 -52.710  1.00  0.00    -0.023 A 
HETATM   26  C   UNL     1     -39.691  51.247 -51.663  1.00  0.00     0.125 A 
HETATM   27  N   UNL     1     -39.510  49.915 -51.809  1.00  0.00    -0.273 NA
HETATM   28  C   UNL     1     -39.636  49.419 -53.060  1.00  0.00     0.116 A 
HETATM   29  C   UNL     1     -39.922  50.194 -54.169  1.00  0.00     0.020 A 
HETATM   30  C   UNL     1     -40.088  51.564 -53.988  1.00  0.00     0.012 A 
ENDBRANCH  24  25
ENDBRANCH   2  24
BRANCH   5  31
HETATM   31  C   UNL     1     -42.453  55.942 -56.192  1.00  0.00     0.047 A 
HETATM   32  C   UNL     1     -42.951  55.222 -57.292  1.00  0.00     0.031 A 
HETATM   33  C   UNL     1     -43.174  55.828 -58.538  1.00  0.00     0.009 A 
HETATM   34  C   UNL     1     -42.908  57.181 -58.726  1.00  0.00    -0.062 A 
HETATM   35  C   UNL     1     -43.163  57.846 -60.045  1.00  0.00     0.048 C 
HETATM   36  C   UNL     1     -42.422  57.918 -57.647  1.00  0.00     0.009 A 
HETATM   37  C   UNL     1     -42.194  57.305 -56.404  1.00  0.00     0.031 A 
ENDBRANCH   5  31
TORSDOF 9
ENDMDL
MODEL 9
REMARK VINA RESULT:      -7.1      3.563      9.059
REMARK  9 active torsions:
REMARK  status: ('A' for Active; 'I' for Inactive)
REMARK    1  A    between atoms: C_2  and  O_3 
REMARK    2  A    between atoms: O_3  and  C_4 
REMARK    3  A    between atoms: C_4  and  C_5 
REMARK    4  A    between atoms: C_8  and  N_9 
REMARK       I    between atoms: N_9  and  C_10 
REMARK    5  A    between atoms: C_10  and  C_11 
REMARK    6  A    between atoms: C_11  and  C_12 
REMARK    7  A    between atoms: N_13  and  C_14 
REMARK    8  A    between atoms: C_14  and  C_15 
REMARK    9  A    between atoms: N_23  and  C_24 
ROOT
HETATM    1  C   UNL     1     -42.795  57.099 -53.427  1.00  0.00     0.191 C 
HETATM    2  N   UNL     1     -42.460  57.386 -52.046  1.00  0.00    -0.315 N 
HETATM    3  C   UNL     1     -41.592  56.410 -51.547  1.00  0.00     0.333 C 
HETATM    4  O   UNL     1     -40.873  56.606 -50.579  1.00  0.00    -0.246 OA
HETATM    5  N   UNL     1     -41.692  55.292 -52.355  1.00  0.00    -0.232 N 
HETATM    6  C   UNL     1     -42.501  55.599 -53.433  1.00  0.00     0.256 C 
HETATM    7  O   UNL     1     -42.917  54.872 -54.325  1.00  0.00    -0.270 OA
ENDROOT
BRANCH   1   8
HETATM    8  C   UNL     1     -41.858  57.827 -54.386  1.00  0.00     0.138 C 
BRANCH   8   9
HETATM    9  C   UNL     1     -42.511  58.160 -55.711  1.00  0.00     0.224 C 
HETATM   10  N   UNL     1     -43.535  57.292 -56.053  1.00  0.00    -0.327 N 
HETATM   11  H   UNL     1     -43.708  56.505 -55.441  1.00  0.00     0.169 HD
HETATM   12  O   UNL     1     -42.148  59.147 -56.339  1.00  0.00    -0.273 OA
BRANCH  10  13
HETATM   13  C   UNL     1     -44.445  57.436 -57.125  1.00  0.00     0.034 A 
HETATM   14  C   UNL     1     -45.703  58.033 -57.011  1.00  0.00     0.030 A 
HETATM   15  C   UNL     1     -46.569  58.100 -58.112  1.00  0.00     0.020 A 
HETATM   16  C   UNL     1     -46.186  57.570 -59.348  1.00  0.00     0.039 A 
HETATM   17  C   UNL     1     -44.924  56.977 -59.469  1.00  0.00     0.020 A 
HETATM   18  C   UNL     1     -44.062  56.912 -58.367  1.00  0.00     0.030 A 
BRANCH  16  19
HETATM   19  C   UNL     1     -47.065  57.614 -60.549  1.00  0.00     0.293 C 
HETATM   20  O   UNL     1     -47.318  56.633 -61.230  1.00  0.00    -0.259 OA
BRANCH  19  21
HETATM   21  O   UNL     1     -47.522  58.872 -60.763  1.00  0.00    -0.318 OA
BRANCH  21  22
HETATM   22  C   UNL     1     -46.541  59.833 -61.183  1.00  0.00     0.174 C 
HETATM   23  C   UNL     1     -47.048  61.244 -60.957  1.00  0.00     0.034 C 
ENDBRANCH  21  22
ENDBRANCH  19  21
ENDBRANCH  16  19
ENDBRANCH  10  13
ENDBRANCH   8   9
ENDBRANCH   1   8
BRANCH   2  24
HETATM   24  C   UNL     1     -42.545  58.721 -51.482  1.00  0.00     0.168 C 
BRANCH  24  25
HETATM   25  C   UNL     1     -43.923  59.313 -51.571  1.00  0.00    -0.023 A 
HETATM   26  C   UNL     1     -44.975  58.819 -50.805  1.00  0.00     0.125 A 
HETATM   27  N   UNL     1     -46.234  59.312 -50.834  1.00  0.00    -0.273 NA
HETATM   28  C   UNL     1     -46.456  60.365 -51.651  1.00  0.00     0.116 A 
HETATM   29  C   UNL     1     -45.480  60.939 -52.446  1.00  0.00     0.020 A 
HETATM   30  C   UNL     1     -44.198  60.401 -52.405  1.00  0.00     0.012 A 
ENDBRANCH  24  25
ENDBRANCH   2  24
BRANCH   5  31
HETATM   31  C   UNL     1     -41.076  54.026 -52.098  1.00  0.00     0.047 A 
HETATM   32  C   UNL     1     -41.071  53.454 -50.814  1.00  0.00     0.031 A 
HETATM   33  C   UNL     1     -40.473  52.211 -50.555  1.00  0.00     0.009 A 
HETATM   34  C   UNL     1     -39.860  51.493 -51.578  1.00  0.00    -0.062 A 
HETATM   35  C   UNL     1     -39.236  50.154 -51.321  1.00  0.00     0.048 C 
HETATM   36  C   UNL     1     -39.860  52.036 -52.862  1.00  0.00     0.009 A 
HETATM   37  C   UNL     1     -40.454  53.284 -53.114  1.00  0.00     0.031 A 
ENDBRANCH   5  31
TORSDOF 9
ENDMDL
MODEL 10
REMARK VINA RESULT:      -7.1      1.663      2.511
REMARK  9 active torsions:
REMARK  status: ('A' for Active; 'I' for Inactive)
REMARK    1  A    between atoms: C_2  and  O_3 
REMARK    2  A    between atoms: O_3  and  C_4 
REMARK    3  A    between atoms: C_4  and  C_5 
REMARK    4  A    between atoms: C_8  and  N_9 
REMARK       I    between atoms: N_9  and  C_10 
REMARK    5  A    between atoms: C_10  and  C_11 
REMARK    6  A    between atoms: C_11  and  C_12 
REMARK    7  A    between atoms: N_13  and  C_14 
REMARK    8  A    between atoms: C_14  and  C_15 
REMARK    9  A    between atoms: N_23  and  C_24 
ROOT
HETATM    1  C   UNL     1     -43.180  59.576 -53.797  1.00  0.00     0.191 C 
HETATM    2  N   UNL     1     -43.799  60.714 -54.448  1.00  0.00    -0.315 N 
HETATM    3  C   UNL     1     -44.056  61.723 -53.516  1.00  0.00     0.333 C 
HETATM    4  O   UNL     1     -44.208  62.891 -53.840  1.00  0.00    -0.246 OA
HETATM    5  N   UNL     1     -44.052  61.154 -52.256  1.00  0.00    -0.232 N 
HETATM    6  C   UNL     1     -43.659  59.835 -52.369  1.00  0.00     0.256 C 
HETATM    7  O   UNL     1     -43.612  58.960 -51.514  1.00  0.00    -0.270 OA
ENDROOT
BRANCH   1   8
HETATM    8  C   UNL     1     -41.658  59.658 -53.870  1.00  0.00     0.138 C 
BRANCH   8   9
HETATM    9  C   UNL     1     -40.979  58.358 -53.496  1.00  0.00     0.224 C 
HETATM   10  N   UNL     1     -41.771  57.242 -53.708  1.00  0.00    -0.327 N 
HETATM   11  H   UNL     1     -42.720  57.392 -54.023  1.00  0.00     0.169 HD
HETATM   12  O   UNL     1     -39.820  58.368 -53.099  1.00  0.00    -0.273 OA
BRANCH  10  13
HETATM   13  C   UNL     1     -41.368  55.889 -53.627  1.00  0.00     0.034 A 
HETATM   14  C   UNL     1     -41.380  55.137 -52.449  1.00  0.00     0.030 A 
HETATM   15  C   UNL     1     -40.923  53.811 -52.439  1.00  0.00     0.020 A 
HETATM   16  C   UNL     1     -40.450  53.215 -53.612  1.00  0.00     0.039 A 
HETATM   17  C   UNL     1     -40.444  53.962 -54.796  1.00  0.00     0.020 A 
HETATM   18  C   UNL     1     -40.900  55.287 -54.802  1.00  0.00     0.030 A 
BRANCH  16  19
HETATM   19  C   UNL     1     -39.954  51.812 -53.658  1.00  0.00     0.293 C 
HETATM   20  O   UNL     1     -39.938  51.141 -54.678  1.00  0.00    -0.259 OA
BRANCH  19  21
HETATM   21  O   UNL     1     -39.542  51.409 -52.431  1.00  0.00    -0.318 OA
BRANCH  21  22
HETATM   22  C   UNL     1     -39.562  49.993 -52.196  1.00  0.00     0.174 C 
HETATM   23  C   UNL     1     -39.548  49.702 -50.707  1.00  0.00     0.034 C 
ENDBRANCH  21  22
ENDBRANCH  19  21
ENDBRANCH  16  19
ENDBRANCH  10  13
ENDBRANCH   8   9
ENDBRANCH   1   8
BRANCH   2  24
HETATM   24  C   UNL     1     -43.650  60.979 -55.868  1.00  0.00     0.168 C 
BRANCH  24  25
HETATM   25  C   UNL     1     -44.057  59.818 -56.731  1.00  0.00    -0.023 A 
HETATM   26  C   UNL     1     -45.394  59.471 -56.896  1.00  0.00     0.125 A 
HETATM   27  N   UNL     1     -45.825  58.444 -57.664  1.00  0.00    -0.273 NA
HETATM   28  C   UNL     1     -44.878  57.737 -58.320  1.00  0.00     0.116 A 
HETATM   29  C   UNL     1     -43.524  58.004 -58.234  1.00  0.00     0.020 A 
HETATM   30  C   UNL     1     -43.111  59.057 -57.426  1.00  0.00     0.012 A 
ENDBRANCH  24  25
ENDBRANCH   2  24
BRANCH   5  31
HETATM   31  C   UNL     1     -44.419  61.823 -51.043  1.00  0.00     0.047 A 
HETATM   32  C   UNL     1     -43.511  62.636 -50.344  1.00  0.00     0.031 A 
HETATM   33  C   UNL     1     -43.864  63.298 -49.159  1.00  0.00     0.009 A 
HETATM   34  C   UNL     1     -45.146  63.170 -48.631  1.00  0.00    -0.062 A 
HETATM   35  C   UNL     1     -45.544  63.890 -47.377  1.00  0.00     0.048 C 
HETATM   36  C   UNL     1     -46.068  62.376 -49.312  1.00  0.00     0.009 A 
HETATM   37  C   UNL     1     -45.706  61.710 -50.494  1.00  0.00     0.031 A 
ENDBRANCH   5  31
TORSDOF 9
ENDMDL
