MODEL 1
REMARK VINA RESULT:      -9.4      0.000      0.000
REMARK  5 active torsions:
REMARK  status: ('A' for Active; 'I' for Inactive)
REMARK    1  A    between atoms: C_4  and  N_5 
REMARK    2  A    between atoms: C_7  and  C_8 
REMARK       I    between atoms: C_8  and  N_9 
REMARK    3  A    between atoms: N_9  and  N_10 
REMARK       I    between atoms: N_10  and  C_11 
REMARK    4  A    between atoms: C_11  and  C_12 
REMARK    5  A    between atoms: C_16  and  C_17 
ROOT
HETATM    1  C   UNL     1     -44.772  58.358 -50.961  1.00  0.00     0.286 C 
HETATM    2  N   UNL     1     -43.397  58.307 -50.955  1.00  0.00    -0.262 N 
HETATM    3  O   UNL     1     -45.496  57.372 -50.890  1.00  0.00    -0.264 OA
HETATM    4  H   UNL     1     -42.806  59.138 -51.015  1.00  0.00     0.190 HD
ENDROOT
BRANCH   2   5
HETATM    5  N   UNL     1     -42.802  57.048 -50.838  1.00  0.00    -0.262 N 
HETATM    6  C   UNL     1     -41.433  56.917 -50.752  1.00  0.00     0.288 C 
HETATM    7  O   UNL     1     -40.677  57.885 -50.715  1.00  0.00    -0.264 OA
HETATM    8  H   UNL     1     -43.426  56.250 -50.916  1.00  0.00     0.190 HD
BRANCH   6   9
HETATM    9  C   UNL     1     -40.966  55.556 -50.707  1.00  0.00     0.121 A 
HETATM   10  N   UNL     1     -40.479  54.986 -49.565  1.00  0.00    -0.272 N 
HETATM   11  H   UNL     1     -40.384  55.426 -48.654  1.00  0.00     0.189 HD
HETATM   12  N   UNL     1     -40.110  53.703 -49.704  1.00  0.00    -0.174 NA
HETATM   13  C   UNL     1     -40.336  53.420 -50.996  1.00  0.00     0.089 A 
HETATM   14  C   UNL     1     -40.878  54.557 -51.657  1.00  0.00     0.071 A 
BRANCH  13  15
HETATM   15  C   UNL     1     -40.055  52.099 -51.570  1.00  0.00    -0.006 A 
HETATM   16  C   UNL     1     -39.913  50.976 -50.740  1.00  0.00     0.014 A 
HETATM   17  C   UNL     1     -39.667  49.712 -51.282  1.00  0.00     0.001 A 
HETATM   18  C   UNL     1     -39.553  49.555 -52.662  1.00  0.00     0.000 A 
HETATM   19  C   UNL     1     -39.682  50.659 -53.500  1.00  0.00     0.001 A 
HETATM   20  C   UNL     1     -39.931  51.924 -52.957  1.00  0.00     0.014 A 
ENDBRANCH  13  15
ENDBRANCH   6   9
ENDBRANCH   2   5
BRANCH   1  21
HETATM   21  C   UNL     1     -45.377  59.748 -51.049  1.00  0.00     0.125 C 
HETATM   22  N   UNL     1     -45.393  60.504 -49.992  1.00  0.00    -0.164 NA
HETATM   23  N   UNL     1     -45.942  61.778 -50.098  1.00  0.00    -0.200 N 
HETATM   24  C   UNL     1     -46.589  62.240 -51.254  1.00  0.00     0.245 C 
HETATM   25  C   UNL     1     -47.007  61.143 -52.195  1.00  0.00     0.111 C 
HETATM   26  O   UNL     1     -46.854  63.410 -51.528  1.00  0.00    -0.271 OA
HETATM   27  C   UNL     1     -45.866  60.183 -52.396  1.00  0.00     0.076 C 
BRANCH  23  28
HETATM   28  C   UNL     1     -45.693  62.620 -48.964  1.00  0.00     0.068 A 
HETATM   29  C   UNL     1     -46.664  62.664 -47.941  1.00  0.00     0.039 A 
HETATM   30  C   UNL     1     -46.474  63.408 -46.767  1.00  0.00    -0.060 A 
HETATM   31  C   UNL     1     -47.490  63.380 -45.665  1.00  0.00     0.048 C 
HETATM   32  C   UNL     1     -45.288  64.121 -46.607  1.00  0.00     0.007 A 
HETATM   33  C   UNL     1     -44.335  64.130 -47.623  1.00  0.00     0.009 A 
HETATM   34  C   UNL     1     -44.533  63.412 -48.819  1.00  0.00    -0.033 A 
HETATM   35  C   UNL     1     -43.490  63.598 -49.890  1.00  0.00     0.050 C 
ENDBRANCH  23  28
ENDBRANCH   1  21
TORSDOF 5
ENDMDL
MODEL 2
REMARK VINA RESULT:      -9.0      2.390      2.893
REMARK  5 active torsions:
REMARK  status: ('A' for Active; 'I' for Inactive)
REMARK    1  A    between atoms: C_4  and  N_5 
REMARK    2  A    between atoms: C_7  and  C_8 
REMARK       I    between atoms: C_8  and  N_9 
REMARK    3  A    between atoms: N_9  and  N_10 
REMARK       I    between atoms: N_10  and  C_11 
REMARK    4  A    between atoms: C_11  and  C_12 
REMARK    5  A    between atoms: C_16  and  C_17 
ROOT
HETATM    1  C   UNL     1     -42.884  58.949 -51.585  1.00  0.00     0.286 C 
HETATM    2  N   UNL     1     -41.680  58.853 -52.244  1.00  0.00    -0.262 N 
HETATM    3  O   UNL     1     -43.585  57.988 -51.290  1.00  0.00    -0.264 OA
HETATM    4  H   UNL     1     -41.108  59.664 -52.483  1.00  0.00     0.190 HD
ENDROOT
BRANCH   2   5
HETATM    5  N   UNL     1     -41.228  57.572 -52.571  1.00  0.00    -0.262 N 
HETATM    6  C   UNL     1     -41.461  57.037 -53.819  1.00  0.00     0.288 C 
HETATM    7  O   UNL     1     -42.017  57.667 -54.716  1.00  0.00    -0.264 OA
HETATM    8  H   UNL     1     -40.811  57.038 -51.814  1.00  0.00     0.190 HD
BRANCH   6   9
HETATM    9  C   UNL     1     -40.997  55.684 -53.984  1.00  0.00     0.121 A 
HETATM   10  N   UNL     1     -40.449  55.235 -55.152  1.00  0.00    -0.272 N 
HETATM   11  H   UNL     1     -40.312  55.765 -56.007  1.00  0.00     0.189 HD
HETATM   12  N   UNL     1     -40.053  53.953 -55.116  1.00  0.00    -0.174 NA
HETATM   13  C   UNL     1     -40.375  53.529 -53.884  1.00  0.00     0.089 A 
HETATM   14  C   UNL     1     -40.965  54.589 -53.143  1.00  0.00     0.071 A 
BRANCH  13  15
HETATM   15  C   UNL     1     -40.111  52.157 -53.433  1.00  0.00    -0.006 A 
HETATM   16  C   UNL     1     -40.151  51.088 -54.342  1.00  0.00     0.014 A 
HETATM   17  C   UNL     1     -39.878  49.783 -53.922  1.00  0.00     0.001 A 
HETATM   18  C   UNL     1     -39.569  49.529 -52.587  1.00  0.00     0.000 A 
HETATM   19  C   UNL     1     -39.533  50.577 -51.671  1.00  0.00     0.001 A 
HETATM   20  C   UNL     1     -39.803  51.884 -52.091  1.00  0.00     0.014 A 
ENDBRANCH  13  15
ENDBRANCH   6   9
ENDBRANCH   2   5
BRANCH   1  21
HETATM   21  C   UNL     1     -43.319  60.356 -51.211  1.00  0.00     0.125 C 
HETATM   22  N   UNL     1     -44.160  60.524 -50.235  1.00  0.00    -0.164 NA
HETATM   23  N   UNL     1     -44.536  61.822 -49.902  1.00  0.00    -0.200 N 
HETATM   24  C   UNL     1     -44.149  62.947 -50.646  1.00  0.00     0.245 C 
HETATM   25  C   UNL     1     -43.662  62.619 -52.032  1.00  0.00     0.111 C 
HETATM   26  O   UNL     1     -44.202  64.120 -50.282  1.00  0.00    -0.271 OA
HETATM   27  C   UNL     1     -42.683  61.479 -51.972  1.00  0.00     0.076 C 
BRANCH  23  28
HETATM   28  C   UNL     1     -45.262  61.924 -48.669  1.00  0.00     0.068 A 
HETATM   29  C   UNL     1     -44.666  61.401 -47.502  1.00  0.00     0.039 A 
HETATM   30  C   UNL     1     -45.274  61.516 -46.243  1.00  0.00    -0.060 A 
HETATM   31  C   UNL     1     -44.587  61.014 -45.007  1.00  0.00     0.048 C 
HETATM   32  C   UNL     1     -46.499  62.170 -46.143  1.00  0.00     0.007 A 
HETATM   33  C   UNL     1     -47.128  62.654 -47.289  1.00  0.00     0.009 A 
HETATM   34  C   UNL     1     -46.540  62.513 -48.562  1.00  0.00    -0.033 A 
HETATM   35  C   UNL     1     -47.370  62.966 -49.735  1.00  0.00     0.050 C 
ENDBRANCH  23  28
ENDBRANCH   1  21
TORSDOF 5
ENDMDL
MODEL 3
REMARK VINA RESULT:      -8.9      6.417     11.098
REMARK  5 active torsions:
REMARK  status: ('A' for Active; 'I' for Inactive)
REMARK    1  A    between atoms: C_4  and  N_5 
REMARK    2  A    between atoms: C_7  and  C_8 
REMARK       I    between atoms: C_8  and  N_9 
REMARK    3  A    between atoms: N_9  and  N_10 
REMARK       I    between atoms: N_10  and  C_11 
REMARK    4  A    between atoms: C_11  and  C_12 
REMARK    5  A    between atoms: C_16  and  C_17 
ROOT
HETATM    1  C   UNL     1     -41.375  58.630 -53.646  1.00  0.00     0.286 C 
HETATM    2  N   UNL     1     -42.166  58.949 -54.726  1.00  0.00    -0.262 N 
HETATM    3  O   UNL     1     -40.318  59.188 -53.380  1.00  0.00    -0.264 OA
HETATM    4  H   UNL     1     -43.045  58.475 -54.936  1.00  0.00     0.190 HD
ENDROOT
BRANCH   2   5
HETATM    5  N   UNL     1     -41.735  59.992 -55.550  1.00  0.00    -0.262 N 
HETATM    6  C   UNL     1     -42.458  60.359 -56.664  1.00  0.00     0.288 C 
HETATM    7  O   UNL     1     -43.532  59.839 -56.956  1.00  0.00    -0.264 OA
HETATM    8  H   UNL     1     -40.824  60.387 -55.332  1.00  0.00     0.190 HD
BRANCH   6   9
HETATM    9  C   UNL     1     -41.852  61.401 -57.452  1.00  0.00     0.121 A 
HETATM   10  N   UNL     1     -42.094  62.726 -57.223  1.00  0.00    -0.272 N 
HETATM   11  H   UNL     1     -42.701  63.124 -56.512  1.00  0.00     0.189 HD
HETATM   12  N   UNL     1     -41.427  63.557 -58.040  1.00  0.00    -0.174 NA
HETATM   13  C   UNL     1     -40.736  62.748 -58.860  1.00  0.00     0.089 A 
HETATM   14  C   UNL     1     -40.974  61.389 -58.518  1.00  0.00     0.071 A 
BRANCH  13  15
HETATM   15  C   UNL     1     -39.868  63.267 -59.924  1.00  0.00    -0.006 A 
HETATM   16  C   UNL     1     -38.824  64.154 -59.622  1.00  0.00     0.014 A 
HETATM   17  C   UNL     1     -37.980  64.633 -60.628  1.00  0.00     0.001 A 
HETATM   18  C   UNL     1     -38.175  64.238 -61.950  1.00  0.00     0.000 A 
HETATM   19  C   UNL     1     -39.212  63.366 -62.268  1.00  0.00     0.001 A 
HETATM   20  C   UNL     1     -40.055  62.883 -61.261  1.00  0.00     0.014 A 
ENDBRANCH  13  15
ENDBRANCH   6   9
ENDBRANCH   2   5
BRANCH   1  21
HETATM   21  C   UNL     1     -41.900  57.518 -52.753  1.00  0.00     0.125 C 
HETATM   22  N   UNL     1     -41.370  56.334 -52.834  1.00  0.00    -0.164 NA
HETATM   23  N   UNL     1     -41.858  55.334 -51.999  1.00  0.00    -0.200 N 
HETATM   24  C   UNL     1     -42.973  55.508 -51.164  1.00  0.00     0.245 C 
HETATM   25  C   UNL     1     -43.835  56.683 -51.540  1.00  0.00     0.111 C 
HETATM   26  O   UNL     1     -43.299  54.793 -50.218  1.00  0.00    -0.271 OA
HETATM   27  C   UNL     1     -42.971  57.892 -51.776  1.00  0.00     0.076 C 
BRANCH  23  28
HETATM   28  C   UNL     1     -41.057  54.144 -51.979  1.00  0.00     0.068 A 
HETATM   29  C   UNL     1     -41.171  53.248 -53.064  1.00  0.00     0.039 A 
HETATM   30  C   UNL     1     -40.379  52.094 -53.159  1.00  0.00    -0.060 A 
HETATM   31  C   UNL     1     -40.468  51.196 -54.357  1.00  0.00     0.048 C 
HETATM   32  C   UNL     1     -39.450  51.829 -52.156  1.00  0.00     0.007 A 
HETATM   33  C   UNL     1     -39.353  52.676 -51.053  1.00  0.00     0.009 A 
HETATM   34  C   UNL     1     -40.168  53.818 -50.932  1.00  0.00    -0.033 A 
HETATM   35  C   UNL     1     -40.057  54.585 -49.640  1.00  0.00     0.050 C 
ENDBRANCH  23  28
ENDBRANCH   1  21
TORSDOF 5
ENDMDL
MODEL 4
REMARK VINA RESULT:      -8.9      1.831      2.124
REMARK  5 active torsions:
REMARK  status: ('A' for Active; 'I' for Inactive)
REMARK    1  A    between atoms: C_4  and  N_5 
REMARK    2  A    between atoms: C_7  and  C_8 
REMARK       I    between atoms: C_8  and  N_9 
REMARK    3  A    between atoms: N_9  and  N_10 
REMARK       I    between atoms: N_10  and  C_11 
REMARK    4  A    between atoms: C_11  and  C_12 
REMARK    5  A    between atoms: C_16  and  C_17 
ROOT
HETATM    1  C   UNL     1     -45.889  59.551 -51.211  1.00  0.00     0.286 C 
HETATM    2  N   UNL     1     -45.039  59.375 -52.277  1.00  0.00    -0.262 N 
HETATM    3  O   UNL     1     -46.270  58.646 -50.478  1.00  0.00    -0.264 OA
HETATM    4  H   UNL     1     -44.731  60.139 -52.880  1.00  0.00     0.190 HD
ENDROOT
BRANCH   2   5
HETATM    5  N   UNL     1     -44.568  58.080 -52.515  1.00  0.00    -0.262 N 
HETATM    6  C   UNL     1     -43.281  57.722 -52.179  1.00  0.00     0.288 C 
HETATM    7  O   UNL     1     -42.509  58.489 -51.608  1.00  0.00    -0.264 OA
HETATM    8  H   UNL     1     -45.193  57.465 -53.029  1.00  0.00     0.190 HD
BRANCH   6   9
HETATM    9  C   UNL     1     -42.920  56.378 -52.550  1.00  0.00     0.121 A 
HETATM   10  N   UNL     1     -43.773  55.550 -53.222  1.00  0.00    -0.272 N 
HETATM   11  H   UNL     1     -44.719  55.761 -53.525  1.00  0.00     0.189 HD
HETATM   12  N   UNL     1     -43.260  54.341 -53.502  1.00  0.00    -0.174 NA
HETATM   13  C   UNL     1     -42.027  54.361 -52.971  1.00  0.00     0.089 A 
HETATM   14  C   UNL     1     -41.777  55.625 -52.369  1.00  0.00     0.071 A 
BRANCH  13  15
HETATM   15  C   UNL     1     -41.120  53.211 -53.053  1.00  0.00    -0.006 A 
HETATM   16  C   UNL     1     -40.323  52.852 -51.956  1.00  0.00     0.014 A 
HETATM   17  C   UNL     1     -39.473  51.744 -52.021  1.00  0.00     0.001 A 
HETATM   18  C   UNL     1     -39.404  50.985 -53.187  1.00  0.00     0.000 A 
HETATM   19  C   UNL     1     -40.181  51.333 -54.289  1.00  0.00     0.001 A 
HETATM   20  C   UNL     1     -41.034  52.439 -54.223  1.00  0.00     0.014 A 
ENDBRANCH  13  15
ENDBRANCH   6   9
ENDBRANCH   2   5
BRANCH   1  21
HETATM   21  C   UNL     1     -46.345  60.979 -50.963  1.00  0.00     0.125 C 
HETATM   22  N   UNL     1     -46.244  61.481 -49.769  1.00  0.00    -0.164 NA
HETATM   23  N   UNL     1     -46.657  62.795 -49.566  1.00  0.00    -0.200 N 
HETATM   24  C   UNL     1     -47.288  63.561 -50.558  1.00  0.00     0.245 C 
HETATM   25  C   UNL     1     -47.853  62.744 -51.689  1.00  0.00     0.111 C 
HETATM   26  O   UNL     1     -47.435  64.782 -50.558  1.00  0.00    -0.271 OA
HETATM   27  C   UNL     1     -46.829  61.745 -52.156  1.00  0.00     0.076 C 
BRANCH  23  28
HETATM   28  C   UNL     1     -46.281  63.338 -48.293  1.00  0.00     0.068 A 
HETATM   29  C   UNL     1     -47.244  63.343 -47.262  1.00  0.00     0.039 A 
HETATM   30  C   UNL     1     -46.943  63.794 -45.968  1.00  0.00    -0.060 A 
HETATM   31  C   UNL     1     -47.964  63.722 -44.871  1.00  0.00     0.048 C 
HETATM   32  C   UNL     1     -45.655  64.246 -45.694  1.00  0.00     0.007 A 
HETATM   33  C   UNL     1     -44.700  64.293 -46.709  1.00  0.00     0.009 A 
HETATM   34  C   UNL     1     -45.004  63.874 -48.019  1.00  0.00    -0.033 A 
HETATM   35  C   UNL     1     -43.930  64.087 -49.054  1.00  0.00     0.050 C 
ENDBRANCH  23  28
ENDBRANCH   1  21
TORSDOF 5
ENDMDL
MODEL 5
REMARK VINA RESULT:      -8.8      3.167     10.788
REMARK  5 active torsions:
REMARK  status: ('A' for Active; 'I' for Inactive)
REMARK    1  A    between atoms: C_4  and  N_5 
REMARK    2  A    between atoms: C_7  and  C_8 
REMARK       I    between atoms: C_8  and  N_9 
REMARK    3  A    between atoms: N_9  and  N_10 
REMARK       I    between atoms: N_10  and  C_11 
REMARK    4  A    between atoms: C_11  and  C_12 
REMARK    5  A    between atoms: C_16  and  C_17 
ROOT
HETATM    1  C   UNL     1     -43.792  60.003 -50.614  1.00  0.00     0.286 C 
HETATM    2  N   UNL     1     -44.838  60.121 -49.729  1.00  0.00    -0.262 N 
HETATM    3  O   UNL     1     -42.731  60.607 -50.509  1.00  0.00    -0.264 OA
HETATM    4  H   UNL     1     -45.717  59.611 -49.831  1.00  0.00     0.190 HD
ENDROOT
BRANCH   2   5
HETATM    5  N   UNL     1     -44.659  60.969 -48.633  1.00  0.00    -0.262 N 
HETATM    6  C   UNL     1     -45.510  60.916 -47.550  1.00  0.00     0.288 C 
HETATM    7  O   UNL     1     -46.419  60.094 -47.464  1.00  0.00    -0.264 OA
HETATM    8  H   UNL     1     -43.936  61.676 -48.729  1.00  0.00     0.190 HD
BRANCH   6   9
HETATM    9  C   UNL     1     -45.241  61.897 -46.532  1.00  0.00     0.121 A 
HETATM   10  N   UNL     1     -45.094  63.225 -46.815  1.00  0.00    -0.272 N 
HETATM   11  H   UNL     1     -45.146  63.665 -47.729  1.00  0.00     0.189 HD
HETATM   12  N   UNL     1     -44.869  63.996 -45.739  1.00  0.00    -0.174 NA
HETATM   13  C   UNL     1     -44.840  63.140 -44.705  1.00  0.00     0.089 A 
HETATM   14  C   UNL     1     -45.074  61.814 -45.163  1.00  0.00     0.071 A 
BRANCH  13  15
HETATM   15  C   UNL     1     -44.609  63.585 -43.326  1.00  0.00    -0.006 A 
HETATM   16  C   UNL     1     -43.413  63.266 -42.664  1.00  0.00     0.014 A 
HETATM   17  C   UNL     1     -43.179  63.707 -41.359  1.00  0.00     0.001 A 
HETATM   18  C   UNL     1     -44.141  64.465 -40.695  1.00  0.00     0.000 A 
HETATM   19  C   UNL     1     -45.337  64.782 -41.333  1.00  0.00     0.001 A 
HETATM   20  C   UNL     1     -45.570  64.345 -42.641  1.00  0.00     0.014 A 
ENDBRANCH  13  15
ENDBRANCH   6   9
ENDBRANCH   2   5
BRANCH   1  21
HETATM   21  C   UNL     1     -44.013  59.041 -51.769  1.00  0.00     0.125 C 
HETATM   22  N   UNL     1     -43.220  58.021 -51.908  1.00  0.00    -0.164 NA
HETATM   23  N   UNL     1     -43.448  57.145 -52.966  1.00  0.00    -0.200 N 
HETATM   24  C   UNL     1     -44.412  57.378 -53.959  1.00  0.00     0.245 C 
HETATM   25  C   UNL     1     -44.877  58.807 -54.030  1.00  0.00     0.111 C 
HETATM   26  O   UNL     1     -44.860  56.552 -54.753  1.00  0.00    -0.271 OA
HETATM   27  C   UNL     1     -45.196  59.308 -52.648  1.00  0.00     0.076 C 
BRANCH  23  28
HETATM   28  C   UNL     1     -42.690  55.930 -52.895  1.00  0.00     0.068 A 
HETATM   29  C   UNL     1     -41.804  55.635 -53.953  1.00  0.00     0.039 A 
HETATM   30  C   UNL     1     -40.977  54.503 -53.934  1.00  0.00    -0.060 A 
HETATM   31  C   UNL     1     -39.992  54.250 -55.037  1.00  0.00     0.048 C 
HETATM   32  C   UNL     1     -41.030  53.647 -52.836  1.00  0.00     0.007 A 
HETATM   33  C   UNL     1     -41.931  53.893 -51.802  1.00  0.00     0.009 A 
HETATM   34  C   UNL     1     -42.789  55.010 -51.828  1.00  0.00    -0.033 A 
HETATM   35  C   UNL     1     -43.800  55.102 -50.715  1.00  0.00     0.050 C 
ENDBRANCH  23  28
ENDBRANCH   1  21
TORSDOF 5
ENDMDL
MODEL 6
REMARK VINA RESULT:      -8.8      7.108      8.866
REMARK  5 active torsions:
REMARK  status: ('A' for Active; 'I' for Inactive)
REMARK    1  A    between atoms: C_4  and  N_5 
REMARK    2  A    between atoms: C_7  and  C_8 
REMARK       I    between atoms: C_8  and  N_9 
REMARK    3  A    between atoms: N_9  and  N_10 
REMARK       I    between atoms: N_10  and  C_11 
REMARK    4  A    between atoms: C_11  and  C_12 
REMARK    5  A    between atoms: C_16  and  C_17 
ROOT
HETATM    1  C   UNL     1     -42.823  56.970 -58.393  1.00  0.00     0.286 C 
HETATM    2  N   UNL     1     -42.100  57.310 -57.274  1.00  0.00    -0.262 N 
HETATM    3  O   UNL     1     -43.195  55.831 -58.652  1.00  0.00    -0.264 OA
HETATM    4  H   UNL     1     -41.797  58.264 -57.072  1.00  0.00     0.190 HD
ENDROOT
BRANCH   2   5
HETATM    5  N   UNL     1     -41.795  56.287 -56.371  1.00  0.00    -0.262 N 
HETATM    6  C   UNL     1     -41.608  56.557 -55.033  1.00  0.00     0.288 C 
HETATM    7  O   UNL     1     -41.755  57.680 -54.558  1.00  0.00    -0.264 OA
HETATM    8  H   UNL     1     -41.628  55.370 -56.775  1.00  0.00     0.190 HD
BRANCH   6   9
HETATM    9  C   UNL     1     -41.231  55.414 -54.242  1.00  0.00     0.121 A 
HETATM   10  N   UNL     1     -41.178  55.454 -52.878  1.00  0.00    -0.272 N 
HETATM   11  H   UNL     1     -41.380  56.250 -52.280  1.00  0.00     0.189 HD
HETATM   12  N   UNL     1     -40.829  54.290 -52.307  1.00  0.00    -0.174 NA
HETATM   13  C   UNL     1     -40.616  53.454 -53.335  1.00  0.00     0.089 A 
HETATM   14  C   UNL     1     -40.864  54.123 -54.566  1.00  0.00     0.071 A 
BRANCH  13  15
HETATM   15  C   UNL     1     -40.204  52.059 -53.139  1.00  0.00    -0.006 A 
HETATM   16  C   UNL     1     -39.801  51.606 -51.874  1.00  0.00     0.014 A 
HETATM   17  C   UNL     1     -39.429  50.273 -51.677  1.00  0.00     0.001 A 
HETATM   18  C   UNL     1     -39.449  49.378 -52.744  1.00  0.00     0.000 A 
HETATM   19  C   UNL     1     -39.838  49.813 -54.008  1.00  0.00     0.001 A 
HETATM   20  C   UNL     1     -40.213  51.146 -54.205  1.00  0.00     0.014 A 
ENDBRANCH  13  15
ENDBRANCH   6   9
ENDBRANCH   2   5
BRANCH   1  21
HETATM   21  C   UNL     1     -43.168  58.117 -59.327  1.00  0.00     0.125 C 
HETATM   22  N   UNL     1     -42.433  59.189 -59.316  1.00  0.00    -0.164 NA
HETATM   23  N   UNL     1     -42.760  60.224 -60.188  1.00  0.00    -0.200 N 
HETATM   24  C   UNL     1     -43.912  60.216 -60.989  1.00  0.00     0.245 C 
HETATM   25  C   UNL     1     -44.958  59.232 -60.538  1.00  0.00     0.111 C 
HETATM   26  O   UNL     1     -44.134  60.936 -61.962  1.00  0.00    -0.271 OA
HETATM   27  C   UNL     1     -44.318  57.899 -60.262  1.00  0.00     0.076 C 
BRANCH  23  28
HETATM   28  C   UNL     1     -41.760  61.248 -60.283  1.00  0.00     0.068 A 
HETATM   29  C   UNL     1     -41.242  61.556 -61.559  1.00  0.00     0.039 A 
HETATM   30  C   UNL     1     -40.311  62.587 -61.752  1.00  0.00    -0.060 A 
HETATM   31  C   UNL     1     -39.829  62.941 -63.128  1.00  0.00     0.048 C 
HETATM   32  C   UNL     1     -39.891  63.331 -60.653  1.00  0.00     0.007 A 
HETATM   33  C   UNL     1     -40.355  63.015 -59.377  1.00  0.00     0.009 A 
HETATM   34  C   UNL     1     -41.264  61.959 -59.169  1.00  0.00    -0.033 A 
HETATM   35  C   UNL     1     -41.596  61.637 -57.735  1.00  0.00     0.050 C 
ENDBRANCH  23  28
ENDBRANCH   1  21
TORSDOF 5
ENDMDL
MODEL 7
REMARK VINA RESULT:      -8.7      8.281      9.896
REMARK  5 active torsions:
REMARK  status: ('A' for Active; 'I' for Inactive)
REMARK    1  A    between atoms: C_4  and  N_5 
REMARK    2  A    between atoms: C_7  and  C_8 
REMARK       I    between atoms: C_8  and  N_9 
REMARK    3  A    between atoms: N_9  and  N_10 
REMARK       I    between atoms: N_10  and  C_11 
REMARK    4  A    between atoms: C_11  and  C_12 
REMARK    5  A    between atoms: C_16  and  C_17 
ROOT
HETATM    1  C   UNL     1     -42.482  58.431 -59.643  1.00  0.00     0.286 C 
HETATM    2  N   UNL     1     -42.095  58.509 -58.325  1.00  0.00    -0.262 N 
HETATM    3  O   UNL     1     -42.721  57.381 -60.227  1.00  0.00    -0.264 OA
HETATM    4  H   UNL     1     -41.898  59.392 -57.851  1.00  0.00     0.190 HD
ENDROOT
BRANCH   2   5
HETATM    5  N   UNL     1     -41.994  57.311 -57.613  1.00  0.00    -0.262 N 
HETATM    6  C   UNL     1     -42.696  57.121 -56.443  1.00  0.00     0.288 C 
HETATM    7  O   UNL     1     -43.481  57.956 -56.000  1.00  0.00    -0.264 OA
HETATM    8  H   UNL     1     -41.309  56.643 -57.957  1.00  0.00     0.190 HD
BRANCH   6   9
HETATM    9  C   UNL     1     -42.436  55.865 -55.788  1.00  0.00     0.121 A 
HETATM   10  N   UNL     1     -43.283  54.798 -55.889  1.00  0.00    -0.272 N 
HETATM   11  H   UNL     1     -44.157  54.757 -56.404  1.00  0.00     0.189 HD
HETATM   12  N   UNL     1     -42.869  53.703 -55.230  1.00  0.00    -0.174 NA
HETATM   13  C   UNL     1     -41.716  54.069 -54.649  1.00  0.00     0.089 A 
HETATM   14  C   UNL     1     -41.409  55.417 -54.981  1.00  0.00     0.071 A 
BRANCH  13  15
HETATM   15  C   UNL     1     -40.931  53.149 -53.817  1.00  0.00    -0.006 A 
HETATM   16  C   UNL     1     -40.665  53.453 -52.474  1.00  0.00     0.014 A 
HETATM   17  C   UNL     1     -39.938  52.570 -51.671  1.00  0.00     0.001 A 
HETATM   18  C   UNL     1     -39.460  51.374 -52.204  1.00  0.00     0.000 A 
HETATM   19  C   UNL     1     -39.707  51.061 -53.538  1.00  0.00     0.001 A 
HETATM   20  C   UNL     1     -40.438  51.943 -54.340  1.00  0.00     0.014 A 
ENDBRANCH  13  15
ENDBRANCH   6   9
ENDBRANCH   2   5
BRANCH   1  21
HETATM   21  C   UNL     1     -42.618  59.759 -60.368  1.00  0.00     0.125 C 
HETATM   22  N   UNL     1     -41.644  60.617 -60.310  1.00  0.00    -0.164 NA
HETATM   23  N   UNL     1     -41.785  61.823 -60.992  1.00  0.00    -0.200 N 
HETATM   24  C   UNL     1     -42.972  62.206 -61.634  1.00  0.00     0.245 C 
HETATM   25  C   UNL     1     -44.182  61.431 -61.186  1.00  0.00     0.111 C 
HETATM   26  O   UNL     1     -43.098  63.101 -62.469  1.00  0.00    -0.271 OA
HETATM   27  C   UNL     1     -43.867  59.960 -61.170  1.00  0.00     0.076 C 
BRANCH  23  28
HETATM   28  C   UNL     1     -40.577  62.592 -61.078  1.00  0.00     0.068 A 
HETATM   29  C   UNL     1     -39.955  62.714 -62.339  1.00  0.00     0.039 A 
HETATM   30  C   UNL     1     -38.809  63.501 -62.528  1.00  0.00    -0.060 A 
HETATM   31  C   UNL     1     -38.209  63.672 -63.892  1.00  0.00     0.048 C 
HETATM   32  C   UNL     1     -38.273  64.183 -61.439  1.00  0.00     0.007 A 
HETATM   33  C   UNL     1     -38.843  64.040 -60.175  1.00  0.00     0.009 A 
HETATM   34  C   UNL     1     -39.974  63.226 -59.970  1.00  0.00    -0.033 A 
HETATM   35  C   UNL     1     -40.424  63.054 -58.542  1.00  0.00     0.050 C 
ENDBRANCH  23  28
ENDBRANCH   1  21
TORSDOF 5
ENDMDL
MODEL 8
REMARK VINA RESULT:      -8.7      6.503      8.258
REMARK  5 active torsions:
REMARK  status: ('A' for Active; 'I' for Inactive)
REMARK    1  A    between atoms: C_4  and  N_5 
REMARK    2  A    between atoms: C_7  and  C_8 
REMARK       I    between atoms: C_8  and  N_9 
REMARK    3  A    between atoms: N_9  and  N_10 
REMARK       I    between atoms: N_10  and  C_11 
REMARK    4  A    between atoms: C_11  and  C_12 
REMARK    5  A    between atoms: C_16  and  C_17 
ROOT
HETATM    1  C   UNL     1     -42.495  58.614 -56.769  1.00  0.00     0.286 C 
HETATM    2  N   UNL     1     -42.627  58.577 -55.400  1.00  0.00    -0.262 N 
HETATM    3  O   UNL     1     -42.120  57.666 -57.449  1.00  0.00    -0.264 OA
HETATM    4  H   UNL     1     -42.941  59.376 -54.847  1.00  0.00     0.190 HD
ENDROOT
BRANCH   2   5
HETATM    5  N   UNL     1     -42.333  57.371 -54.759  1.00  0.00    -0.262 N 
HETATM    6  C   UNL     1     -41.269  57.272 -53.890  1.00  0.00     0.288 C 
HETATM    7  O   UNL     1     -40.569  58.237 -53.590  1.00  0.00    -0.264 OA
HETATM    8  H   UNL     1     -42.884  56.567 -55.045  1.00  0.00     0.190 HD
BRANCH   6   9
HETATM    9  C   UNL     1     -41.050  55.951 -53.362  1.00  0.00     0.121 A 
HETATM   10  N   UNL     1     -41.263  55.642 -52.048  1.00  0.00    -0.272 N 
HETATM   11  H   UNL     1     -41.579  56.271 -51.316  1.00  0.00     0.189 HD
HETATM   12  N   UNL     1     -41.028  54.357 -51.740  1.00  0.00    -0.174 NA
HETATM   13  C   UNL     1     -40.618  53.798 -52.890  1.00  0.00     0.089 A 
HETATM   14  C   UNL     1     -40.624  54.767 -53.931  1.00  0.00     0.071 A 
BRANCH  13  15
HETATM   15  C   UNL     1     -40.249  52.381 -52.984  1.00  0.00    -0.006 A 
HETATM   16  C   UNL     1     -39.781  51.690 -51.857  1.00  0.00     0.014 A 
HETATM   17  C   UNL     1     -39.449  50.334 -51.936  1.00  0.00     0.001 A 
HETATM   18  C   UNL     1     -39.574  49.654 -53.146  1.00  0.00     0.000 A 
HETATM   19  C   UNL     1     -40.029  50.328 -54.276  1.00  0.00     0.001 A 
HETATM   20  C   UNL     1     -40.364  51.683 -54.197  1.00  0.00     0.014 A 
ENDBRANCH  13  15
ENDBRANCH   6   9
ENDBRANCH   2   5
BRANCH   1  21
HETATM   21  C   UNL     1     -42.864  59.931 -57.430  1.00  0.00     0.125 C 
HETATM   22  N   UNL     1     -41.972  60.560 -58.136  1.00  0.00    -0.164 NA
HETATM   23  N   UNL     1     -42.334  61.759 -58.742  1.00  0.00    -0.200 N 
HETATM   24  C   UNL     1     -43.573  62.382 -58.529  1.00  0.00     0.245 C 
HETATM   25  C   UNL     1     -44.296  61.892 -57.303  1.00  0.00     0.111 C 
HETATM   26  O   UNL     1     -44.073  63.273 -59.214  1.00  0.00    -0.271 OA
HETATM   27  C   UNL     1     -44.281  60.388 -57.271  1.00  0.00     0.076 C 
BRANCH  23  28
HETATM   28  C   UNL     1     -41.377  62.248 -59.692  1.00  0.00     0.068 A 
HETATM   29  C   UNL     1     -40.360  63.109 -59.228  1.00  0.00     0.039 A 
HETATM   30  C   UNL     1     -39.345  63.581 -60.073  1.00  0.00    -0.060 A 
HETATM   31  C   UNL     1     -38.234  64.437 -59.539  1.00  0.00     0.048 C 
HETATM   32  C   UNL     1     -39.341  63.185 -61.408  1.00  0.00     0.007 A 
HETATM   33  C   UNL     1     -40.362  62.373 -61.899  1.00  0.00     0.009 A 
HETATM   34  C   UNL     1     -41.403  61.922 -61.065  1.00  0.00    -0.033 A 
HETATM   35  C   UNL     1     -42.511  61.153 -61.737  1.00  0.00     0.050 C 
ENDBRANCH  23  28
ENDBRANCH   1  21
TORSDOF 5
ENDMDL
MODEL 9
REMARK VINA RESULT:      -8.7      7.447      8.886
REMARK  5 active torsions:
REMARK  status: ('A' for Active; 'I' for Inactive)
REMARK    1  A    between atoms: C_4  and  N_5 
REMARK    2  A    between atoms: C_7  and  C_8 
REMARK       I    between atoms: C_8  and  N_9 
REMARK    3  A    between atoms: N_9  and  N_10 
REMARK       I    between atoms: N_10  and  C_11 
REMARK    4  A    between atoms: C_11  and  C_12 
REMARK    5  A    between atoms: C_16  and  C_17 
ROOT
HETATM    1  C   UNL     1     -44.685  55.727 -59.245  1.00  0.00     0.286 C 
HETATM    2  N   UNL     1     -44.086  56.285 -58.139  1.00  0.00    -0.262 N 
HETATM    3  O   UNL     1     -44.476  54.586 -59.638  1.00  0.00    -0.264 OA
HETATM    4  H   UNL     1     -44.271  57.238 -57.824  1.00  0.00     0.190 HD
ENDROOT
BRANCH   2   5
HETATM    5  N   UNL     1     -43.203  55.481 -57.414  1.00  0.00    -0.262 N 
HETATM    6  C   UNL     1     -42.986  55.700 -56.071  1.00  0.00     0.288 C 
HETATM    7  O   UNL     1     -43.592  56.560 -55.435  1.00  0.00    -0.264 OA
HETATM    8  H   UNL     1     -42.671  54.803 -57.952  1.00  0.00     0.190 HD
BRANCH   6   9
HETATM    9  C   UNL     1     -41.998  54.837 -55.478  1.00  0.00     0.121 A 
HETATM   10  N   UNL     1     -40.660  55.108 -55.535  1.00  0.00    -0.272 N 
HETATM   11  H   UNL     1     -40.216  55.904 -55.983  1.00  0.00     0.189 HD
HETATM   12  N   UNL     1     -39.889  54.205 -54.909  1.00  0.00    -0.174 NA
HETATM   13  C   UNL     1     -40.748  53.286 -54.441  1.00  0.00     0.089 A 
HETATM   14  C   UNL     1     -42.081  53.651 -54.774  1.00  0.00     0.071 A 
BRANCH  13  15
HETATM   15  C   UNL     1     -40.302  52.107 -53.689  1.00  0.00    -0.006 A 
HETATM   16  C   UNL     1     -39.978  52.211 -52.328  1.00  0.00     0.014 A 
HETATM   17  C   UNL     1     -39.574  51.088 -51.601  1.00  0.00     0.001 A 
HETATM   18  C   UNL     1     -39.482  49.847 -52.228  1.00  0.00     0.000 A 
HETATM   19  C   UNL     1     -39.792  49.728 -53.580  1.00  0.00     0.001 A 
HETATM   20  C   UNL     1     -40.199  50.851 -54.307  1.00  0.00     0.014 A 
ENDBRANCH  13  15
ENDBRANCH   6   9
ENDBRANCH   2   5
BRANCH   1  21
HETATM   21  C   UNL     1     -45.669  56.621 -59.981  1.00  0.00     0.125 C 
HETATM   22  N   UNL     1     -45.730  57.883 -59.679  1.00  0.00    -0.164 NA
HETATM   23  N   UNL     1     -46.630  58.687 -60.373  1.00  0.00    -0.200 N 
HETATM   24  C   UNL     1     -47.558  58.178 -61.295  1.00  0.00     0.245 C 
HETATM   25  C   UNL     1     -47.790  56.696 -61.168  1.00  0.00     0.111 C 
HETATM   26  O   UNL     1     -48.185  58.822 -62.135  1.00  0.00    -0.271 OA
HETATM   27  C   UNL     1     -46.470  55.981 -61.073  1.00  0.00     0.076 C 
BRANCH  23  28
HETATM   28  C   UNL     1     -46.454  60.093 -60.151  1.00  0.00     0.068 A 
HETATM   29  C   UNL     1     -45.407  60.748 -60.835  1.00  0.00     0.039 A 
HETATM   30  C   UNL     1     -45.203  62.131 -60.728  1.00  0.00    -0.060 A 
HETATM   31  C   UNL     1     -44.129  62.815 -61.521  1.00  0.00     0.048 C 
HETATM   32  C   UNL     1     -46.062  62.880 -59.927  1.00  0.00     0.007 A 
HETATM   33  C   UNL     1     -47.074  62.247 -59.206  1.00  0.00     0.009 A 
HETATM   34  C   UNL     1     -47.264  60.853 -59.281  1.00  0.00    -0.033 A 
HETATM   35  C   UNL     1     -48.309  60.271 -58.364  1.00  0.00     0.050 C 
ENDBRANCH  23  28
ENDBRANCH   1  21
TORSDOF 5
ENDMDL
MODEL 10
REMARK VINA RESULT:      -8.7      5.889     11.307
REMARK  5 active torsions:
REMARK  status: ('A' for Active; 'I' for Inactive)
REMARK    1  A    between atoms: C_4  and  N_5 
REMARK    2  A    between atoms: C_7  and  C_8 
REMARK       I    between atoms: C_8  and  N_9 
REMARK    3  A    between atoms: N_9  and  N_10 
REMARK       I    between atoms: N_10  and  C_11 
REMARK    4  A    between atoms: C_11  and  C_12 
REMARK    5  A    between atoms: C_16  and  C_17 
ROOT
HETATM    1  C   UNL     1     -43.558  56.511 -53.925  1.00  0.00     0.286 C 
HETATM    2  N   UNL     1     -43.283  56.182 -55.232  1.00  0.00    -0.262 N 
HETATM    3  O   UNL     1     -44.507  57.203 -53.576  1.00  0.00    -0.264 OA
HETATM    4  H   UNL     1     -42.487  55.604 -55.509  1.00  0.00     0.190 HD
ENDROOT
BRANCH   2   5
HETATM    5  N   UNL     1     -44.161  56.653 -56.212  1.00  0.00    -0.262 N 
HETATM    6  C   UNL     1     -43.689  57.281 -57.344  1.00  0.00     0.288 C 
HETATM    7  O   UNL     1     -42.490  57.404 -57.579  1.00  0.00    -0.264 OA
HETATM    8  H   UNL     1     -45.151  56.590 -55.991  1.00  0.00     0.190 HD
BRANCH   6   9
HETATM    9  C   UNL     1     -44.716  57.773 -58.225  1.00  0.00     0.121 A 
HETATM   10  N   UNL     1     -45.109  59.081 -58.233  1.00  0.00    -0.272 N 
HETATM   11  H   UNL     1     -44.753  59.830 -57.647  1.00  0.00     0.189 HD
HETATM   12  N   UNL     1     -46.063  59.364 -59.135  1.00  0.00    -0.174 NA
HETATM   13  C   UNL     1     -46.330  58.190 -59.729  1.00  0.00     0.089 A 
HETATM   14  C   UNL     1     -45.501  57.170 -59.188  1.00  0.00     0.071 A 
BRANCH  13  15
HETATM   15  C   UNL     1     -47.336  58.060 -60.790  1.00  0.00    -0.006 A 
HETATM   16  C   UNL     1     -47.982  59.196 -61.302  1.00  0.00     0.014 A 
HETATM   17  C   UNL     1     -48.925  59.080 -62.328  1.00  0.00     0.001 A 
HETATM   18  C   UNL     1     -49.240  57.827 -62.848  1.00  0.00     0.000 A 
HETATM   19  C   UNL     1     -48.615  56.689 -62.345  1.00  0.00     0.001 A 
HETATM   20  C   UNL     1     -47.669  56.804 -61.321  1.00  0.00     0.014 A 
ENDBRANCH  13  15
ENDBRANCH   6   9
ENDBRANCH   2   5
BRANCH   1  21
HETATM   21  C   UNL     1     -42.601  55.945 -52.890  1.00  0.00     0.125 C 
HETATM   22  N   UNL     1     -42.127  54.746 -53.050  1.00  0.00    -0.164 NA
HETATM   23  N   UNL     1     -41.243  54.251 -52.095  1.00  0.00    -0.200 N 
HETATM   24  C   UNL     1     -40.936  54.934 -50.909  1.00  0.00     0.245 C 
HETATM   25  C   UNL     1     -41.926  56.011 -50.554  1.00  0.00     0.111 C 
HETATM   26  O   UNL     1     -39.986  54.711 -50.159  1.00  0.00    -0.271 OA
HETATM   27  C   UNL     1     -42.214  56.856 -51.766  1.00  0.00     0.076 C 
BRANCH  23  28
HETATM   28  C   UNL     1     -40.586  53.035 -52.479  1.00  0.00     0.068 A 
HETATM   29  C   UNL     1     -40.320  52.078 -51.476  1.00  0.00     0.039 A 
HETATM   30  C   UNL     1     -39.741  50.835 -51.772  1.00  0.00    -0.060 A 
HETATM   31  C   UNL     1     -39.535  49.807 -50.699  1.00  0.00     0.048 C 
HETATM   32  C   UNL     1     -39.424  50.537 -53.095  1.00  0.00     0.007 A 
HETATM   33  C   UNL     1     -39.634  51.485 -54.095  1.00  0.00     0.009 A 
HETATM   34  C   UNL     1     -40.184  52.749 -53.802  1.00  0.00    -0.033 A 
HETATM   35  C   UNL     1     -40.250  53.730 -54.943  1.00  0.00     0.050 C 
ENDBRANCH  23  28
ENDBRANCH   1  21
TORSDOF 5
ENDMDL
