MODEL 1
REMARK VINA RESULT:      -8.9      0.000      0.000
REMARK  4 active torsions:
REMARK  status: ('A' for Active; 'I' for Inactive)
REMARK    1  A    between atoms: C_5  and  C_6 
REMARK    2  A    between atoms: C_6  and  N_7 
REMARK    3  A    between atoms: C_17  and  C_18 
REMARK    4  A    between atoms: C_27  and  C_28 
ROOT
HETATM    1  N   UNL     1     -43.648  55.491 -56.208  1.00  0.00    -0.067 N 
HETATM    2  H   UNL     1     -44.548  55.506 -56.712  1.00  0.00     0.280 HD
HETATM    3  C   UNL     1     -43.563  54.171 -55.498  1.00  0.00     0.236 C 
HETATM    4  C   UNL     1     -42.380  54.124 -54.532  1.00  0.00     0.039 C 
HETATM    5  C   UNL     1     -42.285  55.305 -53.526  1.00  0.00    -0.013 C 
HETATM    6  C   UNL     1     -43.339  55.206 -52.391  1.00  0.00     0.244 C 
HETATM    7  N   UNL     1     -43.006  54.120 -51.401  1.00  0.00    -0.073 N 
HETATM    8  H   UNL     1     -42.985  53.211 -51.883  1.00  0.00     0.279 HD
HETATM    9  C   UNL     1     -44.071  53.986 -50.334  1.00  0.00     0.269 C 
HETATM   10  C   UNL     1     -41.637  54.312 -50.760  1.00  0.00     0.243 C 
HETATM   11  C   UNL     1     -40.539  54.269 -51.836  1.00  0.00     0.045 C 
HETATM   12  C   UNL     1     -40.863  55.367 -52.884  1.00  0.00     0.022 C 
HETATM   13  C   UNL     1     -42.493  56.632 -54.319  1.00  0.00     0.039 C 
HETATM   14  C   UNL     1     -43.706  56.645 -55.247  1.00  0.00     0.236 C 
ENDROOT
BRANCH  11  15
HETATM   15  C   UNL     1     -40.235  52.899 -52.440  1.00  0.00    -0.052 A 
HETATM   16  C   UNL     1     -40.280  52.629 -53.819  1.00  0.00     0.007 A 
HETATM   17  C   UNL     1     -39.982  51.356 -54.319  1.00  0.00     0.001 A 
HETATM   18  C   UNL     1     -39.663  50.319 -53.451  1.00  0.00     0.000 A 
HETATM   19  C   UNL     1     -39.666  50.545 -52.080  1.00  0.00     0.001 A 
HETATM   20  C   UNL     1     -39.961  51.816 -51.582  1.00  0.00     0.007 A 
ENDBRANCH  11  15
BRANCH   1  21
HETATM   21  C   UNL     1     -42.629  55.701 -57.331  1.00  0.00     0.277 C 
BRANCH  21  22
HETATM   22  C   UNL     1     -42.847  56.853 -58.245  1.00  0.00     0.011 A 
HETATM   23  C   UNL     1     -42.061  58.027 -58.359  1.00  0.00     0.149 A 
HETATM   24  N   UNL     1     -42.545  58.903 -59.226  1.00  0.00    -0.185 NA
HETATM   25  N   UNL     1     -43.623  58.293 -59.740  1.00  0.00    -0.278 N 
HETATM   26  C   UNL     1     -44.396  58.965 -60.761  1.00  0.00     0.179 C 
HETATM   27  C   UNL     1     -43.829  57.035 -59.216  1.00  0.00     0.043 A 
BRANCH  27  28
HETATM   28  C   UNL     1     -44.936  56.105 -59.714  1.00  0.00     0.038 A 
HETATM   29  C   UNL     1     -44.760  55.392 -61.037  1.00  0.00     0.011 A 
HETATM   30  C   UNL     1     -44.775  54.606 -59.771  1.00  0.00     0.011 A 
ENDBRANCH  27  28
ENDBRANCH  21  22
ENDBRANCH   1  21
TORSDOF 4
ENDMDL
MODEL 2
REMARK VINA RESULT:      -8.6      2.342      4.693
REMARK  4 active torsions:
REMARK  status: ('A' for Active; 'I' for Inactive)
REMARK    1  A    between atoms: C_5  and  C_6 
REMARK    2  A    between atoms: C_6  and  N_7 
REMARK    3  A    between atoms: C_17  and  C_18 
REMARK    4  A    between atoms: C_27  and  C_28 
ROOT
HETATM    1  N   UNL     1     -42.226  55.209 -56.216  1.00  0.00    -0.067 N 
HETATM    2  H   UNL     1     -41.692  54.901 -57.042  1.00  0.00     0.280 HD
HETATM    3  C   UNL     1     -41.244  55.825 -55.261  1.00  0.00     0.236 C 
HETATM    4  C   UNL     1     -41.881  56.112 -53.901  1.00  0.00     0.039 C 
HETATM    5  C   UNL     1     -42.626  54.918 -53.242  1.00  0.00    -0.013 C 
HETATM    6  C   UNL     1     -41.652  53.852 -52.669  1.00  0.00     0.244 C 
HETATM    7  N   UNL     1     -40.965  54.329 -51.416  1.00  0.00    -0.073 N 
HETATM    8  H   UNL     1     -40.412  55.171 -51.627  1.00  0.00     0.279 HD
HETATM    9  C   UNL     1     -39.970  53.312 -50.900  1.00  0.00     0.269 C 
HETATM   10  C   UNL     1     -41.948  54.711 -50.317  1.00  0.00     0.243 C 
HETATM   11  C   UNL     1     -42.843  55.870 -50.788  1.00  0.00     0.045 C 
HETATM   12  C   UNL     1     -43.555  55.417 -52.091  1.00  0.00     0.022 C 
HETATM   13  C   UNL     1     -43.540  54.263 -54.323  1.00  0.00     0.039 C 
HETATM   14  C   UNL     1     -42.852  53.964 -55.654  1.00  0.00     0.236 C 
ENDROOT
BRANCH  11  15
HETATM   15  C   UNL     1     -42.179  57.243 -50.884  1.00  0.00    -0.052 A 
HETATM   16  C   UNL     1     -40.842  57.487 -50.522  1.00  0.00     0.007 A 
HETATM   17  C   UNL     1     -40.282  58.764 -50.639  1.00  0.00     0.001 A 
HETATM   18  C   UNL     1     -41.050  59.829 -51.092  1.00  0.00     0.000 A 
HETATM   19  C   UNL     1     -42.389  59.626 -51.404  1.00  0.00     0.001 A 
HETATM   20  C   UNL     1     -42.948  58.351 -51.288  1.00  0.00     0.007 A 
ENDBRANCH  11  15
BRANCH   1  21
HETATM   21  C   UNL     1     -43.252  56.174 -56.817  1.00  0.00     0.277 C 
BRANCH  21  22
HETATM   22  C   UNL     1     -42.793  57.554 -57.126  1.00  0.00     0.011 A 
HETATM   23  C   UNL     1     -42.106  57.997 -58.283  1.00  0.00     0.149 A 
HETATM   24  N   UNL     1     -41.778  59.280 -58.242  1.00  0.00    -0.185 NA
HETATM   25  N   UNL     1     -42.298  59.714 -57.085  1.00  0.00    -0.278 N 
HETATM   26  C   UNL     1     -42.151  61.106 -56.721  1.00  0.00     0.179 C 
HETATM   27  C   UNL     1     -42.959  58.724 -56.389  1.00  0.00     0.043 A 
BRANCH  27  28
HETATM   28  C   UNL     1     -43.719  58.996 -55.090  1.00  0.00     0.038 A 
HETATM   29  C   UNL     1     -45.145  59.498 -55.161  1.00  0.00     0.011 A 
HETATM   30  C   UNL     1     -44.867  58.136 -54.624  1.00  0.00     0.011 A 
ENDBRANCH  27  28
ENDBRANCH  21  22
ENDBRANCH   1  21
TORSDOF 4
ENDMDL
MODEL 3
REMARK VINA RESULT:      -8.5      2.261      3.346
REMARK  4 active torsions:
REMARK  status: ('A' for Active; 'I' for Inactive)
REMARK    1  A    between atoms: C_5  and  C_6 
REMARK    2  A    between atoms: C_6  and  N_7 
REMARK    3  A    between atoms: C_17  and  C_18 
REMARK    4  A    between atoms: C_27  and  C_28 
ROOT
HETATM    1  N   UNL     1     -44.565  58.841 -56.918  1.00  0.00    -0.067 N 
HETATM    2  H   UNL     1     -45.503  58.986 -57.321  1.00  0.00     0.280 HD
HETATM    3  C   UNL     1     -44.608  57.547 -56.156  1.00  0.00     0.236 C 
HETATM    4  C   UNL     1     -43.345  57.338 -55.323  1.00  0.00     0.039 C 
HETATM    5  C   UNL     1     -42.949  58.519 -54.394  1.00  0.00    -0.013 C 
HETATM    6  C   UNL     1     -43.869  58.628 -53.147  1.00  0.00     0.244 C 
HETATM    7  N   UNL     1     -43.600  57.534 -52.147  1.00  0.00    -0.073 N 
HETATM    8  H   UNL     1     -43.778  56.619 -52.583  1.00  0.00     0.279 HD
HETATM    9  C   UNL     1     -44.543  57.609 -50.965  1.00  0.00     0.269 C 
HETATM   10  C   UNL     1     -42.153  57.521 -51.668  1.00  0.00     0.243 C 
HETATM   11  C   UNL     1     -41.207  57.267 -52.853  1.00  0.00     0.045 C 
HETATM   12  C   UNL     1     -41.471  58.369 -53.913  1.00  0.00     0.022 C 
HETATM   13  C   UNL     1     -43.034  59.837 -55.223  1.00  0.00     0.039 C 
HETATM   14  C   UNL     1     -44.329  60.018 -56.014  1.00  0.00     0.236 C 
ENDROOT
BRANCH  11  15
HETATM   15  C   UNL     1     -41.195  55.847 -53.418  1.00  0.00    -0.052 A 
HETATM   16  C   UNL     1     -41.908  54.777 -52.848  1.00  0.00     0.007 A 
HETATM   17  C   UNL     1     -41.869  53.498 -53.414  1.00  0.00     0.001 A 
HETATM   18  C   UNL     1     -41.095  53.252 -54.542  1.00  0.00     0.000 A 
HETATM   19  C   UNL     1     -40.338  54.279 -55.092  1.00  0.00     0.001 A 
HETATM   20  C   UNL     1     -40.378  55.557 -54.528  1.00  0.00     0.007 A 
ENDBRANCH  11  15
BRANCH   1  21
HETATM   21  C   UNL     1     -43.661  58.847 -58.153  1.00  0.00     0.277 C 
BRANCH  21  22
HETATM   22  C   UNL     1     -43.696  57.648 -59.032  1.00  0.00     0.011 A 
HETATM   23  C   UNL     1     -42.602  56.845 -59.442  1.00  0.00     0.149 A 
HETATM   24  N   UNL     1     -42.945  55.876 -60.277  1.00  0.00    -0.185 NA
HETATM   25  N   UNL     1     -44.277  55.989 -60.381  1.00  0.00    -0.278 N 
HETATM   26  C   UNL     1     -45.003  55.053 -61.211  1.00  0.00     0.179 C 
HETATM   27  C   UNL     1     -44.790  57.015 -59.618  1.00  0.00     0.043 A 
BRANCH  27  28
HETATM   28  C   UNL     1     -46.291  57.280 -59.493  1.00  0.00     0.038 A 
HETATM   29  C   UNL     1     -46.840  58.625 -59.917  1.00  0.00     0.011 A 
HETATM   30  C   UNL     1     -47.197  57.404 -60.693  1.00  0.00     0.011 A 
ENDBRANCH  27  28
ENDBRANCH  21  22
ENDBRANCH   1  21
TORSDOF 4
ENDMDL
MODEL 4
REMARK VINA RESULT:      -8.4      2.992      8.098
REMARK  4 active torsions:
REMARK  status: ('A' for Active; 'I' for Inactive)
REMARK    1  A    between atoms: C_5  and  C_6 
REMARK    2  A    between atoms: C_6  and  N_7 
REMARK    3  A    between atoms: C_17  and  C_18 
REMARK    4  A    between atoms: C_27  and  C_28 
ROOT
HETATM    1  N   UNL     1     -42.023  54.348 -53.060  1.00  0.00    -0.067 N 
HETATM    2  H   UNL     1     -42.457  53.426 -52.909  1.00  0.00     0.280 HD
HETATM    3  C   UNL     1     -42.955  55.375 -52.483  1.00  0.00     0.236 C 
HETATM    4  C   UNL     1     -42.530  56.796 -52.851  1.00  0.00     0.039 C 
HETATM    5  C   UNL     1     -42.284  57.054 -54.363  1.00  0.00    -0.013 C 
HETATM    6  C   UNL     1     -43.606  57.136 -55.175  1.00  0.00     0.244 C 
HETATM    7  N   UNL     1     -44.355  58.416 -54.909  1.00  0.00    -0.073 N 
HETATM    8  H   UNL     1     -44.601  58.468 -53.911  1.00  0.00     0.279 HD
HETATM    9  C   UNL     1     -45.673  58.460 -55.653  1.00  0.00     0.269 C 
HETATM   10  C   UNL     1     -43.528  59.656 -55.225  1.00  0.00     0.243 C 
HETATM   11  C   UNL     1     -42.274  59.695 -54.336  1.00  0.00     0.045 C 
HETATM   12  C   UNL     1     -41.485  58.379 -54.573  1.00  0.00     0.022 C 
HETATM   13  C   UNL     1     -41.403  55.891 -54.916  1.00  0.00     0.039 C 
HETATM   14  C   UNL     1     -41.885  54.488 -54.550  1.00  0.00     0.236 C 
ENDROOT
BRANCH  11  15
HETATM   15  C   UNL     1     -42.499  60.032 -52.862  1.00  0.00    -0.052 A 
HETATM   16  C   UNL     1     -43.688  60.594 -52.365  1.00  0.00     0.007 A 
HETATM   17  C   UNL     1     -43.843  60.873 -51.003  1.00  0.00     0.001 A 
HETATM   18  C   UNL     1     -42.806  60.625 -50.113  1.00  0.00     0.000 A 
HETATM   19  C   UNL     1     -41.600  60.122 -50.586  1.00  0.00     0.001 A 
HETATM   20  C   UNL     1     -41.446  59.841 -51.946  1.00  0.00     0.007 A 
ENDBRANCH  11  15
BRANCH   1  21
HETATM   21  C   UNL     1     -40.675  54.209 -52.348  1.00  0.00     0.277 C 
BRANCH  21  22
HETATM   22  C   UNL     1     -40.438  52.962 -51.572  1.00  0.00     0.011 A 
HETATM   23  C   UNL     1     -40.789  52.704 -50.224  1.00  0.00     0.149 A 
HETATM   24  N   UNL     1     -40.390  51.516 -49.794  1.00  0.00    -0.185 NA
HETATM   25  N   UNL     1     -39.826  50.951 -50.871  1.00  0.00    -0.278 N 
HETATM   26  C   UNL     1     -39.295  49.610 -50.770  1.00  0.00     0.179 C 
HETATM   27  C   UNL     1     -39.864  51.762 -51.985  1.00  0.00     0.043 A 
BRANCH  27  28
HETATM   28  C   UNL     1     -39.372  51.302 -53.358  1.00  0.00     0.038 A 
HETATM   29  C   UNL     1     -40.056  50.132 -54.033  1.00  0.00     0.011 A 
HETATM   30  C   UNL     1     -40.178  51.497 -54.618  1.00  0.00     0.011 A 
ENDBRANCH  27  28
ENDBRANCH  21  22
ENDBRANCH   1  21
TORSDOF 4
ENDMDL
MODEL 5
REMARK VINA RESULT:      -8.3      2.212      7.975
REMARK  4 active torsions:
REMARK  status: ('A' for Active; 'I' for Inactive)
REMARK    1  A    between atoms: C_5  and  C_6 
REMARK    2  A    between atoms: C_6  and  N_7 
REMARK    3  A    between atoms: C_17  and  C_18 
REMARK    4  A    between atoms: C_27  and  C_28 
ROOT
HETATM    1  N   UNL     1     -42.364  56.429 -53.083  1.00  0.00    -0.067 N 
HETATM    2  H   UNL     1     -41.651  56.431 -52.339  1.00  0.00     0.280 HD
HETATM    3  C   UNL     1     -41.712  56.969 -54.323  1.00  0.00     0.236 C 
HETATM    4  C   UNL     1     -42.730  57.230 -55.432  1.00  0.00     0.039 C 
HETATM    5  C   UNL     1     -43.958  58.093 -55.028  1.00  0.00    -0.013 C 
HETATM    6  C   UNL     1     -43.601  59.596 -54.870  1.00  0.00     0.244 C 
HETATM    7  N   UNL     1     -43.361  60.264 -56.199  1.00  0.00    -0.073 N 
HETATM    8  H   UNL     1     -42.570  59.807 -56.674  1.00  0.00     0.279 HD
HETATM    9  C   UNL     1     -42.951  61.712 -56.033  1.00  0.00     0.269 C 
HETATM   10  C   UNL     1     -44.559  60.157 -57.134  1.00  0.00     0.243 C 
HETATM   11  C   UNL     1     -44.861  58.681 -57.439  1.00  0.00     0.045 C 
HETATM   12  C   UNL     1     -45.097  57.957 -56.087  1.00  0.00     0.022 C 
HETATM   13  C   UNL     1     -44.513  57.542 -53.678  1.00  0.00     0.039 C 
HETATM   14  C   UNL     1     -43.463  57.328 -52.589  1.00  0.00     0.236 C 
ENDROOT
BRANCH  11  15
HETATM   15  C   UNL     1     -43.878  57.966 -58.366  1.00  0.00    -0.052 A 
HETATM   16  C   UNL     1     -42.779  58.600 -58.972  1.00  0.00     0.007 A 
HETATM   17  C   UNL     1     -41.904  57.894 -59.805  1.00  0.00     0.001 A 
HETATM   18  C   UNL     1     -42.125  56.549 -60.076  1.00  0.00     0.000 A 
HETATM   19  C   UNL     1     -43.236  55.913 -59.535  1.00  0.00     0.001 A 
HETATM   20  C   UNL     1     -44.108  56.617 -58.701  1.00  0.00     0.007 A 
ENDBRANCH  11  15
BRANCH   1  21
HETATM   21  C   UNL     1     -42.782  54.958 -53.146  1.00  0.00     0.277 C 
BRANCH  21  22
HETATM   22  C   UNL     1     -41.699  53.940 -53.155  1.00  0.00     0.011 A 
HETATM   23  C   UNL     1     -41.059  53.368 -54.283  1.00  0.00     0.149 A 
HETATM   24  N   UNL     1     -40.168  52.440 -53.968  1.00  0.00    -0.185 NA
HETATM   25  N   UNL     1     -40.164  52.430 -52.627  1.00  0.00    -0.278 N 
HETATM   26  C   UNL     1     -39.269  51.535 -51.929  1.00  0.00     0.179 C 
HETATM   27  C   UNL     1     -41.038  53.345 -52.082  1.00  0.00     0.043 A 
BRANCH  27  28
HETATM   28  C   UNL     1     -41.142  53.591 -50.576  1.00  0.00     0.038 A 
HETATM   29  C   UNL     1     -40.049  54.371 -49.878  1.00  0.00     0.011 A 
HETATM   30  C   UNL     1     -41.415  54.954 -49.991  1.00  0.00     0.011 A 
ENDBRANCH  27  28
ENDBRANCH  21  22
ENDBRANCH   1  21
TORSDOF 4
ENDMDL
MODEL 6
REMARK VINA RESULT:      -8.3      0.774      2.036
REMARK  4 active torsions:
REMARK  status: ('A' for Active; 'I' for Inactive)
REMARK    1  A    between atoms: C_5  and  C_6 
REMARK    2  A    between atoms: C_6  and  N_7 
REMARK    3  A    between atoms: C_17  and  C_18 
REMARK    4  A    between atoms: C_27  and  C_28 
ROOT
HETATM    1  N   UNL     1     -43.641  55.561 -56.179  1.00  0.00    -0.067 N 
HETATM    2  H   UNL     1     -44.528  55.576 -56.704  1.00  0.00     0.280 HD
HETATM    3  C   UNL     1     -43.551  54.224 -55.503  1.00  0.00     0.236 C 
HETATM    4  C   UNL     1     -42.391  54.169 -54.510  1.00  0.00     0.039 C 
HETATM    5  C   UNL     1     -42.338  55.323 -53.471  1.00  0.00    -0.013 C 
HETATM    6  C   UNL     1     -43.419  55.177 -52.364  1.00  0.00     0.244 C 
HETATM    7  N   UNL     1     -43.091  54.070 -51.397  1.00  0.00    -0.073 N 
HETATM    8  H   UNL     1     -43.044  53.175 -51.902  1.00  0.00     0.279 HD
HETATM    9  C   UNL     1     -44.180  53.891 -50.360  1.00  0.00     0.269 C 
HETATM   10  C   UNL     1     -41.741  54.265 -50.717  1.00  0.00     0.243 C 
HETATM   11  C   UNL     1     -40.618  54.270 -51.767  1.00  0.00     0.045 C 
HETATM   12  C   UNL     1     -40.933  55.390 -52.793  1.00  0.00     0.022 C 
HETATM   13  C   UNL     1     -42.549  56.668 -54.232  1.00  0.00     0.039 C 
HETATM   14  C   UNL     1     -43.740  56.687 -55.189  1.00  0.00     0.236 C 
ENDROOT
BRANCH  11  15
HETATM   15  C   UNL     1     -40.277  52.921 -52.400  1.00  0.00    -0.052 A 
HETATM   16  C   UNL     1     -40.294  52.685 -53.787  1.00  0.00     0.007 A 
HETATM   17  C   UNL     1     -39.963  51.432 -54.312  1.00  0.00     0.001 A 
HETATM   18  C   UNL     1     -39.638  50.379 -53.466  1.00  0.00     0.000 A 
HETATM   19  C   UNL     1     -39.668  50.570 -52.090  1.00  0.00     0.001 A 
HETATM   20  C   UNL     1     -39.997  51.822 -51.565  1.00  0.00     0.007 A 
ENDBRANCH  11  15
BRANCH   1  21
HETATM   21  C   UNL     1     -42.598  55.818 -57.271  1.00  0.00     0.277 C 
BRANCH  21  22
HETATM   22  C   UNL     1     -43.046  56.548 -58.486  1.00  0.00     0.011 A 
HETATM   23  C   UNL     1     -43.931  56.089 -59.492  1.00  0.00     0.149 A 
HETATM   24  N   UNL     1     -44.091  56.951 -60.486  1.00  0.00    -0.185 NA
HETATM   25  N   UNL     1     -43.362  58.014 -60.117  1.00  0.00    -0.278 N 
HETATM   26  C   UNL     1     -43.329  59.180 -60.973  1.00  0.00     0.179 C 
HETATM   27  C   UNL     1     -42.742  57.844 -58.898  1.00  0.00     0.043 A 
BRANCH  27  28
HETATM   28  C   UNL     1     -41.936  58.953 -58.220  1.00  0.00     0.038 A 
HETATM   29  C   UNL     1     -42.639  60.227 -57.804  1.00  0.00     0.011 A 
HETATM   30  C   UNL     1     -42.103  59.305 -56.763  1.00  0.00     0.011 A 
ENDBRANCH  27  28
ENDBRANCH  21  22
ENDBRANCH   1  21
TORSDOF 4
ENDMDL
MODEL 7
REMARK VINA RESULT:      -8.2      4.358      7.182
REMARK  4 active torsions:
REMARK  status: ('A' for Active; 'I' for Inactive)
REMARK    1  A    between atoms: C_5  and  C_6 
REMARK    2  A    between atoms: C_6  and  N_7 
REMARK    3  A    between atoms: C_17  and  C_18 
REMARK    4  A    between atoms: C_27  and  C_28 
ROOT
HETATM    1  N   UNL     1     -41.861  60.197 -52.838  1.00  0.00    -0.067 N 
HETATM    2  H   UNL     1     -41.284  61.043 -52.723  1.00  0.00     0.280 HD
HETATM    3  C   UNL     1     -40.997  59.157 -53.489  1.00  0.00     0.236 C 
HETATM    4  C   UNL     1     -41.807  57.935 -53.920  1.00  0.00     0.039 C 
HETATM    5  C   UNL     1     -43.065  58.233 -54.781  1.00  0.00    -0.013 C 
HETATM    6  C   UNL     1     -42.708  58.629 -56.240  1.00  0.00     0.244 C 
HETATM    7  N   UNL     1     -42.231  57.449 -57.046  1.00  0.00    -0.073 N 
HETATM    8  H   UNL     1     -41.382  57.059 -56.615  1.00  0.00     0.279 HD
HETATM    9  C   UNL     1     -41.823  57.854 -58.447  1.00  0.00     0.269 C 
HETATM   10  C   UNL     1     -43.256  56.323 -57.100  1.00  0.00     0.243 C 
HETATM   11  C   UNL     1     -43.535  55.795 -55.683  1.00  0.00     0.045 C 
HETATM   12  C   UNL     1     -44.013  56.992 -54.818  1.00  0.00     0.022 C 
HETATM   13  C   UNL     1     -43.853  59.395 -54.102  1.00  0.00     0.039 C 
HETATM   14  C   UNL     1     -43.007  60.609 -53.719  1.00  0.00     0.236 C 
ENDROOT
BRANCH  11  15
HETATM   15  C   UNL     1     -42.426  54.963 -55.040  1.00  0.00    -0.052 A 
HETATM   16  C   UNL     1     -41.200  54.681 -55.669  1.00  0.00     0.007 A 
HETATM   17  C   UNL     1     -40.215  53.921 -55.028  1.00  0.00     0.001 A 
HETATM   18  C   UNL     1     -40.443  53.402 -53.759  1.00  0.00     0.000 A 
HETATM   19  C   UNL     1     -41.667  53.619 -53.139  1.00  0.00     0.001 A 
HETATM   20  C   UNL     1     -42.650  54.379 -53.777  1.00  0.00     0.007 A 
ENDBRANCH  11  15
BRANCH   1  21
HETATM   21  C   UNL     1     -42.295  59.888 -51.402  1.00  0.00     0.277 C 
BRANCH  21  22
HETATM   22  C   UNL     1     -43.095  60.920 -50.692  1.00  0.00     0.011 A 
HETATM   23  C   UNL     1     -42.745  62.274 -50.459  1.00  0.00     0.149 A 
HETATM   24  N   UNL     1     -43.644  62.933 -49.742  1.00  0.00    -0.185 NA
HETATM   25  N   UNL     1     -44.625  62.041 -49.545  1.00  0.00    -0.278 N 
HETATM   26  C   UNL     1     -45.804  62.437 -48.807  1.00  0.00     0.179 C 
HETATM   27  C   UNL     1     -44.367  60.821 -50.133  1.00  0.00     0.043 A 
BRANCH  27  28
HETATM   28  C   UNL     1     -45.378  59.674 -50.131  1.00  0.00     0.038 A 
HETATM   29  C   UNL     1     -46.285  59.488 -51.329  1.00  0.00     0.011 A 
HETATM   30  C   UNL     1     -45.242  58.468 -51.027  1.00  0.00     0.011 A 
ENDBRANCH  27  28
ENDBRANCH  21  22
ENDBRANCH   1  21
TORSDOF 4
ENDMDL
MODEL 8
REMARK VINA RESULT:      -8.2      4.204      6.250
REMARK  4 active torsions:
REMARK  status: ('A' for Active; 'I' for Inactive)
REMARK    1  A    between atoms: C_5  and  C_6 
REMARK    2  A    between atoms: C_6  and  N_7 
REMARK    3  A    between atoms: C_17  and  C_18 
REMARK    4  A    between atoms: C_27  and  C_28 
ROOT
HETATM    1  N   UNL     1     -41.521  59.666 -53.009  1.00  0.00    -0.067 N 
HETATM    2  H   UNL     1     -40.981  60.439 -53.425  1.00  0.00     0.280 HD
HETATM    3  C   UNL     1     -40.544  58.577 -52.671  1.00  0.00     0.236 C 
HETATM    4  C   UNL     1     -41.254  57.288 -52.260  1.00  0.00     0.039 C 
HETATM    5  C   UNL     1     -42.341  56.775 -53.244  1.00  0.00    -0.013 C 
HETATM    6  C   UNL     1     -41.733  56.144 -54.527  1.00  0.00     0.244 C 
HETATM    7  N   UNL     1     -41.109  54.800 -54.256  1.00  0.00    -0.073 N 
HETATM    8  H   UNL     1     -40.346  54.907 -53.572  1.00  0.00     0.279 HD
HETATM    9  C   UNL     1     -40.461  54.222 -55.496  1.00  0.00     0.269 C 
HETATM   10  C   UNL     1     -42.097  53.804 -53.662  1.00  0.00     0.243 C 
HETATM   11  C   UNL     1     -42.619  54.320 -52.311  1.00  0.00     0.045 C 
HETATM   12  C   UNL     1     -43.255  55.715 -52.551  1.00  0.00     0.022 C 
HETATM   13  C   UNL     1     -43.248  57.982 -53.635  1.00  0.00     0.039 C 
HETATM   14  C   UNL     1     -42.495  59.239 -54.071  1.00  0.00     0.236 C 
ENDROOT
BRANCH  11  15
HETATM   15  C   UNL     1     -41.635  54.275 -51.142  1.00  0.00    -0.052 A 
HETATM   16  C   UNL     1     -40.358  53.691 -51.223  1.00  0.00     0.007 A 
HETATM   17  C   UNL     1     -39.493  53.687 -50.123  1.00  0.00     0.001 A 
HETATM   18  C   UNL     1     -39.894  54.238 -48.912  1.00  0.00     0.000 A 
HETATM   19  C   UNL     1     -41.171  54.771 -48.790  1.00  0.00     0.001 A 
HETATM   20  C   UNL     1     -42.035  54.777 -49.888  1.00  0.00     0.007 A 
ENDBRANCH  11  15
BRANCH   1  21
HETATM   21  C   UNL     1     -42.201  60.335 -51.811  1.00  0.00     0.277 C 
BRANCH  21  22
HETATM   22  C   UNL     1     -43.200  61.399 -52.099  1.00  0.00     0.011 A 
HETATM   23  C   UNL     1     -43.048  62.518 -52.955  1.00  0.00     0.149 A 
HETATM   24  N   UNL     1     -44.100  63.324 -52.958  1.00  0.00    -0.185 NA
HETATM   25  N   UNL     1     -44.982  62.715 -52.152  1.00  0.00    -0.278 N 
HETATM   26  C   UNL     1     -46.280  63.317 -51.943  1.00  0.00     0.179 C 
HETATM   27  C   UNL     1     -44.508  61.527 -51.638  1.00  0.00     0.043 A 
BRANCH  27  28
HETATM   28  C   UNL     1     -45.366  60.603 -50.772  1.00  0.00     0.038 A 
HETATM   29  C   UNL     1     -46.371  59.690 -51.440  1.00  0.00     0.011 A 
HETATM   30  C   UNL     1     -45.184  59.106 -50.754  1.00  0.00     0.011 A 
ENDBRANCH  27  28
ENDBRANCH  21  22
ENDBRANCH   1  21
TORSDOF 4
ENDMDL
MODEL 9
REMARK VINA RESULT:      -8.1      2.651      7.672
REMARK  4 active torsions:
REMARK  status: ('A' for Active; 'I' for Inactive)
REMARK    1  A    between atoms: C_5  and  C_6 
REMARK    2  A    between atoms: C_6  and  N_7 
REMARK    3  A    between atoms: C_17  and  C_18 
REMARK    4  A    between atoms: C_27  and  C_28 
ROOT
HETATM    1  N   UNL     1     -42.511  56.568 -51.773  1.00  0.00    -0.067 N 
HETATM    2  H   UNL     1     -41.831  56.436 -51.010  1.00  0.00     0.280 HD
HETATM    3  C   UNL     1     -41.821  57.354 -52.850  1.00  0.00     0.236 C 
HETATM    4  C   UNL     1     -42.797  57.810 -53.933  1.00  0.00     0.039 C 
HETATM    5  C   UNL     1     -44.064  58.554 -53.426  1.00  0.00    -0.013 C 
HETATM    6  C   UNL     1     -43.756  60.003 -52.959  1.00  0.00     0.244 C 
HETATM    7  N   UNL     1     -43.476  60.924 -54.117  1.00  0.00    -0.073 N 
HETATM    8  H   UNL     1     -42.654  60.585 -54.634  1.00  0.00     0.279 HD
HETATM    9  C   UNL     1     -43.114  62.318 -53.651  1.00  0.00     0.269 C 
HETATM   10  C   UNL     1     -44.630  60.983 -55.111  1.00  0.00     0.243 C 
HETATM   11  C   UNL     1     -44.878  59.591 -55.715  1.00  0.00     0.045 C 
HETATM   12  C   UNL     1     -45.153  58.610 -54.544  1.00  0.00     0.022 C 
HETATM   13  C   UNL     1     -44.662  57.737 -52.239  1.00  0.00     0.039 C 
HETATM   14  C   UNL     1     -43.654  57.332 -51.164  1.00  0.00     0.236 C 
ENDROOT
BRANCH  11  15
HETATM   15  C   UNL     1     -43.837  59.092 -56.717  1.00  0.00    -0.052 A 
HETATM   16  C   UNL     1     -43.815  57.782 -57.229  1.00  0.00     0.007 A 
HETATM   17  C   UNL     1     -42.843  57.383 -58.153  1.00  0.00     0.001 A 
HETATM   18  C   UNL     1     -41.856  58.271 -58.563  1.00  0.00     0.000 A 
HETATM   19  C   UNL     1     -41.823  59.553 -58.029  1.00  0.00     0.001 A 
HETATM   20  C   UNL     1     -42.794  59.953 -57.108  1.00  0.00     0.007 A 
ENDBRANCH  11  15
BRANCH   1  21
HETATM   21  C   UNL     1     -42.886  55.131 -52.144  1.00  0.00     0.277 C 
BRANCH  21  22
HETATM   22  C   UNL     1     -41.871  54.074 -51.893  1.00  0.00     0.011 A 
HETATM   23  C   UNL     1     -41.442  53.569 -50.640  1.00  0.00     0.149 A 
HETATM   24  N   UNL     1     -40.476  52.667 -50.739  1.00  0.00    -0.185 NA
HETATM   25  N   UNL     1     -40.298  52.521 -52.060  1.00  0.00    -0.278 N 
HETATM   26  C   UNL     1     -39.317  51.573 -52.541  1.00  0.00     0.179 C 
HETATM   27  C   UNL     1     -41.143  53.315 -52.806  1.00  0.00     0.043 A 
BRANCH  27  28
HETATM   28  C   UNL     1     -41.198  53.253 -54.334  1.00  0.00     0.038 A 
HETATM   29  C   UNL     1     -41.428  54.528 -55.116  1.00  0.00     0.011 A 
HETATM   30  C   UNL     1     -40.115  53.831 -55.211  1.00  0.00     0.011 A 
ENDBRANCH  27  28
ENDBRANCH  21  22
ENDBRANCH   1  21
TORSDOF 4
ENDMDL
MODEL 10
REMARK VINA RESULT:      -8.1     14.944     18.662
REMARK  4 active torsions:
REMARK  status: ('A' for Active; 'I' for Inactive)
REMARK    1  A    between atoms: C_5  and  C_6 
REMARK    2  A    between atoms: C_6  and  N_7 
REMARK    3  A    between atoms: C_17  and  C_18 
REMARK    4  A    between atoms: C_27  and  C_28 
ROOT
HETATM    1  N   UNL     1     -32.377  38.304 -55.235  1.00  0.00    -0.067 N 
HETATM    2  H   UNL     1     -32.024  37.338 -55.313  1.00  0.00     0.280 HD
HETATM    3  C   UNL     1     -33.858  38.214 -55.004  1.00  0.00     0.236 C 
HETATM    4  C   UNL     1     -34.530  39.583 -55.100  1.00  0.00     0.039 C 
HETATM    5  C   UNL     1     -34.215  40.398 -56.385  1.00  0.00    -0.013 C 
HETATM    6  C   UNL     1     -34.949  39.842 -57.637  1.00  0.00     0.244 C 
HETATM    7  N   UNL     1     -36.425  40.144 -57.608  1.00  0.00    -0.073 N 
HETATM    8  H   UNL     1     -36.849  39.704 -56.780  1.00  0.00     0.279 HD
HETATM    9  C   UNL     1     -37.143  39.545 -58.797  1.00  0.00     0.269 C 
HETATM   10  C   UNL     1     -36.716  41.637 -57.512  1.00  0.00     0.243 C 
HETATM   11  C   UNL     1     -36.131  42.207 -56.209  1.00  0.00     0.045 C 
HETATM   12  C   UNL     1     -34.611  41.896 -56.197  1.00  0.00     0.022 C 
HETATM   13  C   UNL     1     -32.674  40.353 -56.621  1.00  0.00     0.039 C 
HETATM   14  C   UNL     1     -32.051  38.959 -56.547  1.00  0.00     0.236 C 
ENDROOT
BRANCH  11  15
HETATM   15  C   UNL     1     -36.856  41.826 -54.918  1.00  0.00    -0.052 A 
HETATM   16  C   UNL     1     -38.101  41.172 -54.889  1.00  0.00     0.007 A 
HETATM   17  C   UNL     1     -38.715  40.838 -53.677  1.00  0.00     0.001 A 
HETATM   18  C   UNL     1     -38.115  41.174 -52.470  1.00  0.00     0.000 A 
HETATM   19  C   UNL     1     -36.912  41.869 -52.471  1.00  0.00     0.001 A 
HETATM   20  C   UNL     1     -36.298  42.201 -53.681  1.00  0.00     0.007 A 
ENDBRANCH  11  15
BRANCH   1  21
HETATM   21  C   UNL     1     -31.562  38.868 -54.068  1.00  0.00     0.277 C 
BRANCH  21  22
HETATM   22  C   UNL     1     -31.777  38.261 -52.728  1.00  0.00     0.011 A 
HETATM   23  C   UNL     1     -31.606  36.904 -52.356  1.00  0.00     0.149 A 
HETATM   24  N   UNL     1     -31.934  36.658 -51.097  1.00  0.00    -0.185 NA
HETATM   25  N   UNL     1     -32.267  37.859 -50.604  1.00  0.00    -0.278 N 
HETATM   26  C   UNL     1     -32.660  37.970 -49.217  1.00  0.00     0.179 C 
HETATM   27  C   UNL     1     -32.151  38.871 -51.532  1.00  0.00     0.043 A 
BRANCH  27  28
HETATM   28  C   UNL     1     -32.380  40.342 -51.182  1.00  0.00     0.038 A 
HETATM   29  C   UNL     1     -33.348  41.156 -52.013  1.00  0.00     0.011 A 
HETATM   30  C   UNL     1     -33.673  40.846 -50.592  1.00  0.00     0.011 A 
ENDBRANCH  27  28
ENDBRANCH  21  22
ENDBRANCH   1  21
TORSDOF 4
ENDMDL
