MODEL 1
REMARK VINA RESULT:      -7.4      0.000      0.000
REMARK  5 active torsions:
REMARK  status: ('A' for Active; 'I' for Inactive)
REMARK    1  A    between atoms: C_2  and  C_3 
REMARK    2  A    between atoms: C_3  and  N_4 
REMARK       I    between atoms: N_4  and  C_5 
REMARK    3  A    between atoms: C_5  and  C_6 
REMARK    4  A    between atoms: C_10  and  N_11 
REMARK       I    between atoms: N_11  and  C_12 
REMARK       I    between atoms: C_12  and  N_13 
REMARK    5  A    between atoms: N_13  and  C_14 
ROOT
HETATM    1  C   UNL     1     -42.443  54.645 -53.436  1.00  0.00     0.053 A 
HETATM    2  C   UNL     1     -43.016  55.919 -53.346  1.00  0.00     0.051 A 
HETATM    3 CL   UNL     1     -43.100  56.824 -51.871  1.00  0.00    -0.083 Cl
HETATM    4  C   UNL     1     -43.518  56.551 -54.496  1.00  0.00     0.054 A 
HETATM    5  C   UNL     1     -43.455  55.924 -55.743  1.00  0.00     0.038 A 
HETATM    6  C   UNL     1     -42.873  54.658 -55.835  1.00  0.00     0.030 A 
HETATM    7  C   UNL     1     -42.370  54.026 -54.694  1.00  0.00     0.021 A 
ENDROOT
BRANCH   5   8
HETATM    8  N   UNL     1     -43.902  56.517 -56.941  1.00  0.00    -0.309 N 
HETATM    9  C   UNL     1     -43.215  57.385 -57.747  1.00  0.00     0.325 C 
HETATM   10  N   UNL     1     -43.785  57.666 -58.961  1.00  0.00    -0.306 N 
HETATM   11  O   UNL     1     -42.172  57.960 -57.448  1.00  0.00    -0.247 OA
HETATM   12  H   UNL     1     -43.336  58.441 -59.434  1.00  0.00     0.171 HD
HETATM   13  H   UNL     1     -44.893  56.465 -57.125  1.00  0.00     0.170 HD
BRANCH  10  14
HETATM   14  C   UNL     1     -44.736  56.970 -59.679  1.00  0.00     0.072 A 
HETATM   15  C   UNL     1     -46.148  56.932 -59.626  1.00  0.00     0.169 A 
HETATM   16  N   UNL     1     -46.674  56.102 -60.530  1.00  0.00    -0.185 NA
HETATM   17  N   UNL     1     -45.599  55.568 -61.132  1.00  0.00    -0.287 N 
HETATM   18  H   UNL     1     -45.749  54.878 -61.861  1.00  0.00     0.188 HD
HETATM   19  C   UNL     1     -44.416  56.048 -60.650  1.00  0.00     0.140 A 
ENDBRANCH  10  14
ENDBRANCH   5   8
BRANCH   1  20
HETATM   20  C   UNL     1     -41.847  53.890 -52.298  1.00  0.00     0.253 C 
HETATM   21  N   UNL     1     -40.516  53.548 -52.388  1.00  0.00    -0.356 N 
HETATM   22  H   UNL     1     -40.070  53.644 -53.292  1.00  0.00     0.162 HD
HETATM   23  O   UNL     1     -42.544  53.634 -51.321  1.00  0.00    -0.268 OA
BRANCH  21  24
HETATM   24  C   UNL     1     -39.911  52.642 -51.430  1.00  0.00     0.126 C 
BRANCH  24  25
HETATM   25  C   UNL     1     -39.264  51.418 -52.092  1.00  0.00    -0.005 C 
HETATM   26  C   UNL     1     -39.763  51.201 -53.522  1.00  0.00     0.011 C 
HETATM   27  C   UNL     1     -39.544  50.169 -51.254  1.00  0.00     0.011 C 
ENDBRANCH  24  25
ENDBRANCH  21  24
ENDBRANCH   1  20
TORSDOF 5
ENDMDL
MODEL 2
REMARK VINA RESULT:      -7.0      1.775      2.458
REMARK  5 active torsions:
REMARK  status: ('A' for Active; 'I' for Inactive)
REMARK    1  A    between atoms: C_2  and  C_3 
REMARK    2  A    between atoms: C_3  and  N_4 
REMARK       I    between atoms: N_4  and  C_5 
REMARK    3  A    between atoms: C_5  and  C_6 
REMARK    4  A    between atoms: C_10  and  N_11 
REMARK       I    between atoms: N_11  and  C_12 
REMARK       I    between atoms: C_12  and  N_13 
REMARK    5  A    between atoms: N_13  and  C_14 
ROOT
HETATM    1  C   UNL     1     -43.105  55.140 -53.251  1.00  0.00     0.053 A 
HETATM    2  C   UNL     1     -42.552  54.454 -54.339  1.00  0.00     0.051 A 
HETATM    3 CL   UNL     1     -41.628  52.999 -54.176  1.00  0.00    -0.083 Cl
HETATM    4  C   UNL     1     -42.773  54.911 -55.648  1.00  0.00     0.054 A 
HETATM    5  C   UNL     1     -43.545  56.051 -55.889  1.00  0.00     0.038 A 
HETATM    6  C   UNL     1     -44.106  56.729 -54.804  1.00  0.00     0.030 A 
HETATM    7  C   UNL     1     -43.891  56.277 -53.499  1.00  0.00     0.021 A 
ENDROOT
BRANCH   5   8
HETATM    8  N   UNL     1     -43.840  56.539 -57.177  1.00  0.00    -0.309 N 
HETATM    9  C   UNL     1     -43.035  57.297 -57.986  1.00  0.00     0.325 C 
HETATM   10  N   UNL     1     -43.465  57.479 -59.273  1.00  0.00    -0.306 N 
HETATM   11  O   UNL     1     -42.001  57.859 -57.633  1.00  0.00    -0.247 OA
HETATM   12  H   UNL     1     -42.934  58.186 -59.768  1.00  0.00     0.171 HD
HETATM   13  H   UNL     1     -44.809  56.506 -57.460  1.00  0.00     0.170 HD
BRANCH  10  14
HETATM   14  C   UNL     1     -44.371  56.751 -60.019  1.00  0.00     0.072 A 
HETATM   15  C   UNL     1     -44.299  55.500 -60.671  1.00  0.00     0.169 A 
HETATM   16  N   UNL     1     -45.440  55.175 -61.285  1.00  0.00    -0.185 NA
HETATM   17  N   UNL     1     -46.229  56.239 -61.070  1.00  0.00    -0.287 N 
HETATM   18  H   UNL     1     -47.165  56.232 -61.465  1.00  0.00     0.188 HD
HETATM   19  C   UNL     1     -45.631  57.214 -60.326  1.00  0.00     0.140 A 
ENDBRANCH  10  14
ENDBRANCH   5   8
BRANCH   1  20
HETATM   20  C   UNL     1     -42.971  54.736 -51.823  1.00  0.00     0.253 C 
HETATM   21  N   UNL     1     -42.091  55.448 -51.039  1.00  0.00    -0.356 N 
HETATM   22  H   UNL     1     -41.440  56.064 -51.510  1.00  0.00     0.162 HD
HETATM   23  O   UNL     1     -43.666  53.819 -51.394  1.00  0.00    -0.268 OA
BRANCH  21  24
HETATM   24  C   UNL     1     -41.746  54.997 -49.704  1.00  0.00     0.126 C 
BRANCH  24  25
HETATM   25  C   UNL     1     -40.280  54.562 -49.580  1.00  0.00    -0.005 C 
HETATM   26  C   UNL     1     -39.886  53.540 -50.649  1.00  0.00     0.011 C 
HETATM   27  C   UNL     1     -40.031  53.975 -48.190  1.00  0.00     0.011 C 
ENDBRANCH  24  25
ENDBRANCH  21  24
ENDBRANCH   1  20
TORSDOF 5
ENDMDL
MODEL 3
REMARK VINA RESULT:      -6.9      5.500      6.654
REMARK  5 active torsions:
REMARK  status: ('A' for Active; 'I' for Inactive)
REMARK    1  A    between atoms: C_2  and  C_3 
REMARK    2  A    between atoms: C_3  and  N_4 
REMARK       I    between atoms: N_4  and  C_5 
REMARK    3  A    between atoms: C_5  and  C_6 
REMARK    4  A    between atoms: C_10  and  N_11 
REMARK       I    between atoms: N_11  and  C_12 
REMARK       I    between atoms: C_12  and  N_13 
REMARK    5  A    between atoms: N_13  and  C_14 
ROOT
HETATM    1  C   UNL     1     -41.162  54.757 -51.166  1.00  0.00     0.053 A 
HETATM    2  C   UNL     1     -42.173  55.237 -52.007  1.00  0.00     0.051 A 
HETATM    3 CL   UNL     1     -42.989  54.250 -53.174  1.00  0.00    -0.083 Cl
HETATM    4  C   UNL     1     -42.610  56.567 -51.899  1.00  0.00     0.054 A 
HETATM    5  C   UNL     1     -42.048  57.432 -50.957  1.00  0.00     0.038 A 
HETATM    6  C   UNL     1     -41.047  56.951 -50.110  1.00  0.00     0.030 A 
HETATM    7  C   UNL     1     -40.610  55.627 -50.211  1.00  0.00     0.021 A 
ENDROOT
BRANCH   5   8
HETATM    8  N   UNL     1     -42.467  58.764 -50.768  1.00  0.00    -0.309 N 
HETATM    9  C   UNL     1     -42.153  59.853 -51.537  1.00  0.00     0.325 C 
HETATM   10  N   UNL     1     -42.843  61.005 -51.270  1.00  0.00    -0.306 N 
HETATM   11  O   UNL     1     -41.277  59.887 -52.398  1.00  0.00    -0.247 OA
HETATM   12  H   UNL     1     -42.450  61.815 -51.736  1.00  0.00     0.171 HD
HETATM   13  H   UNL     1     -42.870  58.986 -49.870  1.00  0.00     0.170 HD
BRANCH  10  14
HETATM   14  C   UNL     1     -44.046  61.190 -50.618  1.00  0.00     0.072 A 
HETATM   15  C   UNL     1     -45.386  60.912 -50.970  1.00  0.00     0.169 A 
HETATM   16  N   UNL     1     -46.251  61.261 -50.013  1.00  0.00    -0.185 NA
HETATM   17  N   UNL     1     -45.472  61.808 -49.067  1.00  0.00    -0.287 N 
HETATM   18  H   UNL     1     -45.916  62.172 -48.229  1.00  0.00     0.188 HD
HETATM   19  C   UNL     1     -44.145  61.799 -49.387  1.00  0.00     0.140 A 
ENDBRANCH  10  14
ENDBRANCH   5   8
BRANCH   1  20
HETATM   20  C   UNL     1     -40.639  53.362 -51.161  1.00  0.00     0.253 C 
HETATM   21  N   UNL     1     -39.858  52.970 -52.225  1.00  0.00    -0.356 N 
HETATM   22  H   UNL     1     -39.847  53.569 -53.041  1.00  0.00     0.162 HD
HETATM   23  O   UNL     1     -40.891  52.634 -50.204  1.00  0.00    -0.268 OA
BRANCH  21  24
HETATM   24  C   UNL     1     -39.482  51.580 -52.403  1.00  0.00     0.126 C 
BRANCH  24  25
HETATM   25  C   UNL     1     -40.182  50.920 -53.598  1.00  0.00    -0.005 C 
HETATM   26  C   UNL     1     -39.306  49.861 -54.270  1.00  0.00     0.011 C 
HETATM   27  C   UNL     1     -40.574  51.988 -54.621  1.00  0.00     0.011 C 
ENDBRANCH  24  25
ENDBRANCH  21  24
ENDBRANCH   1  20
TORSDOF 5
ENDMDL
MODEL 4
REMARK VINA RESULT:      -6.8      4.607      8.012
REMARK  5 active torsions:
REMARK  status: ('A' for Active; 'I' for Inactive)
REMARK    1  A    between atoms: C_2  and  C_3 
REMARK    2  A    between atoms: C_3  and  N_4 
REMARK       I    between atoms: N_4  and  C_5 
REMARK    3  A    between atoms: C_5  and  C_6 
REMARK    4  A    between atoms: C_10  and  N_11 
REMARK       I    between atoms: N_11  and  C_12 
REMARK       I    between atoms: C_12  and  N_13 
REMARK    5  A    between atoms: N_13  and  C_14 
ROOT
HETATM    1  C   UNL     1     -43.841  56.691 -52.052  1.00  0.00     0.053 A 
HETATM    2  C   UNL     1     -43.862  56.243 -53.378  1.00  0.00     0.051 A 
HETATM    3 CL   UNL     1     -44.732  57.047 -54.641  1.00  0.00    -0.083 Cl
HETATM    4  C   UNL     1     -43.115  55.114 -53.754  1.00  0.00     0.054 A 
HETATM    5  C   UNL     1     -42.342  54.422 -52.818  1.00  0.00     0.038 A 
HETATM    6  C   UNL     1     -42.312  54.876 -51.498  1.00  0.00     0.030 A 
HETATM    7  C   UNL     1     -43.051  56.000 -51.118  1.00  0.00     0.021 A 
ENDROOT
BRANCH   5   8
HETATM    8  N   UNL     1     -41.539  53.309 -53.136  1.00  0.00    -0.309 N 
HETATM    9  C   UNL     1     -40.462  53.273 -53.982  1.00  0.00     0.325 C 
HETATM   10  N   UNL     1     -39.720  52.122 -53.973  1.00  0.00    -0.306 N 
HETATM   11  O   UNL     1     -40.148  54.160 -54.772  1.00  0.00    -0.247 OA
HETATM   12  H   UNL     1     -39.055  52.078 -54.735  1.00  0.00     0.171 HD
HETATM   13  H   UNL     1     -41.905  52.403 -52.882  1.00  0.00     0.170 HD
BRANCH  10  14
HETATM   14  C   UNL     1     -39.634  51.126 -53.019  1.00  0.00     0.072 A 
HETATM   15  C   UNL     1     -39.447  51.147 -51.619  1.00  0.00     0.169 A 
HETATM   16  N   UNL     1     -39.430  49.922 -51.085  1.00  0.00    -0.185 NA
HETATM   17  N   UNL     1     -39.557  49.113 -52.149  1.00  0.00    -0.287 N 
HETATM   18  H   UNL     1     -39.552  48.109 -51.993  1.00  0.00     0.188 HD
HETATM   19  C   UNL     1     -39.672  49.786 -53.330  1.00  0.00     0.140 A 
ENDBRANCH  10  14
ENDBRANCH   5   8
BRANCH   1  20
HETATM   20  C   UNL     1     -44.560  57.891 -51.539  1.00  0.00     0.253 C 
HETATM   21  N   UNL     1     -44.109  59.127 -51.948  1.00  0.00    -0.356 N 
HETATM   22  H   UNL     1     -43.204  59.166 -52.400  1.00  0.00     0.162 HD
HETATM   23  O   UNL     1     -45.537  57.737 -50.811  1.00  0.00    -0.268 OA
BRANCH  21  24
HETATM   24  C   UNL     1     -44.614  60.344 -51.340  1.00  0.00     0.126 C 
BRANCH  24  25
HETATM   25  C   UNL     1     -43.561  61.070 -50.493  1.00  0.00    -0.005 C 
HETATM   26  C   UNL     1     -42.247  60.290 -50.408  1.00  0.00     0.011 C 
HETATM   27  C   UNL     1     -44.108  61.311 -49.085  1.00  0.00     0.011 C 
ENDBRANCH  24  25
ENDBRANCH  21  24
ENDBRANCH   1  20
TORSDOF 5
ENDMDL
MODEL 5
REMARK VINA RESULT:      -6.7     15.394     16.569
REMARK  5 active torsions:
REMARK  status: ('A' for Active; 'I' for Inactive)
REMARK    1  A    between atoms: C_2  and  C_3 
REMARK    2  A    between atoms: C_3  and  N_4 
REMARK       I    between atoms: N_4  and  C_5 
REMARK    3  A    between atoms: C_5  and  C_6 
REMARK    4  A    between atoms: C_10  and  N_11 
REMARK       I    between atoms: N_11  and  C_12 
REMARK       I    between atoms: C_12  and  N_13 
REMARK    5  A    between atoms: N_13  and  C_14 
ROOT
HETATM    1  C   UNL     1     -35.802  41.448 -54.818  1.00  0.00     0.053 A 
HETATM    2  C   UNL     1     -34.846  41.039 -55.755  1.00  0.00     0.051 A 
HETATM    3 CL   UNL     1     -33.162  40.871 -55.387  1.00  0.00    -0.083 Cl
HETATM    4  C   UNL     1     -35.238  40.693 -57.059  1.00  0.00     0.054 A 
HETATM    5  C   UNL     1     -36.580  40.749 -57.442  1.00  0.00     0.038 A 
HETATM    6  C   UNL     1     -37.535  41.146 -56.504  1.00  0.00     0.030 A 
HETATM    7  C   UNL     1     -37.151  41.489 -55.204  1.00  0.00     0.021 A 
ENDROOT
BRANCH   5   8
HETATM    8  N   UNL     1     -37.046  40.378 -58.719  1.00  0.00    -0.309 N 
HETATM    9  C   UNL     1     -37.196  41.182 -59.818  1.00  0.00     0.325 C 
HETATM   10  N   UNL     1     -37.474  40.549 -61.000  1.00  0.00    -0.306 N 
HETATM   11  O   UNL     1     -37.153  42.410 -59.812  1.00  0.00    -0.247 OA
HETATM   12  H   UNL     1     -37.751  41.192 -61.733  1.00  0.00     0.171 HD
HETATM   13  H   UNL     1     -37.508  39.482 -58.786  1.00  0.00     0.170 HD
BRANCH  10  14
HETATM   14  C   UNL     1     -37.279  39.234 -61.373  1.00  0.00     0.072 A 
HETATM   15  C   UNL     1     -36.122  38.473 -61.653  1.00  0.00     0.169 A 
HETATM   16  N   UNL     1     -36.405  37.209 -61.978  1.00  0.00    -0.185 NA
HETATM   17  N   UNL     1     -37.747  37.170 -61.955  1.00  0.00    -0.287 N 
HETATM   18  H   UNL     1     -38.207  36.296 -62.192  1.00  0.00     0.188 HD
HETATM   19  C   UNL     1     -38.317  38.361 -61.609  1.00  0.00     0.140 A 
ENDBRANCH  10  14
ENDBRANCH   5   8
BRANCH   1  20
HETATM   20  C   UNL     1     -35.516  41.805 -53.400  1.00  0.00     0.253 C 
HETATM   21  N   UNL     1     -35.059  40.805 -52.570  1.00  0.00    -0.356 N 
HETATM   22  H   UNL     1     -35.135  39.852 -52.903  1.00  0.00     0.162 HD
HETATM   23  O   UNL     1     -35.662  42.969 -53.036  1.00  0.00    -0.268 OA
BRANCH  21  24
HETATM   24  C   UNL     1     -34.954  41.013 -51.138  1.00  0.00     0.126 C 
BRANCH  24  25
HETATM   25  C   UNL     1     -33.546  40.733 -50.596  1.00  0.00    -0.005 C 
HETATM   26  C   UNL     1     -32.502  40.647 -51.711  1.00  0.00     0.011 C 
HETATM   27  C   UNL     1     -33.551  39.430 -49.794  1.00  0.00     0.011 C 
ENDBRANCH  24  25
ENDBRANCH  21  24
ENDBRANCH   1  20
TORSDOF 5
ENDMDL
MODEL 6
REMARK VINA RESULT:      -6.6      1.846      2.317
REMARK  5 active torsions:
REMARK  status: ('A' for Active; 'I' for Inactive)
REMARK    1  A    between atoms: C_2  and  C_3 
REMARK    2  A    between atoms: C_3  and  N_4 
REMARK       I    between atoms: N_4  and  C_5 
REMARK    3  A    between atoms: C_5  and  C_6 
REMARK    4  A    between atoms: C_10  and  N_11 
REMARK       I    between atoms: N_11  and  C_12 
REMARK       I    between atoms: C_12  and  N_13 
REMARK    5  A    between atoms: N_13  and  C_14 
ROOT
HETATM    1  C   UNL     1     -43.498  56.219 -52.641  1.00  0.00     0.053 A 
HETATM    2  C   UNL     1     -44.243  57.321 -53.075  1.00  0.00     0.051 A 
HETATM    3 CL   UNL     1     -44.907  58.505 -52.000  1.00  0.00    -0.083 Cl
HETATM    4  C   UNL     1     -44.447  57.540 -54.448  1.00  0.00     0.054 A 
HETATM    5  C   UNL     1     -43.912  56.668 -55.399  1.00  0.00     0.038 A 
HETATM    6  C   UNL     1     -43.159  55.574 -54.967  1.00  0.00     0.030 A 
HETATM    7  C   UNL     1     -42.951  55.353 -53.602  1.00  0.00     0.021 A 
ENDROOT
BRANCH   5   8
HETATM    8  N   UNL     1     -44.044  56.851 -56.790  1.00  0.00    -0.309 N 
HETATM    9  C   UNL     1     -43.137  57.420 -57.645  1.00  0.00     0.325 C 
HETATM   10  N   UNL     1     -43.407  57.302 -58.983  1.00  0.00    -0.306 N 
HETATM   11  O   UNL     1     -42.146  58.061 -57.306  1.00  0.00    -0.247 OA
HETATM   12  H   UNL     1     -42.811  57.888 -59.556  1.00  0.00     0.171 HD
HETATM   13  H   UNL     1     -44.972  56.742 -57.173  1.00  0.00     0.170 HD
BRANCH  10  14
HETATM   14  C   UNL     1     -44.227  56.414 -59.650  1.00  0.00     0.072 A 
HETATM   15  C   UNL     1     -45.547  56.506 -60.144  1.00  0.00     0.169 A 
HETATM   16  N   UNL     1     -45.952  55.380 -60.739  1.00  0.00    -0.185 NA
HETATM   17  N   UNL     1     -44.909  54.549 -60.586  1.00  0.00    -0.287 N 
HETATM   18  H   UNL     1     -44.989  53.604 -60.950  1.00  0.00     0.188 HD
HETATM   19  C   UNL     1     -43.856  55.118 -59.930  1.00  0.00     0.140 A 
ENDBRANCH  10  14
ENDBRANCH   5   8
BRANCH   1  20
HETATM   20  C   UNL     1     -43.185  55.900 -51.220  1.00  0.00     0.253 C 
HETATM   21  N   UNL     1     -41.893  56.110 -50.789  1.00  0.00    -0.356 N 
HETATM   22  H   UNL     1     -41.186  56.270 -51.496  1.00  0.00     0.162 HD
HETATM   23  O   UNL     1     -44.084  55.502 -50.485  1.00  0.00    -0.268 OA
BRANCH  21  24
HETATM   24  C   UNL     1     -41.453  55.636 -49.490  1.00  0.00     0.126 C 
BRANCH  24  25
HETATM   25  C   UNL     1     -40.246  54.692 -49.577  1.00  0.00    -0.005 C 
HETATM   26  C   UNL     1     -40.368  53.701 -50.736  1.00  0.00     0.011 C 
HETATM   27  C   UNL     1     -40.093  53.929 -48.260  1.00  0.00     0.011 C 
ENDBRANCH  24  25
ENDBRANCH  21  24
ENDBRANCH   1  20
TORSDOF 5
ENDMDL
MODEL 7
REMARK VINA RESULT:      -6.6     15.500     18.223
REMARK  5 active torsions:
REMARK  status: ('A' for Active; 'I' for Inactive)
REMARK    1  A    between atoms: C_2  and  C_3 
REMARK    2  A    between atoms: C_3  and  N_4 
REMARK       I    between atoms: N_4  and  C_5 
REMARK    3  A    between atoms: C_5  and  C_6 
REMARK    4  A    between atoms: C_10  and  N_11 
REMARK       I    between atoms: N_11  and  C_12 
REMARK       I    between atoms: C_12  and  N_13 
REMARK    5  A    between atoms: N_13  and  C_14 
ROOT
HETATM    1  C   UNL     1     -36.269  41.399 -57.251  1.00  0.00     0.053 A 
HETATM    2  C   UNL     1     -37.046  41.228 -56.099  1.00  0.00     0.051 A 
HETATM    3 CL   UNL     1     -38.764  41.014 -56.132  1.00  0.00    -0.083 Cl
HETATM    4  C   UNL     1     -36.434  41.177 -54.836  1.00  0.00     0.054 A 
HETATM    5  C   UNL     1     -35.048  41.293 -54.705  1.00  0.00     0.038 A 
HETATM    6  C   UNL     1     -34.272  41.451 -55.855  1.00  0.00     0.030 A 
HETATM    7  C   UNL     1     -34.875  41.501 -57.116  1.00  0.00     0.021 A 
ENDROOT
BRANCH   5   8
HETATM    8  N   UNL     1     -34.368  41.209 -53.474  1.00  0.00    -0.309 N 
HETATM    9  C   UNL     1     -34.643  41.895 -52.321  1.00  0.00     0.325 C 
HETATM   10  N   UNL     1     -33.967  41.494 -51.200  1.00  0.00    -0.306 N 
HETATM   11  O   UNL     1     -35.398  42.860 -52.232  1.00  0.00    -0.247 OA
HETATM   12  H   UNL     1     -34.071  42.142 -50.427  1.00  0.00     0.171 HD
HETATM   13  H   UNL     1     -33.465  40.756 -53.489  1.00  0.00     0.170 HD
BRANCH  10  14
HETATM   14  C   UNL     1     -33.328  40.302 -50.925  1.00  0.00     0.072 A 
HETATM   15  C   UNL     1     -31.987  39.876 -51.049  1.00  0.00     0.169 A 
HETATM   16  N   UNL     1     -31.810  38.612 -50.654  1.00  0.00    -0.185 NA
HETATM   17  N   UNL     1     -33.047  38.210 -50.322  1.00  0.00    -0.287 N 
HETATM   18  H   UNL     1     -33.173  37.254 -50.001  1.00  0.00     0.188 HD
HETATM   19  C   UNL     1     -33.992  39.182 -50.477  1.00  0.00     0.140 A 
ENDBRANCH  10  14
ENDBRANCH   5   8
BRANCH   1  20
HETATM   20  C   UNL     1     -36.796  41.434 -58.644  1.00  0.00     0.253 C 
HETATM   21  N   UNL     1     -37.000  40.229 -59.279  1.00  0.00    -0.356 N 
HETATM   22  H   UNL     1     -36.596  39.403 -58.853  1.00  0.00     0.162 HD
HETATM   23  O   UNL     1     -37.058  42.518 -59.156  1.00  0.00    -0.268 OA
BRANCH  21  24
HETATM   24  C   UNL     1     -37.311  40.174 -60.695  1.00  0.00     0.126 C 
BRANCH  24  25
HETATM   25  C   UNL     1     -37.049  38.793 -61.311  1.00  0.00    -0.005 C 
HETATM   26  C   UNL     1     -35.589  38.360 -61.165  1.00  0.00     0.011 C 
HETATM   27  C   UNL     1     -37.436  38.806 -62.791  1.00  0.00     0.011 C 
ENDBRANCH  24  25
ENDBRANCH  21  24
ENDBRANCH   1  20
TORSDOF 5
ENDMDL
MODEL 8
REMARK VINA RESULT:      -6.4     15.120     17.724
REMARK  5 active torsions:
REMARK  status: ('A' for Active; 'I' for Inactive)
REMARK    1  A    between atoms: C_2  and  C_3 
REMARK    2  A    between atoms: C_3  and  N_4 
REMARK       I    between atoms: N_4  and  C_5 
REMARK    3  A    between atoms: C_5  and  C_6 
REMARK    4  A    between atoms: C_10  and  N_11 
REMARK       I    between atoms: N_11  and  C_12 
REMARK       I    between atoms: C_12  and  N_13 
REMARK    5  A    between atoms: N_13  and  C_14 
ROOT
HETATM    1  C   UNL     1     -37.406  39.903 -59.159  1.00  0.00     0.053 A 
HETATM    2  C   UNL     1     -37.277  41.276 -58.915  1.00  0.00     0.051 A 
HETATM    3 CL   UNL     1     -37.336  42.474 -60.164  1.00  0.00    -0.083 Cl
HETATM    4  C   UNL     1     -37.136  41.749 -57.600  1.00  0.00     0.054 A 
HETATM    5  C   UNL     1     -37.124  40.866 -56.518  1.00  0.00     0.038 A 
HETATM    6  C   UNL     1     -37.264  39.498 -56.760  1.00  0.00     0.030 A 
HETATM    7  C   UNL     1     -37.407  39.021 -58.066  1.00  0.00     0.021 A 
ENDROOT
BRANCH   5   8
HETATM    8  N   UNL     1     -37.027  41.277 -55.173  1.00  0.00    -0.309 N 
HETATM    9  C   UNL     1     -38.035  41.343 -54.248  1.00  0.00     0.325 C 
HETATM   10  N   UNL     1     -37.656  41.580 -52.953  1.00  0.00    -0.306 N 
HETATM   11  O   UNL     1     -39.235  41.258 -54.496  1.00  0.00    -0.247 OA
HETATM   12  H   UNL     1     -38.440  41.797 -52.349  1.00  0.00     0.171 HD
HETATM   13  H   UNL     1     -36.183  41.765 -54.912  1.00  0.00     0.170 HD
BRANCH  10  14
HETATM   14  C   UNL     1     -36.431  41.411 -52.340  1.00  0.00     0.072 A 
HETATM   15  C   UNL     1     -35.943  40.471 -51.404  1.00  0.00     0.169 A 
HETATM   16  N   UNL     1     -34.666  40.686 -51.079  1.00  0.00    -0.185 NA
HETATM   17  N   UNL     1     -34.347  41.793 -51.768  1.00  0.00    -0.287 N 
HETATM   18  H   UNL     1     -33.409  42.169 -51.666  1.00  0.00     0.188 HD
HETATM   19  C   UNL     1     -35.373  42.271 -52.529  1.00  0.00     0.140 A 
ENDBRANCH  10  14
ENDBRANCH   5   8
BRANCH   1  20
HETATM   20  C   UNL     1     -37.596  39.283 -60.500  1.00  0.00     0.253 C 
HETATM   21  N   UNL     1     -38.858  38.838 -60.824  1.00  0.00    -0.356 N 
HETATM   22  H   UNL     1     -39.534  38.767 -60.073  1.00  0.00     0.162 HD
HETATM   23  O   UNL     1     -36.642  39.225 -61.271  1.00  0.00    -0.268 OA
BRANCH  21  24
HETATM   24  C   UNL     1     -39.086  38.042 -62.015  1.00  0.00     0.126 C 
BRANCH  24  25
HETATM   25  C   UNL     1     -40.504  37.457 -62.080  1.00  0.00    -0.005 C 
HETATM   26  C   UNL     1     -41.243  37.868 -63.355  1.00  0.00     0.011 C 
HETATM   27  C   UNL     1     -41.303  37.903 -60.855  1.00  0.00     0.011 C 
ENDBRANCH  24  25
ENDBRANCH  21  24
ENDBRANCH   1  20
TORSDOF 5
ENDMDL
MODEL 9
REMARK VINA RESULT:      -6.3      2.686      8.548
REMARK  5 active torsions:
REMARK  status: ('A' for Active; 'I' for Inactive)
REMARK    1  A    between atoms: C_2  and  C_3 
REMARK    2  A    between atoms: C_3  and  N_4 
REMARK       I    between atoms: N_4  and  C_5 
REMARK    3  A    between atoms: C_5  and  C_6 
REMARK    4  A    between atoms: C_10  and  N_11 
REMARK       I    between atoms: N_11  and  C_12 
REMARK       I    between atoms: C_12  and  N_13 
REMARK    5  A    between atoms: N_13  and  C_14 
ROOT
HETATM    1  C   UNL     1     -42.134  56.527 -55.628  1.00  0.00     0.053 A 
HETATM    2  C   UNL     1     -42.423  55.178 -55.867  1.00  0.00     0.051 A 
HETATM    3 CL   UNL     1     -43.409  54.634 -57.182  1.00  0.00    -0.083 Cl
HETATM    4  C   UNL     1     -41.867  54.181 -55.048  1.00  0.00     0.054 A 
HETATM    5  C   UNL     1     -41.021  54.514 -53.988  1.00  0.00     0.038 A 
HETATM    6  C   UNL     1     -40.723  55.858 -53.756  1.00  0.00     0.030 A 
HETATM    7  C   UNL     1     -41.271  56.855 -54.569  1.00  0.00     0.021 A 
ENDROOT
BRANCH   5   8
HETATM    8  N   UNL     1     -40.398  53.563 -53.155  1.00  0.00    -0.309 N 
HETATM    9  C   UNL     1     -40.392  53.531 -51.786  1.00  0.00     0.325 C 
HETATM   10  N   UNL     1     -39.889  52.396 -51.207  1.00  0.00    -0.306 N 
HETATM   11  O   UNL     1     -40.750  54.449 -51.052  1.00  0.00    -0.247 OA
HETATM   12  H   UNL     1     -39.742  52.497 -50.209  1.00  0.00     0.171 HD
HETATM   13  H   UNL     1     -39.718  52.958 -53.593  1.00  0.00     0.170 HD
BRANCH  10  14
HETATM   14  C   UNL     1     -39.717  51.131 -51.732  1.00  0.00     0.072 A 
HETATM   15  C   UNL     1     -39.635  50.639 -53.054  1.00  0.00     0.169 A 
HETATM   16  N   UNL     1     -39.458  49.316 -53.099  1.00  0.00    -0.185 NA
HETATM   17  N   UNL     1     -39.474  48.951 -51.808  1.00  0.00    -0.287 N 
HETATM   18  H   UNL     1     -39.373  47.965 -51.585  1.00  0.00     0.188 HD
HETATM   19  C   UNL     1     -39.638  50.000 -50.951  1.00  0.00     0.140 A 
ENDBRANCH  10  14
ENDBRANCH   5   8
BRANCH   1  20
HETATM   20  C   UNL     1     -42.632  57.669 -56.444  1.00  0.00     0.253 C 
HETATM   21  N   UNL     1     -42.012  57.910 -57.650  1.00  0.00    -0.356 N 
HETATM   22  H   UNL     1     -41.133  57.438 -57.824  1.00  0.00     0.162 HD
HETATM   23  O   UNL     1     -43.587  58.324 -56.034  1.00  0.00    -0.268 OA
BRANCH  21  24
HETATM   24  C   UNL     1     -42.292  59.116 -58.406  1.00  0.00     0.126 C 
BRANCH  24  25
HETATM   25  C   UNL     1     -42.251  58.892 -59.924  1.00  0.00    -0.005 C 
HETATM   26  C   UNL     1     -43.555  59.307 -60.607  1.00  0.00     0.011 C 
HETATM   27  C   UNL     1     -41.960  57.420 -60.221  1.00  0.00     0.011 C 
ENDBRANCH  24  25
ENDBRANCH  21  24
ENDBRANCH   1  20
TORSDOF 5
ENDMDL
MODEL 10
REMARK VINA RESULT:      -6.3      5.209      6.501
REMARK  5 active torsions:
REMARK  status: ('A' for Active; 'I' for Inactive)
REMARK    1  A    between atoms: C_2  and  C_3 
REMARK    2  A    between atoms: C_3  and  N_4 
REMARK       I    between atoms: N_4  and  C_5 
REMARK    3  A    between atoms: C_5  and  C_6 
REMARK    4  A    between atoms: C_10  and  N_11 
REMARK       I    between atoms: N_11  and  C_12 
REMARK       I    between atoms: C_12  and  N_13 
REMARK    5  A    between atoms: N_13  and  C_14 
ROOT
HETATM    1  C   UNL     1     -41.503  54.919 -51.313  1.00  0.00     0.053 A 
HETATM    2  C   UNL     1     -42.435  55.129 -52.336  1.00  0.00     0.051 A 
HETATM    3 CL   UNL     1     -42.881  53.911 -53.483  1.00  0.00    -0.083 Cl
HETATM    4  C   UNL     1     -43.098  56.362 -52.445  1.00  0.00     0.054 A 
HETATM    5  C   UNL     1     -42.842  57.396 -51.539  1.00  0.00     0.038 A 
HETATM    6  C   UNL     1     -41.921  57.182 -50.512  1.00  0.00     0.030 A 
HETATM    7  C   UNL     1     -41.260  55.956 -50.397  1.00  0.00     0.021 A 
ENDROOT
BRANCH   5   8
HETATM    8  N   UNL     1     -43.501  58.641 -51.567  1.00  0.00    -0.309 N 
HETATM    9  C   UNL     1     -44.750  58.934 -51.086  1.00  0.00     0.325 C 
HETATM   10  N   UNL     1     -45.090  60.260 -51.047  1.00  0.00    -0.306 N 
HETATM   11  O   UNL     1     -45.592  58.107 -50.744  1.00  0.00    -0.247 OA
HETATM   12  H   UNL     1     -46.075  60.406 -50.858  1.00  0.00     0.171 HD
HETATM   13  H   UNL     1     -43.110  59.344 -52.177  1.00  0.00     0.170 HD
BRANCH  10  14
HETATM   14  C   UNL     1     -44.289  61.384 -51.061  1.00  0.00     0.072 A 
HETATM   15  C   UNL     1     -43.459  61.989 -50.090  1.00  0.00     0.169 A 
HETATM   16  N   UNL     1     -42.853  63.088 -50.546  1.00  0.00    -0.185 NA
HETATM   17  N   UNL     1     -43.331  63.218 -51.794  1.00  0.00    -0.287 N 
HETATM   18  H   UNL     1     -43.021  64.011 -52.348  1.00  0.00     0.188 HD
HETATM   19  C   UNL     1     -44.203  62.229 -52.145  1.00  0.00     0.140 A 
ENDBRANCH  10  14
ENDBRANCH   5   8
BRANCH   1  20
HETATM   20  C   UNL     1     -40.763  53.648 -51.073  1.00  0.00     0.253 C 
HETATM   21  N   UNL     1     -40.028  53.131 -52.117  1.00  0.00    -0.356 N 
HETATM   22  H   UNL     1     -40.189  53.521 -53.038  1.00  0.00     0.162 HD
HETATM   23  O   UNL     1     -40.806  53.133 -49.959  1.00  0.00    -0.268 OA
BRANCH  21  24
HETATM   24  C   UNL     1     -39.451  51.803 -52.038  1.00  0.00     0.126 C 
BRANCH  24  25
HETATM   25  C   UNL     1     -39.395  51.094 -53.398  1.00  0.00    -0.005 C 
HETATM   26  C   UNL     1     -40.368  51.702 -54.409  1.00  0.00     0.011 C 
HETATM   27  C   UNL     1     -39.703  49.606 -53.218  1.00  0.00     0.011 C 
ENDBRANCH  24  25
ENDBRANCH  21  24
ENDBRANCH   1  20
TORSDOF 5
ENDMDL
