MODEL 1
REMARK VINA RESULT:      -7.8      0.000      0.000
REMARK  5 active torsions:
REMARK  status: ('A' for Active; 'I' for Inactive)
REMARK    1  A    between atoms: C_6  and  C_7 
REMARK    2  A    between atoms: C_12  and  C_13 
REMARK    3  A    between atoms: C_13  and  N_14 
REMARK    4  A    between atoms: C_17  and  C_19 
REMARK    5  A    between atoms: C_17  and  O_18 
ROOT
HETATM    1  C   UNL     1     -40.665  53.837 -50.960  1.00  0.00     0.096 A 
HETATM    2  N   UNL     1     -39.662  54.189 -50.148  1.00  0.00    -0.174 NA
HETATM    3  N   UNL     1     -40.229  54.897 -49.168  1.00  0.00    -0.288 N 
HETATM    4  H   UNL     1     -39.634  55.251 -48.423  1.00  0.00     0.188 HD
HETATM    5  C   UNL     1     -41.579  55.028 -49.317  1.00  0.00     0.120 A 
HETATM    6  C   UNL     1     -41.913  54.355 -50.480  1.00  0.00     0.016 A 
ENDROOT
BRANCH   6   7
HETATM    7  C   UNL     1     -43.267  54.155 -51.050  1.00  0.00     0.277 C 
BRANCH   7   8
HETATM    8  N   UNL     1     -43.608  55.152 -52.124  1.00  0.00    -0.064 N 
HETATM    9  H   UNL     1     -44.547  55.529 -51.920  1.00  0.00     0.280 HD
HETATM   10  C   UNL     1     -43.659  54.600 -53.535  1.00  0.00     0.282 C 
HETATM   11  C   UNL     1     -43.647  55.858 -54.405  1.00  0.00     0.180 C 
HETATM   12  C   UNL     1     -42.960  56.942 -53.563  1.00  0.00     0.076 C 
HETATM   13  C   UNL     1     -42.643  56.295 -52.224  1.00  0.00     0.238 C 
BRANCH  11  14
HETATM   14  C   UNL     1     -42.908  55.542 -55.705  1.00  0.00     0.419 C 
HETATM   15  F   UNL     1     -43.448  56.211 -56.742  1.00  0.00    -0.168 F 
HETATM   16  F   UNL     1     -41.608  55.881 -55.606  1.00  0.00    -0.168 F 
HETATM   17  F   UNL     1     -42.984  54.221 -55.974  1.00  0.00    -0.168 F 
ENDBRANCH  11  14
BRANCH  11  18
HETATM   18  O   UNL     1     -45.014  56.279 -54.595  1.00  0.00    -0.379 OA
HETATM   19  H   UNL     1     -45.201  56.317 -55.556  1.00  0.00     0.211 HD
ENDBRANCH  11  18
ENDBRANCH   7   8
ENDBRANCH   6   7
BRANCH   1  20
HETATM   20  C   UNL     1     -40.402  53.002 -52.130  1.00  0.00    -0.003 A 
HETATM   21  C   UNL     1     -40.062  51.652 -51.995  1.00  0.00     0.037 A 
HETATM   22  C   UNL     1     -39.784  50.885 -53.128  1.00  0.00     0.035 A 
HETATM   23  C   UNL     1     -39.860  51.443 -54.401  1.00  0.00     0.024 A 
HETATM   24 CL   UNL     1     -39.328  49.238 -52.933  1.00  0.00    -0.084 Cl
HETATM   25  C   UNL     1     -40.225  52.780 -54.546  1.00  0.00     0.003 A 
HETATM   26  C   UNL     1     -40.494  53.555 -53.416  1.00  0.00     0.014 A 
ENDBRANCH   1  20
TORSDOF 5
ENDMDL
MODEL 2
REMARK VINA RESULT:      -7.6      3.705      4.905
REMARK  5 active torsions:
REMARK  status: ('A' for Active; 'I' for Inactive)
REMARK    1  A    between atoms: C_6  and  C_7 
REMARK    2  A    between atoms: C_12  and  C_13 
REMARK    3  A    between atoms: C_13  and  N_14 
REMARK    4  A    between atoms: C_17  and  C_19 
REMARK    5  A    between atoms: C_17  and  O_18 
ROOT
HETATM    1  C   UNL     1     -42.346  54.121 -54.211  1.00  0.00     0.096 A 
HETATM    2  N   UNL     1     -42.774  53.827 -55.444  1.00  0.00    -0.174 NA
HETATM    3  N   UNL     1     -43.624  54.804 -55.767  1.00  0.00    -0.288 N 
HETATM    4  H   UNL     1     -44.057  54.781 -56.688  1.00  0.00     0.188 HD
HETATM    5  C   UNL     1     -43.773  55.731 -54.777  1.00  0.00     0.120 A 
HETATM    6  C   UNL     1     -42.960  55.324 -53.733  1.00  0.00     0.016 A 
ENDROOT
BRANCH   6   7
HETATM    7  C   UNL     1     -42.724  56.024 -52.447  1.00  0.00     0.277 C 
BRANCH   7   8
HETATM    8  N   UNL     1     -41.952  57.306 -52.606  1.00  0.00    -0.064 N 
HETATM    9  H   UNL     1     -41.355  57.215 -53.444  1.00  0.00     0.280 HD
HETATM   10  C   UNL     1     -41.031  57.659 -51.454  1.00  0.00     0.282 C 
HETATM   11  C   UNL     1     -40.694  59.128 -51.713  1.00  0.00     0.180 C 
HETATM   12  C   UNL     1     -41.865  59.689 -52.530  1.00  0.00     0.076 C 
HETATM   13  C   UNL     1     -42.814  58.523 -52.759  1.00  0.00     0.238 C 
BRANCH  11  14
HETATM   14  C   UNL     1     -40.505  59.828 -50.367  1.00  0.00     0.419 C 
HETATM   15  F   UNL     1     -39.228  60.223 -50.204  1.00  0.00    -0.168 F 
HETATM   16  F   UNL     1     -41.304  60.908 -50.278  1.00  0.00    -0.168 F 
HETATM   17  F   UNL     1     -40.814  58.985 -49.358  1.00  0.00    -0.168 F 
ENDBRANCH  11  14
BRANCH  11  18
HETATM   18  O   UNL     1     -39.530  59.172 -52.566  1.00  0.00    -0.379 OA
HETATM   19  H   UNL     1     -39.594  58.447 -53.223  1.00  0.00     0.211 HD
ENDBRANCH  11  18
ENDBRANCH   7   8
ENDBRANCH   6   7
BRANCH   1  20
HETATM   20  C   UNL     1     -41.353  53.270 -53.559  1.00  0.00    -0.003 A 
HETATM   21  C   UNL     1     -40.820  52.150 -54.206  1.00  0.00     0.037 A 
HETATM   22  C   UNL     1     -39.897  51.336 -53.547  1.00  0.00     0.035 A 
HETATM   23  C   UNL     1     -39.480  51.635 -52.253  1.00  0.00     0.024 A 
HETATM   24 CL   UNL     1     -39.288  49.942 -54.350  1.00  0.00    -0.084 Cl
HETATM   25  C   UNL     1     -39.985  52.763 -51.611  1.00  0.00     0.003 A 
HETATM   26  C   UNL     1     -40.917  53.576 -52.261  1.00  0.00     0.014 A 
ENDBRANCH   1  20
TORSDOF 5
ENDMDL
MODEL 3
REMARK VINA RESULT:      -7.6      2.683      4.216
REMARK  5 active torsions:
REMARK  status: ('A' for Active; 'I' for Inactive)
REMARK    1  A    between atoms: C_6  and  C_7 
REMARK    2  A    between atoms: C_12  and  C_13 
REMARK    3  A    between atoms: C_13  and  N_14 
REMARK    4  A    between atoms: C_17  and  C_19 
REMARK    5  A    between atoms: C_17  and  O_18 
ROOT
HETATM    1  C   UNL     1     -41.463  54.179 -54.777  1.00  0.00     0.096 A 
HETATM    2  N   UNL     1     -40.792  54.810 -55.748  1.00  0.00    -0.174 NA
HETATM    3  N   UNL     1     -41.682  55.619 -56.327  1.00  0.00    -0.288 N 
HETATM    4  H   UNL     1     -41.367  56.212 -57.091  1.00  0.00     0.188 HD
HETATM    5  C   UNL     1     -42.923  55.534 -55.768  1.00  0.00     0.120 A 
HETATM    6  C   UNL     1     -42.833  54.599 -54.752  1.00  0.00     0.016 A 
ENDROOT
BRANCH   6   7
HETATM    7  C   UNL     1     -43.899  54.188 -53.806  1.00  0.00     0.277 C 
BRANCH   7   8
HETATM    8  N   UNL     1     -43.830  54.915 -52.490  1.00  0.00    -0.064 N 
HETATM    9  H   UNL     1     -44.766  55.304 -52.293  1.00  0.00     0.280 HD
HETATM   10  C   UNL     1     -42.857  56.077 -52.436  1.00  0.00     0.282 C 
HETATM   11  C   UNL     1     -42.729  56.359 -50.938  1.00  0.00     0.180 C 
HETATM   12  C   UNL     1     -43.061  55.037 -50.234  1.00  0.00     0.076 C 
HETATM   13  C   UNL     1     -43.416  54.051 -51.336  1.00  0.00     0.238 C 
BRANCH  11  14
HETATM   14  C   UNL     1     -41.311  56.855 -50.657  1.00  0.00     0.419 C 
HETATM   15  F   UNL     1     -40.609  55.940 -49.961  1.00  0.00    -0.168 F 
HETATM   16  F   UNL     1     -40.661  57.112 -51.807  1.00  0.00    -0.168 F 
HETATM   17  F   UNL     1     -41.353  57.992 -49.928  1.00  0.00    -0.168 F 
ENDBRANCH  11  14
BRANCH  11  18
HETATM   18  O   UNL     1     -43.763  57.298 -50.574  1.00  0.00    -0.379 OA
HETATM   19  H   UNL     1     -43.585  58.151 -51.023  1.00  0.00     0.211 HD
ENDBRANCH  11  18
ENDBRANCH   7   8
ENDBRANCH   6   7
BRANCH   1  20
HETATM   20  C   UNL     1     -40.770  53.238 -53.901  1.00  0.00    -0.003 A 
HETATM   21  C   UNL     1     -40.431  51.954 -54.339  1.00  0.00     0.037 A 
HETATM   22  C   UNL     1     -39.797  51.063 -53.470  1.00  0.00     0.035 A 
HETATM   23  C   UNL     1     -39.477  51.444 -52.170  1.00  0.00     0.024 A 
HETATM   24 CL   UNL     1     -39.428  49.476 -54.021  1.00  0.00    -0.084 Cl
HETATM   25  C   UNL     1     -39.786  52.730 -51.734  1.00  0.00     0.003 A 
HETATM   26  C   UNL     1     -40.430  53.622 -52.595  1.00  0.00     0.014 A 
ENDBRANCH   1  20
TORSDOF 5
ENDMDL
MODEL 4
REMARK VINA RESULT:      -7.4      2.519      3.932
REMARK  5 active torsions:
REMARK  status: ('A' for Active; 'I' for Inactive)
REMARK    1  A    between atoms: C_6  and  C_7 
REMARK    2  A    between atoms: C_12  and  C_13 
REMARK    3  A    between atoms: C_13  and  N_14 
REMARK    4  A    between atoms: C_17  and  C_19 
REMARK    5  A    between atoms: C_17  and  O_18 
ROOT
HETATM    1  C   UNL     1     -42.513  55.197 -52.700  1.00  0.00     0.096 A 
HETATM    2  N   UNL     1     -43.392  55.455 -51.725  1.00  0.00    -0.174 NA
HETATM    3  N   UNL     1     -44.189  56.411 -52.209  1.00  0.00    -0.288 N 
HETATM    4  H   UNL     1     -44.950  56.746 -51.624  1.00  0.00     0.188 HD
HETATM    5  C   UNL     1     -43.853  56.794 -53.474  1.00  0.00     0.120 A 
HETATM    6  C   UNL     1     -42.757  56.032 -53.839  1.00  0.00     0.016 A 
ENDROOT
BRANCH   6   7
HETATM    7  C   UNL     1     -42.050  56.031 -55.142  1.00  0.00     0.277 C 
BRANCH   7   8
HETATM    8  N   UNL     1     -42.880  56.599 -56.263  1.00  0.00    -0.064 N 
HETATM    9  H   UNL     1     -43.788  56.891 -55.869  1.00  0.00     0.280 HD
HETATM   10  C   UNL     1     -43.187  55.640 -57.397  1.00  0.00     0.282 C 
HETATM   11  C   UNL     1     -43.686  56.563 -58.510  1.00  0.00     0.180 C 
HETATM   12  C   UNL     1     -43.053  57.933 -58.233  1.00  0.00     0.076 C 
HETATM   13  C   UNL     1     -42.252  57.774 -56.951  1.00  0.00     0.238 C 
BRANCH  11  14
HETATM   14  C   UNL     1     -43.275  55.967 -59.856  1.00  0.00     0.419 C 
HETATM   15  F   UNL     1     -41.938  56.001 -60.011  1.00  0.00    -0.168 F 
HETATM   16  F   UNL     1     -43.687  54.689 -59.954  1.00  0.00    -0.168 F 
HETATM   17  F   UNL     1     -43.831  56.672 -60.866  1.00  0.00    -0.168 F 
ENDBRANCH  11  14
BRANCH  11  18
HETATM   18  O   UNL     1     -45.112  56.722 -58.349  1.00  0.00    -0.379 OA
HETATM   19  H   UNL     1     -45.471  57.166 -59.146  1.00  0.00     0.211 HD
ENDBRANCH  11  18
ENDBRANCH   7   8
ENDBRANCH   6   7
BRANCH   1  20
HETATM   20  C   UNL     1     -41.507  54.151 -52.520  1.00  0.00    -0.003 A 
HETATM   21  C   UNL     1     -41.298  53.172 -53.496  1.00  0.00     0.037 A 
HETATM   22  C   UNL     1     -40.353  52.166 -53.285  1.00  0.00     0.035 A 
HETATM   23  C   UNL     1     -39.596  52.134 -52.117  1.00  0.00     0.024 A 
HETATM   24 CL   UNL     1     -40.144  50.950 -54.483  1.00  0.00    -0.084 Cl
HETATM   25  C   UNL     1     -39.779  53.122 -51.152  1.00  0.00     0.003 A 
HETATM   26  C   UNL     1     -40.730  54.125 -51.353  1.00  0.00     0.014 A 
ENDBRANCH   1  20
TORSDOF 5
ENDMDL
MODEL 5
REMARK VINA RESULT:      -7.4      3.042      4.368
REMARK  5 active torsions:
REMARK  status: ('A' for Active; 'I' for Inactive)
REMARK    1  A    between atoms: C_6  and  C_7 
REMARK    2  A    between atoms: C_12  and  C_13 
REMARK    3  A    between atoms: C_13  and  N_14 
REMARK    4  A    between atoms: C_17  and  C_19 
REMARK    5  A    between atoms: C_17  and  O_18 
ROOT
HETATM    1  C   UNL     1     -41.902  54.279 -54.606  1.00  0.00     0.096 A 
HETATM    2  N   UNL     1     -42.942  53.833 -55.320  1.00  0.00    -0.174 NA
HETATM    3  N   UNL     1     -43.428  54.907 -55.947  1.00  0.00    -0.288 N 
HETATM    4  H   UNL     1     -44.225  54.782 -56.567  1.00  0.00     0.188 HD
HETATM    5  C   UNL     1     -42.741  56.050 -55.660  1.00  0.00     0.120 A 
HETATM    6  C   UNL     1     -41.734  55.692 -54.780  1.00  0.00     0.016 A 
ENDROOT
BRANCH   6   7
HETATM    7  C   UNL     1     -40.678  56.565 -54.213  1.00  0.00     0.277 C 
BRANCH   7   8
HETATM    8  N   UNL     1     -41.183  57.469 -53.121  1.00  0.00    -0.064 N 
HETATM    9  H   UNL     1     -40.403  57.647 -52.470  1.00  0.00     0.280 HD
HETATM   10  C   UNL     1     -42.324  56.913 -52.290  1.00  0.00     0.282 C 
HETATM   11  C   UNL     1     -42.854  58.144 -51.554  1.00  0.00     0.180 C 
HETATM   12  C   UNL     1     -42.482  59.348 -52.430  1.00  0.00     0.076 C 
HETATM   13  C   UNL     1     -41.710  58.784 -53.612  1.00  0.00     0.238 C 
BRANCH  11  14
HETATM   14  C   UNL     1     -44.361  57.981 -51.358  1.00  0.00     0.419 C 
HETATM   15  F   UNL     1     -44.888  59.062 -50.751  1.00  0.00    -0.168 F 
HETATM   16  F   UNL     1     -44.978  57.810 -52.542  1.00  0.00    -0.168 F 
HETATM   17  F   UNL     1     -44.616  56.903 -50.585  1.00  0.00    -0.168 F 
ENDBRANCH  11  14
BRANCH  11  18
HETATM   18  O   UNL     1     -42.113  58.278 -50.322  1.00  0.00    -0.379 OA
HETATM   19  H   UNL     1     -42.191  59.204 -50.008  1.00  0.00     0.211 HD
ENDBRANCH  11  18
ENDBRANCH   7   8
ENDBRANCH   6   7
BRANCH   1  20
HETATM   20  C   UNL     1     -41.098  53.344 -53.821  1.00  0.00    -0.003 A 
HETATM   21  C   UNL     1     -40.577  52.179 -54.393  1.00  0.00     0.037 A 
HETATM   22  C   UNL     1     -39.839  51.287 -53.612  1.00  0.00     0.035 A 
HETATM   23  C   UNL     1     -39.595  51.552 -52.268  1.00  0.00     0.024 A 
HETATM   24 CL   UNL     1     -39.244  49.842 -54.330  1.00  0.00    -0.084 Cl
HETATM   25  C   UNL     1     -40.088  52.723 -51.697  1.00  0.00     0.003 A 
HETATM   26  C   UNL     1     -40.835  53.615 -52.470  1.00  0.00     0.014 A 
ENDBRANCH   1  20
TORSDOF 5
ENDMDL
MODEL 6
REMARK VINA RESULT:      -7.3      3.768      5.028
REMARK  5 active torsions:
REMARK  status: ('A' for Active; 'I' for Inactive)
REMARK    1  A    between atoms: C_6  and  C_7 
REMARK    2  A    between atoms: C_12  and  C_13 
REMARK    3  A    between atoms: C_13  and  N_14 
REMARK    4  A    between atoms: C_17  and  C_19 
REMARK    5  A    between atoms: C_17  and  O_18 
ROOT
HETATM    1  C   UNL     1     -41.939  54.112 -54.663  1.00  0.00     0.096 A 
HETATM    2  N   UNL     1     -42.899  53.549 -55.407  1.00  0.00    -0.174 NA
HETATM    3  N   UNL     1     -43.410  54.543 -56.137  1.00  0.00    -0.288 N 
HETATM    4  H   UNL     1     -44.155  54.323 -56.795  1.00  0.00     0.188 HD
HETATM    5  C   UNL     1     -42.819  55.747 -55.889  1.00  0.00     0.120 A 
HETATM    6  C   UNL     1     -41.852  55.518 -54.926  1.00  0.00     0.016 A 
ENDROOT
BRANCH   6   7
HETATM    7  C   UNL     1     -40.894  56.498 -54.358  1.00  0.00     0.277 C 
BRANCH   7   8
HETATM    8  N   UNL     1     -41.560  57.556 -53.521  1.00  0.00    -0.064 N 
HETATM    9  H   UNL     1     -42.188  58.098 -54.135  1.00  0.00     0.280 HD
HETATM   10  C   UNL     1     -40.624  58.555 -52.867  1.00  0.00     0.282 C 
HETATM   11  C   UNL     1     -41.511  59.236 -51.824  1.00  0.00     0.180 C 
HETATM   12  C   UNL     1     -42.612  58.222 -51.486  1.00  0.00     0.076 C 
HETATM   13  C   UNL     1     -42.359  57.014 -52.374  1.00  0.00     0.238 C 
BRANCH  11  14
HETATM   14  C   UNL     1     -40.645  59.612 -50.622  1.00  0.00     0.419 C 
HETATM   15  F   UNL     1     -40.881  58.791 -49.581  1.00  0.00    -0.168 F 
HETATM   16  F   UNL     1     -39.338  59.541 -50.937  1.00  0.00    -0.168 F 
HETATM   17  F   UNL     1     -40.920  60.875 -50.228  1.00  0.00    -0.168 F 
ENDBRANCH  11  14
BRANCH  11  18
HETATM   18  O   UNL     1     -42.157  60.360 -52.457  1.00  0.00    -0.379 OA
HETATM   19  H   UNL     1     -41.729  61.185 -52.145  1.00  0.00     0.211 HD
ENDBRANCH  11  18
ENDBRANCH   7   8
ENDBRANCH   6   7
BRANCH   1  20
HETATM   20  C   UNL     1     -41.130  53.289 -53.767  1.00  0.00    -0.003 A 
HETATM   21  C   UNL     1     -41.138  53.499 -52.384  1.00  0.00     0.037 A 
HETATM   22  C   UNL     1     -40.331  52.719 -51.554  1.00  0.00     0.035 A 
HETATM   23  C   UNL     1     -39.528  51.713 -52.084  1.00  0.00     0.024 A 
HETATM   24 CL   UNL     1     -40.329  53.025 -49.862  1.00  0.00    -0.084 Cl
HETATM   25  C   UNL     1     -39.534  51.478 -53.457  1.00  0.00     0.003 A 
HETATM   26  C   UNL     1     -40.332  52.263 -54.294  1.00  0.00     0.014 A 
ENDBRANCH   1  20
TORSDOF 5
ENDMDL
MODEL 7
REMARK VINA RESULT:      -7.0      3.387      4.603
REMARK  5 active torsions:
REMARK  status: ('A' for Active; 'I' for Inactive)
REMARK    1  A    between atoms: C_6  and  C_7 
REMARK    2  A    between atoms: C_12  and  C_13 
REMARK    3  A    between atoms: C_13  and  N_14 
REMARK    4  A    between atoms: C_17  and  C_19 
REMARK    5  A    between atoms: C_17  and  O_18 
ROOT
HETATM    1  C   UNL     1     -40.983  54.319 -53.589  1.00  0.00     0.096 A 
HETATM    2  N   UNL     1     -40.151  53.953 -54.570  1.00  0.00    -0.174 NA
HETATM    3  N   UNL     1     -40.597  54.574 -55.665  1.00  0.00    -0.288 N 
HETATM    4  H   UNL     1     -40.086  54.443 -56.535  1.00  0.00     0.188 HD
HETATM    5  C   UNL     1     -41.706  55.334 -55.432  1.00  0.00     0.120 A 
HETATM    6  C   UNL     1     -42.002  55.195 -54.088  1.00  0.00     0.016 A 
ENDROOT
BRANCH   6   7
HETATM    7  C   UNL     1     -43.084  55.867 -53.328  1.00  0.00     0.277 C 
BRANCH   7   8
HETATM    8  N   UNL     1     -42.768  57.300 -52.994  1.00  0.00    -0.064 N 
HETATM    9  H   UNL     1     -43.128  57.891 -53.759  1.00  0.00     0.280 HD
HETATM   10  C   UNL     1     -41.294  57.626 -52.851  1.00  0.00     0.282 C 
HETATM   11  C   UNL     1     -41.302  58.993 -52.164  1.00  0.00     0.180 C 
HETATM   12  C   UNL     1     -42.629  59.067 -51.396  1.00  0.00     0.076 C 
HETATM   13  C   UNL     1     -43.363  57.771 -51.701  1.00  0.00     0.238 C 
BRANCH  11  14
HETATM   14  C   UNL     1     -40.073  59.089 -51.260  1.00  0.00     0.419 C 
HETATM   15  F   UNL     1     -39.934  57.977 -50.514  1.00  0.00    -0.168 F 
HETATM   16  F   UNL     1     -38.957  59.256 -51.994  1.00  0.00    -0.168 F 
HETATM   17  F   UNL     1     -40.194  60.142 -50.423  1.00  0.00    -0.168 F 
ENDBRANCH  11  14
BRANCH  11  18
HETATM   18  O   UNL     1     -41.356  60.005 -53.191  1.00  0.00    -0.379 OA
HETATM   19  H   UNL     1     -41.492  60.878 -52.765  1.00  0.00     0.211 HD
ENDBRANCH  11  18
ENDBRANCH   7   8
ENDBRANCH   6   7
BRANCH   1  20
HETATM   20  C   UNL     1     -40.756  53.851 -52.224  1.00  0.00    -0.003 A 
HETATM   21  C   UNL     1     -40.478  52.507 -51.955  1.00  0.00     0.037 A 
HETATM   22  C   UNL     1     -40.297  52.081 -50.638  1.00  0.00     0.035 A 
HETATM   23  C   UNL     1     -40.368  52.984 -49.581  1.00  0.00     0.024 A 
HETATM   24 CL   UNL     1     -39.998  50.415 -50.330  1.00  0.00    -0.084 Cl
HETATM   25  C   UNL     1     -40.616  54.330 -49.842  1.00  0.00     0.003 A 
HETATM   26  C   UNL     1     -40.809  54.761 -51.157  1.00  0.00     0.014 A 
ENDBRANCH   1  20
TORSDOF 5
ENDMDL
MODEL 8
REMARK VINA RESULT:      -7.0      2.948      4.174
REMARK  5 active torsions:
REMARK  status: ('A' for Active; 'I' for Inactive)
REMARK    1  A    between atoms: C_6  and  C_7 
REMARK    2  A    between atoms: C_12  and  C_13 
REMARK    3  A    between atoms: C_13  and  N_14 
REMARK    4  A    between atoms: C_17  and  C_19 
REMARK    5  A    between atoms: C_17  and  O_18 
ROOT
HETATM    1  C   UNL     1     -41.372  56.806 -53.852  1.00  0.00     0.096 A 
HETATM    2  N   UNL     1     -40.474  57.766 -53.604  1.00  0.00    -0.174 NA
HETATM    3  N   UNL     1     -41.134  58.917 -53.754  1.00  0.00    -0.288 N 
HETATM    4  H   UNL     1     -40.631  59.786 -53.590  1.00  0.00     0.188 HD
HETATM    5  C   UNL     1     -42.442  58.741 -54.102  1.00  0.00     0.120 A 
HETATM    6  C   UNL     1     -42.645  57.374 -54.185  1.00  0.00     0.016 A 
ENDROOT
BRANCH   6   7
HETATM    7  C   UNL     1     -43.916  56.667 -54.475  1.00  0.00     0.277 C 
BRANCH   7   8
HETATM    8  N   UNL     1     -44.288  56.698 -55.933  1.00  0.00    -0.064 N 
HETATM    9  H   UNL     1     -45.013  55.981 -56.091  1.00  0.00     0.280 HD
HETATM   10  C   UNL     1     -43.160  56.396 -56.901  1.00  0.00     0.282 C 
HETATM   11  C   UNL     1     -43.720  56.860 -58.247  1.00  0.00     0.180 C 
HETATM   12  C   UNL     1     -44.765  57.935 -57.917  1.00  0.00     0.076 C 
HETATM   13  C   UNL     1     -44.812  58.023 -56.400  1.00  0.00     0.238 C 
BRANCH  11  14
HETATM   14  C   UNL     1     -42.563  57.381 -59.099  1.00  0.00     0.419 C 
HETATM   15  F   UNL     1     -41.611  57.942 -58.330  1.00  0.00    -0.168 F 
HETATM   16  F   UNL     1     -42.008  56.380 -59.809  1.00  0.00    -0.168 F 
HETATM   17  F   UNL     1     -43.008  58.319 -59.963  1.00  0.00    -0.168 F 
ENDBRANCH  11  14
BRANCH  11  18
HETATM   18  O   UNL     1     -44.431  55.752 -58.837  1.00  0.00    -0.379 OA
HETATM   19  H   UNL     1     -44.730  56.013 -59.734  1.00  0.00     0.211 HD
ENDBRANCH  11  18
ENDBRANCH   7   8
ENDBRANCH   6   7
BRANCH   1  20
HETATM   20  C   UNL     1     -40.993  55.400 -53.731  1.00  0.00    -0.003 A 
HETATM   21  C   UNL     1     -41.014  54.747 -52.494  1.00  0.00     0.037 A 
HETATM   22  C   UNL     1     -40.615  53.413 -52.401  1.00  0.00     0.035 A 
HETATM   23  C   UNL     1     -40.214  52.709 -53.534  1.00  0.00     0.024 A 
HETATM   24 CL   UNL     1     -40.611  52.645 -50.862  1.00  0.00    -0.084 Cl
HETATM   25  C   UNL     1     -40.217  53.344 -54.774  1.00  0.00     0.003 A 
HETATM   26  C   UNL     1     -40.604  54.682 -54.872  1.00  0.00     0.014 A 
ENDBRANCH   1  20
TORSDOF 5
ENDMDL
MODEL 9
REMARK VINA RESULT:      -6.8      3.471      4.827
REMARK  5 active torsions:
REMARK  status: ('A' for Active; 'I' for Inactive)
REMARK    1  A    between atoms: C_6  and  C_7 
REMARK    2  A    between atoms: C_12  and  C_13 
REMARK    3  A    between atoms: C_13  and  N_14 
REMARK    4  A    between atoms: C_17  and  C_19 
REMARK    5  A    between atoms: C_17  and  O_18 
ROOT
HETATM    1  C   UNL     1     -41.252  56.902 -54.029  1.00  0.00     0.096 A 
HETATM    2  N   UNL     1     -40.505  57.835 -53.429  1.00  0.00    -0.174 NA
HETATM    3  N   UNL     1     -41.060  59.003 -53.762  1.00  0.00    -0.288 N 
HETATM    4  H   UNL     1     -40.648  59.855 -53.389  1.00  0.00     0.188 HD
HETATM    5  C   UNL     1     -42.148  58.864 -54.573  1.00  0.00     0.120 A 
HETATM    6  C   UNL     1     -42.312  57.506 -54.782  1.00  0.00     0.016 A 
ENDROOT
BRANCH   6   7
HETATM    7  C   UNL     1     -43.389  56.834 -55.548  1.00  0.00     0.277 C 
BRANCH   7   8
HETATM    8  N   UNL     1     -43.179  56.894 -57.037  1.00  0.00    -0.064 N 
HETATM    9  H   UNL     1     -42.326  57.447 -57.216  1.00  0.00     0.280 HD
HETATM   10  C   UNL     1     -44.295  57.550 -57.827  1.00  0.00     0.282 C 
HETATM   11  C   UNL     1     -43.995  57.136 -59.269  1.00  0.00     0.180 C 
HETATM   12  C   UNL     1     -43.201  55.826 -59.171  1.00  0.00     0.076 C 
HETATM   13  C   UNL     1     -43.027  55.551 -57.686  1.00  0.00     0.238 C 
BRANCH  11  14
HETATM   14  C   UNL     1     -45.319  56.988 -60.018  1.00  0.00     0.419 C 
HETATM   15  F   UNL     1     -46.313  56.648 -59.176  1.00  0.00    -0.168 F 
HETATM   16  F   UNL     1     -45.649  58.141 -60.630  1.00  0.00    -0.168 F 
HETATM   17  F   UNL     1     -45.216  56.022 -60.956  1.00  0.00    -0.168 F 
ENDBRANCH  11  14
BRANCH  11  18
HETATM   18  O   UNL     1     -43.106  58.122 -59.837  1.00  0.00    -0.379 OA
HETATM   19  H   UNL     1     -42.492  57.672 -60.455  1.00  0.00     0.211 HD
ENDBRANCH  11  18
ENDBRANCH   7   8
ENDBRANCH   6   7
BRANCH   1  20
HETATM   20  C   UNL     1     -40.949  55.485 -53.836  1.00  0.00    -0.003 A 
HETATM   21  C   UNL     1     -41.055  54.886 -52.577  1.00  0.00     0.037 A 
HETATM   22  C   UNL     1     -40.729  53.539 -52.414  1.00  0.00     0.035 A 
HETATM   23  C   UNL     1     -40.316  52.770 -53.499  1.00  0.00     0.024 A 
HETATM   24 CL   UNL     1     -40.828  52.837 -50.847  1.00  0.00    -0.084 Cl
HETATM   25  C   UNL     1     -40.234  53.352 -54.763  1.00  0.00     0.003 A 
HETATM   26  C   UNL     1     -40.549  54.703 -54.930  1.00  0.00     0.014 A 
ENDBRANCH   1  20
TORSDOF 5
ENDMDL
MODEL 10
REMARK VINA RESULT:      -6.8      4.026      5.449
REMARK  5 active torsions:
REMARK  status: ('A' for Active; 'I' for Inactive)
REMARK    1  A    between atoms: C_6  and  C_7 
REMARK    2  A    between atoms: C_12  and  C_13 
REMARK    3  A    between atoms: C_13  and  N_14 
REMARK    4  A    between atoms: C_17  and  C_19 
REMARK    5  A    between atoms: C_17  and  O_18 
ROOT
HETATM    1  C   UNL     1     -40.926  58.036 -52.995  1.00  0.00     0.096 A 
HETATM    2  N   UNL     1     -39.763  58.689 -53.099  1.00  0.00    -0.174 NA
HETATM    3  N   UNL     1     -39.619  59.344 -51.944  1.00  0.00    -0.288 N 
HETATM    4  H   UNL     1     -38.777  59.898 -51.807  1.00  0.00     0.188 HD
HETATM    5  C   UNL     1     -40.661  59.146 -51.086  1.00  0.00     0.120 A 
HETATM    6  C   UNL     1     -41.547  58.301 -51.731  1.00  0.00     0.016 A 
ENDROOT
BRANCH   6   7
HETATM    7  C   UNL     1     -42.811  57.739 -51.196  1.00  0.00     0.277 C 
BRANCH   7   8
HETATM    8  N   UNL     1     -42.631  56.389 -50.555  1.00  0.00    -0.064 N 
HETATM    9  H   UNL     1     -43.107  56.407 -49.639  1.00  0.00     0.280 HD
HETATM   10  C   UNL     1     -41.195  55.980 -50.289  1.00  0.00     0.282 C 
HETATM   11  C   UNL     1     -41.305  54.480 -50.007  1.00  0.00     0.180 C 
HETATM   12  C   UNL     1     -42.575  54.010 -50.729  1.00  0.00     0.076 C 
HETATM   13  C   UNL     1     -43.182  55.252 -51.362  1.00  0.00     0.238 C 
BRANCH  11  14
HETATM   14  C   UNL     1     -40.034  53.797 -50.509  1.00  0.00     0.419 C 
HETATM   15  F   UNL     1     -39.916  53.920 -51.845  1.00  0.00    -0.168 F 
HETATM   16  F   UNL     1     -38.945  54.335 -49.930  1.00  0.00    -0.168 F 
HETATM   17  F   UNL     1     -40.066  52.479 -50.213  1.00  0.00    -0.168 F 
ENDBRANCH  11  14
BRANCH  11  18
HETATM   18  O   UNL     1     -41.543  54.312 -48.593  1.00  0.00    -0.379 OA
HETATM   19  H   UNL     1     -41.462  55.185 -48.154  1.00  0.00     0.211 HD
ENDBRANCH  11  18
ENDBRANCH   7   8
ENDBRANCH   6   7
BRANCH   1  20
HETATM   20  C   UNL     1     -41.378  57.169 -54.081  1.00  0.00    -0.003 A 
HETATM   21  C   UNL     1     -42.284  57.625 -55.044  1.00  0.00     0.037 A 
HETATM   22  C   UNL     1     -42.724  56.765 -56.052  1.00  0.00     0.035 A 
HETATM   23  C   UNL     1     -42.255  55.456 -56.127  1.00  0.00     0.024 A 
HETATM   24 CL   UNL     1     -43.869  57.338 -57.200  1.00  0.00    -0.084 Cl
HETATM   25  C   UNL     1     -41.332  55.002 -55.187  1.00  0.00     0.003 A 
HETATM   26  C   UNL     1     -40.896  55.854 -54.170  1.00  0.00     0.014 A 
ENDBRANCH   1  20
TORSDOF 5
ENDMDL
