MODEL 1
REMARK VINA RESULT:      -7.3      0.000      0.000
REMARK  10 active torsions:
REMARK  status: ('A' for Active; 'I' for Inactive)
REMARK    1  A    between atoms: C_2  and  N_3 
REMARK    2  A    between atoms: N_3  and  N_4 
REMARK       I    between atoms: N_4  and  C_5 
REMARK    3  A    between atoms: C_5  and  C_6 
REMARK    4  A    between atoms: C_9  and  N_10 
REMARK    5  A    between atoms: C_14  and  C_15 
REMARK       I    between atoms: C_15  and  N_16 
REMARK    6  A    between atoms: N_16  and  C_17 
REMARK    7  A    between atoms: C_17  and  C_18 
REMARK    8  A    between atoms: C_18  and  C_19 
REMARK    9  A    between atoms: C_21  and  O_22 
REMARK   10  A    between atoms: C_24  and  O_25 
ROOT
HETATM    1  C   UNL     1     -42.967  54.948 -56.799  1.00  0.00     0.063 C 
HETATM    2  C   UNL     1     -42.804  56.102 -55.838  1.00  0.00     0.007 C 
HETATM    3  C   UNL     1     -42.484  57.322 -56.317  1.00  0.00     0.094 C 
ENDROOT
BRANCH   2   4
HETATM    4  N   UNL     1     -43.055  55.811 -54.502  1.00  0.00    -0.207 NA
HETATM    5  H   UNL     1     -42.769  56.589 -53.874  1.00  0.00     0.152 HD
BRANCH   4   6
HETATM    6  N   UNL     1     -42.618  54.579 -53.966  1.00  0.00    -0.283 N 
HETATM    7  C   UNL     1     -41.289  54.520 -53.564  1.00  0.00     0.266 C 
HETATM    8  O   UNL     1     -40.572  55.509 -53.439  1.00  0.00    -0.266 OA
HETATM    9  H   UNL     1     -43.065  53.753 -54.345  1.00  0.00     0.184 HD
BRANCH   7  10
HETATM   10  C   UNL     1     -40.727  53.157 -53.360  1.00  0.00     0.033 A 
HETATM   11  C   UNL     1     -40.167  52.749 -52.144  1.00  0.00     0.019 A 
HETATM   12  C   UNL     1     -39.690  51.441 -51.998  1.00  0.00     0.024 A 
HETATM   13  C   UNL     1     -39.717  50.542 -53.069  1.00  0.00     0.005 A 
HETATM   14  C   UNL     1     -40.313  50.944 -54.265  1.00  0.00     0.024 A 
HETATM   15  C   UNL     1     -40.791  52.248 -54.423  1.00  0.00     0.019 A 
BRANCH  13  16
HETATM   16  N   UNL     1     -39.368  49.202 -52.871  1.00  0.00    -0.303 NA
HETATM   17  H   UNL     1     -39.635  48.834 -51.964  1.00  0.00     0.124 HD
HETATM   18  H   UNL     1     -38.398  48.997 -53.095  1.00  0.00     0.124 HD
ENDBRANCH  13  16
ENDBRANCH   7  10
ENDBRANCH   4   6
ENDBRANCH   2   4
BRANCH   3  19
HETATM   19  C   UNL     1     -42.314  58.493 -55.424  1.00  0.00     0.242 C 
HETATM   20  N   UNL     1     -41.479  58.252 -54.359  1.00  0.00    -0.357 N 
HETATM   21  H   UNL     1     -41.097  57.327 -54.221  1.00  0.00     0.162 HD
HETATM   22  O   UNL     1     -42.911  59.545 -55.612  1.00  0.00    -0.269 OA
BRANCH  20  23
HETATM   23  C   UNL     1     -41.359  59.211 -53.268  1.00  0.00     0.127 C 
BRANCH  23  24
HETATM   24  C   UNL     1     -42.426  58.975 -52.181  1.00  0.00     0.058 C 
BRANCH  24  25
HETATM   25  C   UNL     1     -42.212  57.759 -51.306  1.00  0.00    -0.054 A 
HETATM   26  C   UNL     1     -43.229  56.808 -51.137  1.00  0.00     0.046 A 
HETATM   27  C   UNL     1     -43.025  55.643 -50.385  1.00  0.00     0.102 A 
HETATM   28  C   UNL     1     -41.771  55.415 -49.789  1.00  0.00     0.101 A 
HETATM   29  C   UNL     1     -40.746  56.350 -49.971  1.00  0.00     0.040 A 
HETATM   30  C   UNL     1     -40.965  57.508 -50.727  1.00  0.00     0.010 A 
BRANCH  27  31
HETATM   31  O   UNL     1     -43.986  54.685 -50.177  1.00  0.00    -0.353 OA
HETATM   32  C   UNL     1     -44.171  53.721 -51.208  1.00  0.00     0.210 C 
ENDBRANCH  27  31
BRANCH  28  33
HETATM   33  O   UNL     1     -41.648  54.252 -49.071  1.00  0.00    -0.353 OA
HETATM   34  C   UNL     1     -40.422  54.020 -48.396  1.00  0.00     0.210 C 
ENDBRANCH  28  33
ENDBRANCH  24  25
ENDBRANCH  23  24
ENDBRANCH  20  23
ENDBRANCH   3  19
TORSDOF 10
ENDMDL
MODEL 2
REMARK VINA RESULT:      -7.1      1.641      2.411
REMARK  10 active torsions:
REMARK  status: ('A' for Active; 'I' for Inactive)
REMARK    1  A    between atoms: C_2  and  N_3 
REMARK    2  A    between atoms: N_3  and  N_4 
REMARK       I    between atoms: N_4  and  C_5 
REMARK    3  A    between atoms: C_5  and  C_6 
REMARK    4  A    between atoms: C_9  and  N_10 
REMARK    5  A    between atoms: C_14  and  C_15 
REMARK       I    between atoms: C_15  and  N_16 
REMARK    6  A    between atoms: N_16  and  C_17 
REMARK    7  A    between atoms: C_17  and  C_18 
REMARK    8  A    between atoms: C_18  and  C_19 
REMARK    9  A    between atoms: C_21  and  O_22 
REMARK   10  A    between atoms: C_24  and  O_25 
ROOT
HETATM    1  C   UNL     1     -43.236  55.486 -58.298  1.00  0.00     0.063 C 
HETATM    2  C   UNL     1     -42.931  56.319 -57.075  1.00  0.00     0.007 C 
HETATM    3  C   UNL     1     -43.827  57.240 -56.662  1.00  0.00     0.094 C 
ENDROOT
BRANCH   2   4
HETATM    4  N   UNL     1     -41.736  56.024 -56.430  1.00  0.00    -0.207 NA
HETATM    5  H   UNL     1     -40.916  56.130 -57.060  1.00  0.00     0.152 HD
BRANCH   4   6
HETATM    6  N   UNL     1     -41.621  54.822 -55.696  1.00  0.00    -0.283 N 
HETATM    7  C   UNL     1     -41.095  54.933 -54.415  1.00  0.00     0.266 C 
HETATM    8  O   UNL     1     -40.950  56.002 -53.829  1.00  0.00    -0.266 OA
HETATM    9  H   UNL     1     -41.439  53.990 -56.244  1.00  0.00     0.184 HD
BRANCH   7  10
HETATM   10  C   UNL     1     -40.623  53.666 -53.790  1.00  0.00     0.033 A 
HETATM   11  C   UNL     1     -40.433  53.534 -52.410  1.00  0.00     0.019 A 
HETATM   12  C   UNL     1     -40.026  52.306 -51.875  1.00  0.00     0.024 A 
HETATM   13  C   UNL     1     -39.757  51.214 -52.705  1.00  0.00     0.005 A 
HETATM   14  C   UNL     1     -39.987  51.342 -54.076  1.00  0.00     0.024 A 
HETATM   15  C   UNL     1     -40.392  52.564 -54.621  1.00  0.00     0.019 A 
BRANCH  13  16
HETATM   16  N   UNL     1     -39.488  49.958 -52.150  1.00  0.00    -0.303 NA
HETATM   17  H   UNL     1     -39.979  49.192 -52.601  1.00  0.00     0.124 HD
HETATM   18  H   UNL     1     -39.585  49.930 -51.139  1.00  0.00     0.124 HD
ENDBRANCH  13  16
ENDBRANCH   7  10
ENDBRANCH   4   6
ENDBRANCH   2   4
BRANCH   3  19
HETATM   19  C   UNL     1     -43.585  58.085 -55.468  1.00  0.00     0.242 C 
HETATM   20  N   UNL     1     -44.725  58.347 -54.745  1.00  0.00    -0.357 N 
HETATM   21  H   UNL     1     -45.619  58.017 -55.081  1.00  0.00     0.162 HD
HETATM   22  O   UNL     1     -42.478  58.534 -55.202  1.00  0.00    -0.269 OA
BRANCH  20  23
HETATM   23  C   UNL     1     -44.720  59.328 -53.667  1.00  0.00     0.127 C 
BRANCH  23  24
HETATM   24  C   UNL     1     -45.001  58.675 -52.299  1.00  0.00     0.058 C 
BRANCH  24  25
HETATM   25  C   UNL     1     -43.858  57.884 -51.702  1.00  0.00    -0.054 A 
HETATM   26  C   UNL     1     -42.587  58.457 -51.555  1.00  0.00     0.046 A 
HETATM   27  C   UNL     1     -41.537  57.762 -50.943  1.00  0.00     0.102 A 
HETATM   28  C   UNL     1     -41.758  56.459 -50.459  1.00  0.00     0.101 A 
HETATM   29  C   UNL     1     -43.029  55.889 -50.584  1.00  0.00     0.040 A 
HETATM   30  C   UNL     1     -44.070  56.598 -51.196  1.00  0.00     0.010 A 
BRANCH  27  31
HETATM   31  O   UNL     1     -40.270  58.268 -50.782  1.00  0.00    -0.353 OA
HETATM   32  C   UNL     1     -40.165  59.595 -50.278  1.00  0.00     0.210 C 
ENDBRANCH  27  31
BRANCH  28  33
HETATM   33  O   UNL     1     -40.681  55.844 -49.870  1.00  0.00    -0.353 OA
HETATM   34  C   UNL     1     -40.941  54.774 -48.976  1.00  0.00     0.210 C 
ENDBRANCH  28  33
ENDBRANCH  24  25
ENDBRANCH  23  24
ENDBRANCH  20  23
ENDBRANCH   3  19
TORSDOF 10
ENDMDL
MODEL 3
REMARK VINA RESULT:      -7.1      3.004      6.069
REMARK  10 active torsions:
REMARK  status: ('A' for Active; 'I' for Inactive)
REMARK    1  A    between atoms: C_2  and  N_3 
REMARK    2  A    between atoms: N_3  and  N_4 
REMARK       I    between atoms: N_4  and  C_5 
REMARK    3  A    between atoms: C_5  and  C_6 
REMARK    4  A    between atoms: C_9  and  N_10 
REMARK    5  A    between atoms: C_14  and  C_15 
REMARK       I    between atoms: C_15  and  N_16 
REMARK    6  A    between atoms: N_16  and  C_17 
REMARK    7  A    between atoms: C_17  and  C_18 
REMARK    8  A    between atoms: C_18  and  C_19 
REMARK    9  A    between atoms: C_21  and  O_22 
REMARK   10  A    between atoms: C_24  and  O_25 
ROOT
HETATM    1  C   UNL     1     -43.212  61.665 -55.511  1.00  0.00     0.063 C 
HETATM    2  C   UNL     1     -42.314  60.496 -55.179  1.00  0.00     0.007 C 
HETATM    3  C   UNL     1     -42.146  60.138 -53.889  1.00  0.00     0.094 C 
ENDROOT
BRANCH   2   4
HETATM    4  N   UNL     1     -41.758  59.837 -56.269  1.00  0.00    -0.207 NA
HETATM    5  H   UNL     1     -41.068  60.429 -56.772  1.00  0.00     0.152 HD
BRANCH   4   6
HETATM    6  N   UNL     1     -42.606  59.195 -57.199  1.00  0.00    -0.283 N 
HETATM    7  C   UNL     1     -42.683  57.811 -57.107  1.00  0.00     0.266 C 
HETATM    8  O   UNL     1     -42.255  57.168 -56.152  1.00  0.00    -0.266 OA
HETATM    9  H   UNL     1     -42.682  59.643 -58.104  1.00  0.00     0.184 HD
BRANCH   7  10
HETATM   10  C   UNL     1     -43.255  57.107 -58.288  1.00  0.00     0.033 A 
HETATM   11  C   UNL     1     -43.285  55.712 -58.391  1.00  0.00     0.019 A 
HETATM   12  C   UNL     1     -43.871  55.106 -59.508  1.00  0.00     0.024 A 
HETATM   13  C   UNL     1     -44.387  55.875 -60.555  1.00  0.00     0.005 A 
HETATM   14  C   UNL     1     -44.388  57.265 -60.428  1.00  0.00     0.024 A 
HETATM   15  C   UNL     1     -43.804  57.881 -59.317  1.00  0.00     0.019 A 
BRANCH  13  16
HETATM   16  N   UNL     1     -45.092  55.262 -61.596  1.00  0.00    -0.303 NA
HETATM   17  H   UNL     1     -45.112  55.801 -62.456  1.00  0.00     0.124 HD
HETATM   18  H   UNL     1     -46.018  54.940 -61.327  1.00  0.00     0.124 HD
ENDBRANCH  13  16
ENDBRANCH   7  10
ENDBRANCH   4   6
ENDBRANCH   2   4
BRANCH   3  19
HETATM   19  C   UNL     1     -41.281  58.998 -53.500  1.00  0.00     0.242 C 
HETATM   20  N   UNL     1     -41.984  57.851 -53.214  1.00  0.00    -0.357 N 
HETATM   21  H   UNL     1     -42.994  57.866 -53.227  1.00  0.00     0.162 HD
HETATM   22  O   UNL     1     -40.066  59.107 -53.403  1.00  0.00    -0.269 OA
BRANCH  20  23
HETATM   23  C   UNL     1     -41.325  56.698 -52.615  1.00  0.00     0.127 C 
BRANCH  23  24
HETATM   24  C   UNL     1     -41.976  55.373 -53.059  1.00  0.00     0.058 C 
BRANCH  24  25
HETATM   25  C   UNL     1     -41.268  54.113 -52.612  1.00  0.00    -0.054 A 
HETATM   26  C   UNL     1     -40.729  53.220 -53.549  1.00  0.00     0.046 A 
HETATM   27  C   UNL     1     -40.012  52.084 -53.151  1.00  0.00     0.102 A 
HETATM   28  C   UNL     1     -39.821  51.831 -51.781  1.00  0.00     0.101 A 
HETATM   29  C   UNL     1     -40.338  52.730 -50.841  1.00  0.00     0.040 A 
HETATM   30  C   UNL     1     -41.050  53.862 -51.254  1.00  0.00     0.010 A 
BRANCH  27  31
HETATM   31  O   UNL     1     -39.474  51.170 -54.024  1.00  0.00    -0.353 OA
HETATM   32  C   UNL     1     -40.307  50.085 -54.417  1.00  0.00     0.210 C 
ENDBRANCH  27  31
BRANCH  28  33
HETATM   33  O   UNL     1     -39.107  50.701 -51.471  1.00  0.00    -0.353 OA
HETATM   34  C   UNL     1     -39.744  49.717 -50.672  1.00  0.00     0.210 C 
ENDBRANCH  28  33
ENDBRANCH  24  25
ENDBRANCH  23  24
ENDBRANCH  20  23
ENDBRANCH   3  19
TORSDOF 10
ENDMDL
MODEL 4
REMARK VINA RESULT:      -7.0      2.856      6.150
REMARK  10 active torsions:
REMARK  status: ('A' for Active; 'I' for Inactive)
REMARK    1  A    between atoms: C_2  and  N_3 
REMARK    2  A    between atoms: N_3  and  N_4 
REMARK       I    between atoms: N_4  and  C_5 
REMARK    3  A    between atoms: C_5  and  C_6 
REMARK    4  A    between atoms: C_9  and  N_10 
REMARK    5  A    between atoms: C_14  and  C_15 
REMARK       I    between atoms: C_15  and  N_16 
REMARK    6  A    between atoms: N_16  and  C_17 
REMARK    7  A    between atoms: C_17  and  C_18 
REMARK    8  A    between atoms: C_18  and  C_19 
REMARK    9  A    between atoms: C_21  and  O_22 
REMARK   10  A    between atoms: C_24  and  O_25 
ROOT
HETATM    1  C   UNL     1     -43.411  61.390 -55.856  1.00  0.00     0.063 C 
HETATM    2  C   UNL     1     -42.446  60.326 -55.388  1.00  0.00     0.007 C 
HETATM    3  C   UNL     1     -42.202  60.190 -54.068  1.00  0.00     0.094 C 
ENDROOT
BRANCH   2   4
HETATM    4  N   UNL     1     -41.911  59.520 -56.385  1.00  0.00    -0.207 NA
HETATM    5  H   UNL     1     -41.067  59.945 -56.819  1.00  0.00     0.152 HD
BRANCH   4   6
HETATM    6  N   UNL     1     -42.757  59.005 -57.392  1.00  0.00    -0.283 N 
HETATM    7  C   UNL     1     -43.219  57.709 -57.203  1.00  0.00     0.266 C 
HETATM    8  O   UNL     1     -43.124  57.101 -56.139  1.00  0.00    -0.266 OA
HETATM    9  H   UNL     1     -42.577  59.342 -58.330  1.00  0.00     0.184 HD
BRANCH   7  10
HETATM   10  C   UNL     1     -43.784  57.033 -58.404  1.00  0.00     0.033 A 
HETATM   11  C   UNL     1     -44.624  57.688 -59.310  1.00  0.00     0.019 A 
HETATM   12  C   UNL     1     -45.093  57.013 -60.443  1.00  0.00     0.024 A 
HETATM   13  C   UNL     1     -44.774  55.669 -60.662  1.00  0.00     0.005 A 
HETATM   14  C   UNL     1     -43.905  55.034 -59.774  1.00  0.00     0.024 A 
HETATM   15  C   UNL     1     -43.432  55.699 -58.638  1.00  0.00     0.019 A 
BRANCH  13  16
HETATM   16  N   UNL     1     -45.132  55.048 -61.863  1.00  0.00    -0.303 NA
HETATM   17  H   UNL     1     -45.289  55.693 -62.631  1.00  0.00     0.124 HD
HETATM   18  H   UNL     1     -45.891  54.379 -61.766  1.00  0.00     0.124 HD
ENDBRANCH  13  16
ENDBRANCH   7  10
ENDBRANCH   4   6
ENDBRANCH   2   4
BRANCH   3  19
HETATM   19  C   UNL     1     -41.268  59.163 -53.547  1.00  0.00     0.242 C 
HETATM   20  N   UNL     1     -41.598  57.883 -53.925  1.00  0.00    -0.357 N 
HETATM   21  H   UNL     1     -42.442  57.718 -54.456  1.00  0.00     0.162 HD
HETATM   22  O   UNL     1     -40.332  59.449 -52.813  1.00  0.00    -0.269 OA
BRANCH  20  23
HETATM   23  C   UNL     1     -40.924  56.731 -53.339  1.00  0.00     0.127 C 
BRANCH  23  24
HETATM   24  C   UNL     1     -40.889  55.534 -54.309  1.00  0.00     0.058 C 
BRANCH  24  25
HETATM   25  C   UNL     1     -40.517  54.203 -53.695  1.00  0.00    -0.054 A 
HETATM   26  C   UNL     1     -40.505  54.031 -52.304  1.00  0.00     0.046 A 
HETATM   27  C   UNL     1     -40.229  52.788 -51.721  1.00  0.00     0.102 A 
HETATM   28  C   UNL     1     -39.962  51.680 -52.547  1.00  0.00     0.101 A 
HETATM   29  C   UNL     1     -39.994  51.840 -53.937  1.00  0.00     0.040 A 
HETATM   30  C   UNL     1     -40.273  53.089 -54.504  1.00  0.00     0.010 A 
BRANCH  27  31
HETATM   31  O   UNL     1     -40.191  52.565 -50.366  1.00  0.00    -0.353 OA
HETATM   32  C   UNL     1     -40.613  53.633 -49.525  1.00  0.00     0.210 C 
ENDBRANCH  27  31
BRANCH  28  33
HETATM   33  O   UNL     1     -39.704  50.496 -51.902  1.00  0.00    -0.353 OA
HETATM   34  C   UNL     1     -39.415  49.360 -52.701  1.00  0.00     0.210 C 
ENDBRANCH  28  33
ENDBRANCH  24  25
ENDBRANCH  23  24
ENDBRANCH  20  23
ENDBRANCH   3  19
TORSDOF 10
ENDMDL
MODEL 5
REMARK VINA RESULT:      -6.8      2.678      5.931
REMARK  10 active torsions:
REMARK  status: ('A' for Active; 'I' for Inactive)
REMARK    1  A    between atoms: C_2  and  N_3 
REMARK    2  A    between atoms: N_3  and  N_4 
REMARK       I    between atoms: N_4  and  C_5 
REMARK    3  A    between atoms: C_5  and  C_6 
REMARK    4  A    between atoms: C_9  and  N_10 
REMARK    5  A    between atoms: C_14  and  C_15 
REMARK       I    between atoms: C_15  and  N_16 
REMARK    6  A    between atoms: N_16  and  C_17 
REMARK    7  A    between atoms: C_17  and  C_18 
REMARK    8  A    between atoms: C_18  and  C_19 
REMARK    9  A    between atoms: C_21  and  O_22 
REMARK   10  A    between atoms: C_24  and  O_25 
ROOT
HETATM    1  C   UNL     1     -45.234  59.855 -52.566  1.00  0.00     0.063 C 
HETATM    2  C   UNL     1     -44.269  58.692 -52.577  1.00  0.00     0.007 C 
HETATM    3  C   UNL     1     -43.175  58.733 -51.787  1.00  0.00     0.094 C 
ENDROOT
BRANCH   2   4
HETATM    4  N   UNL     1     -44.626  57.622 -53.389  1.00  0.00    -0.207 NA
HETATM    5  H   UNL     1     -44.273  56.717 -53.019  1.00  0.00     0.152 HD
BRANCH   4   6
HETATM    6  N   UNL     1     -44.387  57.696 -54.780  1.00  0.00    -0.283 N 
HETATM    7  C   UNL     1     -43.797  56.581 -55.361  1.00  0.00     0.266 C 
HETATM    8  O   UNL     1     -43.693  55.494 -54.798  1.00  0.00    -0.266 OA
HETATM    9  H   UNL     1     -44.179  58.619 -55.140  1.00  0.00     0.184 HD
BRANCH   7  10
HETATM   10  C   UNL     1     -43.205  56.783 -56.712  1.00  0.00     0.033 A 
HETATM   11  C   UNL     1     -43.163  55.769 -57.675  1.00  0.00     0.019 A 
HETATM   12  C   UNL     1     -42.630  56.029 -58.942  1.00  0.00     0.024 A 
HETATM   13  C   UNL     1     -42.088  57.281 -59.251  1.00  0.00     0.005 A 
HETATM   14  C   UNL     1     -42.168  58.298 -58.299  1.00  0.00     0.024 A 
HETATM   15  C   UNL     1     -42.698  58.049 -57.029  1.00  0.00     0.019 A 
BRANCH  13  16
HETATM   16  N   UNL     1     -41.686  57.570 -60.559  1.00  0.00    -0.303 NA
HETATM   17  H   UNL     1     -40.741  57.273 -60.777  1.00  0.00     0.124 HD
HETATM   18  H   UNL     1     -41.855  58.534 -60.834  1.00  0.00     0.124 HD
ENDBRANCH  13  16
ENDBRANCH   7  10
ENDBRANCH   4   6
ENDBRANCH   2   4
BRANCH   3  19
HETATM   19  C   UNL     1     -42.194  57.622 -51.752  1.00  0.00     0.242 C 
HETATM   20  N   UNL     1     -42.128  56.991 -50.532  1.00  0.00    -0.357 N 
HETATM   21  H   UNL     1     -42.677  57.336 -49.757  1.00  0.00     0.162 HD
HETATM   22  O   UNL     1     -41.489  57.347 -52.713  1.00  0.00    -0.269 OA
BRANCH  20  23
HETATM   23  C   UNL     1     -41.078  56.020 -50.246  1.00  0.00     0.127 C 
BRANCH  23  24
HETATM   24  C   UNL     1     -41.634  54.586 -50.160  1.00  0.00     0.058 C 
BRANCH  24  25
HETATM   25  C   UNL     1     -41.015  53.584 -51.109  1.00  0.00    -0.054 A 
HETATM   26  C   UNL     1     -41.006  53.814 -52.493  1.00  0.00     0.046 A 
HETATM   27  C   UNL     1     -40.378  52.930 -53.379  1.00  0.00     0.102 A 
HETATM   28  C   UNL     1     -39.735  51.786 -52.874  1.00  0.00     0.101 A 
HETATM   29  C   UNL     1     -39.721  51.560 -51.494  1.00  0.00     0.040 A 
HETATM   30  C   UNL     1     -40.352  52.454 -50.620  1.00  0.00     0.010 A 
BRANCH  27  31
HETATM   31  O   UNL     1     -40.349  53.100 -54.742  1.00  0.00    -0.353 OA
HETATM   32  C   UNL     1     -40.367  54.438 -55.226  1.00  0.00     0.210 C 
ENDBRANCH  27  31
BRANCH  28  33
HETATM   33  O   UNL     1     -39.140  50.969 -53.804  1.00  0.00    -0.353 OA
HETATM   34  C   UNL     1     -39.867  49.834 -54.246  1.00  0.00     0.210 C 
ENDBRANCH  28  33
ENDBRANCH  24  25
ENDBRANCH  23  24
ENDBRANCH  20  23
ENDBRANCH   3  19
TORSDOF 10
ENDMDL
MODEL 6
REMARK VINA RESULT:      -6.8      2.516      6.213
REMARK  10 active torsions:
REMARK  status: ('A' for Active; 'I' for Inactive)
REMARK    1  A    between atoms: C_2  and  N_3 
REMARK    2  A    between atoms: N_3  and  N_4 
REMARK       I    between atoms: N_4  and  C_5 
REMARK    3  A    between atoms: C_5  and  C_6 
REMARK    4  A    between atoms: C_9  and  N_10 
REMARK    5  A    between atoms: C_14  and  C_15 
REMARK       I    between atoms: C_15  and  N_16 
REMARK    6  A    between atoms: N_16  and  C_17 
REMARK    7  A    between atoms: C_17  and  C_18 
REMARK    8  A    between atoms: C_18  and  C_19 
REMARK    9  A    between atoms: C_21  and  O_22 
REMARK   10  A    between atoms: C_24  and  O_25 
ROOT
HETATM    1  C   UNL     1     -43.473  54.861 -50.187  1.00  0.00     0.063 C 
HETATM    2  C   UNL     1     -43.230  56.021 -51.123  1.00  0.00     0.007 C 
HETATM    3  C   UNL     1     -44.266  56.806 -51.486  1.00  0.00     0.094 C 
ENDROOT
BRANCH   2   4
HETATM    4  N   UNL     1     -41.909  56.218 -51.505  1.00  0.00    -0.207 NA
HETATM    5  H   UNL     1     -41.828  56.884 -52.300  1.00  0.00     0.152 HD
BRANCH   4   6
HETATM    6  N   UNL     1     -41.077  55.099 -51.734  1.00  0.00    -0.283 N 
HETATM    7  C   UNL     1     -41.239  54.452 -52.952  1.00  0.00     0.266 C 
HETATM    8  O   UNL     1     -41.872  54.923 -53.893  1.00  0.00    -0.266 OA
HETATM    9  H   UNL     1     -40.826  54.565 -50.910  1.00  0.00     0.184 HD
BRANCH   7  10
HETATM   10  C   UNL     1     -40.660  53.084 -53.049  1.00  0.00     0.033 A 
HETATM   11  C   UNL     1     -40.004  52.467 -51.977  1.00  0.00     0.019 A 
HETATM   12  C   UNL     1     -39.514  51.163 -52.114  1.00  0.00     0.024 A 
HETATM   13  C   UNL     1     -39.625  50.478 -53.328  1.00  0.00     0.005 A 
HETATM   14  C   UNL     1     -40.314  51.084 -54.379  1.00  0.00     0.024 A 
HETATM   15  C   UNL     1     -40.806  52.387 -54.254  1.00  0.00     0.019 A 
BRANCH  13  16
HETATM   16  N   UNL     1     -39.258  49.130 -53.411  1.00  0.00    -0.303 NA
HETATM   17  H   UNL     1     -39.948  48.541 -53.866  1.00  0.00     0.124 HD
HETATM   18  H   UNL     1     -38.945  48.738 -52.527  1.00  0.00     0.124 HD
ENDBRANCH  13  16
ENDBRANCH   7  10
ENDBRANCH   4   6
ENDBRANCH   2   4
BRANCH   3  19
HETATM   19  C   UNL     1     -44.090  57.961 -52.399  1.00  0.00     0.242 C 
HETATM   20  N   UNL     1     -43.801  57.595 -53.693  1.00  0.00    -0.357 N 
HETATM   21  H   UNL     1     -43.675  56.619 -53.922  1.00  0.00     0.162 HD
HETATM   22  O   UNL     1     -44.151  59.117 -52.004  1.00  0.00    -0.269 OA
BRANCH  20  23
HETATM   23  C   UNL     1     -43.390  58.588 -54.678  1.00  0.00     0.127 C 
BRANCH  23  24
HETATM   24  C   UNL     1     -42.251  58.065 -55.575  1.00  0.00     0.058 C 
BRANCH  24  25
HETATM   25  C   UNL     1     -42.676  57.497 -56.910  1.00  0.00    -0.054 A 
HETATM   26  C   UNL     1     -42.754  58.313 -58.048  1.00  0.00     0.046 A 
HETATM   27  C   UNL     1     -43.081  57.789 -59.305  1.00  0.00     0.102 A 
HETATM   28  C   UNL     1     -43.333  56.412 -59.436  1.00  0.00     0.101 A 
HETATM   29  C   UNL     1     -43.237  55.588 -58.310  1.00  0.00     0.040 A 
HETATM   30  C   UNL     1     -42.908  56.126 -57.060  1.00  0.00     0.010 A 
BRANCH  27  31
HETATM   31  O   UNL     1     -43.182  58.543 -60.449  1.00  0.00    -0.353 OA
HETATM   32  C   UNL     1     -41.990  59.157 -60.925  1.00  0.00     0.210 C 
ENDBRANCH  27  31
BRANCH  28  33
HETATM   33  O   UNL     1     -43.645  55.974 -60.700  1.00  0.00    -0.353 OA
HETATM   34  C   UNL     1     -44.806  55.173 -60.853  1.00  0.00     0.210 C 
ENDBRANCH  28  33
ENDBRANCH  24  25
ENDBRANCH  23  24
ENDBRANCH  20  23
ENDBRANCH   3  19
TORSDOF 10
ENDMDL
MODEL 7
REMARK VINA RESULT:      -6.7      2.255      5.272
REMARK  10 active torsions:
REMARK  status: ('A' for Active; 'I' for Inactive)
REMARK    1  A    between atoms: C_2  and  N_3 
REMARK    2  A    between atoms: N_3  and  N_4 
REMARK       I    between atoms: N_4  and  C_5 
REMARK    3  A    between atoms: C_5  and  C_6 
REMARK    4  A    between atoms: C_9  and  N_10 
REMARK    5  A    between atoms: C_14  and  C_15 
REMARK       I    between atoms: C_15  and  N_16 
REMARK    6  A    between atoms: N_16  and  C_17 
REMARK    7  A    between atoms: C_17  and  C_18 
REMARK    8  A    between atoms: C_18  and  C_19 
REMARK    9  A    between atoms: C_21  and  O_22 
REMARK   10  A    between atoms: C_24  and  O_25 
ROOT
HETATM    1  C   UNL     1     -41.087  57.122 -50.322  1.00  0.00     0.063 C 
HETATM    2  C   UNL     1     -41.451  57.544 -51.726  1.00  0.00     0.007 C 
HETATM    3  C   UNL     1     -41.457  58.856 -52.042  1.00  0.00     0.094 C 
ENDROOT
BRANCH   2   4
HETATM    4  N   UNL     1     -41.710  56.508 -52.616  1.00  0.00    -0.207 NA
HETATM    5  H   UNL     1     -42.723  56.427 -52.836  1.00  0.00     0.152 HD
BRANCH   4   6
HETATM    6  N   UNL     1     -41.171  55.226 -52.367  1.00  0.00    -0.283 N 
HETATM    7  C   UNL     1     -40.516  54.618 -53.430  1.00  0.00     0.266 C 
HETATM    8  O   UNL     1     -40.191  55.209 -54.457  1.00  0.00    -0.266 OA
HETATM    9  H   UNL     1     -41.681  54.659 -51.700  1.00  0.00     0.184 HD
BRANCH   7  10
HETATM   10  C   UNL     1     -40.284  53.152 -53.304  1.00  0.00     0.033 A 
HETATM   11  C   UNL     1     -40.396  52.277 -54.389  1.00  0.00     0.019 A 
HETATM   12  C   UNL     1     -40.127  50.914 -54.219  1.00  0.00     0.024 A 
HETATM   13  C   UNL     1     -39.795  50.399 -52.962  1.00  0.00     0.005 A 
HETATM   14  C   UNL     1     -39.647  51.284 -51.893  1.00  0.00     0.024 A 
HETATM   15  C   UNL     1     -39.914  52.647 -52.052  1.00  0.00     0.019 A 
BRANCH  13  16
HETATM   16  N   UNL     1     -39.394  49.065 -52.833  1.00  0.00    -0.303 NA
HETATM   17  H   UNL     1     -40.163  48.402 -52.810  1.00  0.00     0.124 HD
HETATM   18  H   UNL     1     -38.734  48.909 -52.076  1.00  0.00     0.124 HD
ENDBRANCH  13  16
ENDBRANCH   7  10
ENDBRANCH   4   6
ENDBRANCH   2   4
BRANCH   3  19
HETATM   19  C   UNL     1     -41.802  59.331 -53.404  1.00  0.00     0.242 C 
HETATM   20  N   UNL     1     -42.996  60.010 -53.459  1.00  0.00    -0.357 N 
HETATM   21  H   UNL     1     -43.566  60.091 -52.628  1.00  0.00     0.162 HD
HETATM   22  O   UNL     1     -41.099  59.085 -54.375  1.00  0.00    -0.269 OA
BRANCH  20  23
HETATM   23  C   UNL     1     -43.598  60.365 -54.738  1.00  0.00     0.127 C 
BRANCH  23  24
HETATM   24  C   UNL     1     -44.675  59.349 -55.165  1.00  0.00     0.058 C 
BRANCH  24  25
HETATM   25  C   UNL     1     -44.265  58.376 -56.249  1.00  0.00    -0.054 A 
HETATM   26  C   UNL     1     -43.595  57.186 -55.932  1.00  0.00     0.046 A 
HETATM   27  C   UNL     1     -43.269  56.244 -56.916  1.00  0.00     0.102 A 
HETATM   28  C   UNL     1     -43.624  56.491 -58.254  1.00  0.00     0.101 A 
HETATM   29  C   UNL     1     -44.311  57.667 -58.575  1.00  0.00     0.040 A 
HETATM   30  C   UNL     1     -44.632  58.598 -57.580  1.00  0.00     0.010 A 
BRANCH  27  31
HETATM   31  O   UNL     1     -42.604  55.069 -56.664  1.00  0.00    -0.353 OA
HETATM   32  C   UNL     1     -43.255  54.128 -55.818  1.00  0.00     0.210 C 
ENDBRANCH  27  31
BRANCH  28  33
HETATM   33  O   UNL     1     -43.273  55.520 -59.160  1.00  0.00    -0.353 OA
HETATM   34  C   UNL     1     -44.312  54.728 -59.713  1.00  0.00     0.210 C 
ENDBRANCH  28  33
ENDBRANCH  24  25
ENDBRANCH  23  24
ENDBRANCH  20  23
ENDBRANCH   3  19
TORSDOF 10
ENDMDL
MODEL 8
REMARK VINA RESULT:      -6.7      2.162      3.033
REMARK  10 active torsions:
REMARK  status: ('A' for Active; 'I' for Inactive)
REMARK    1  A    between atoms: C_2  and  N_3 
REMARK    2  A    between atoms: N_3  and  N_4 
REMARK       I    between atoms: N_4  and  C_5 
REMARK    3  A    between atoms: C_5  and  C_6 
REMARK    4  A    between atoms: C_9  and  N_10 
REMARK    5  A    between atoms: C_14  and  C_15 
REMARK       I    between atoms: C_15  and  N_16 
REMARK    6  A    between atoms: N_16  and  C_17 
REMARK    7  A    between atoms: C_17  and  C_18 
REMARK    8  A    between atoms: C_18  and  C_19 
REMARK    9  A    between atoms: C_21  and  O_22 
REMARK   10  A    between atoms: C_24  and  O_25 
ROOT
HETATM    1  C   UNL     1     -43.361  55.672 -59.393  1.00  0.00     0.063 C 
HETATM    2  C   UNL     1     -43.291  56.621 -58.220  1.00  0.00     0.007 C 
HETATM    3  C   UNL     1     -44.337  57.434 -57.964  1.00  0.00     0.094 C 
ENDROOT
BRANCH   2   4
HETATM    4  N   UNL     1     -42.137  56.540 -57.449  1.00  0.00    -0.207 NA
HETATM    5  H   UNL     1     -41.278  56.675 -58.019  1.00  0.00     0.152 HD
BRANCH   4   6
HETATM    6  N   UNL     1     -41.962  55.447 -56.572  1.00  0.00    -0.283 N 
HETATM    7  C   UNL     1     -41.610  55.758 -55.265  1.00  0.00     0.266 C 
HETATM    8  O   UNL     1     -41.670  56.892 -54.796  1.00  0.00    -0.266 OA
HETATM    9  H   UNL     1     -41.615  54.596 -56.997  1.00  0.00     0.184 HD
BRANCH   7  10
HETATM   10  C   UNL     1     -41.063  54.638 -54.450  1.00  0.00     0.033 A 
HETATM   11  C   UNL     1     -41.115  54.630 -53.052  1.00  0.00     0.019 A 
HETATM   12  C   UNL     1     -40.620  53.531 -52.340  1.00  0.00     0.024 A 
HETATM   13  C   UNL     1     -40.025  52.454 -53.004  1.00  0.00     0.005 A 
HETATM   14  C   UNL     1     -40.012  52.452 -54.399  1.00  0.00     0.024 A 
HETATM   15  C   UNL     1     -40.502  53.545 -55.120  1.00  0.00     0.019 A 
BRANCH  13  16
HETATM   16  N   UNL     1     -39.662  51.304 -52.294  1.00  0.00    -0.303 NA
HETATM   17  H   UNL     1     -40.143  51.197 -51.406  1.00  0.00     0.124 HD
HETATM   18  H   UNL     1     -38.658  51.183 -52.200  1.00  0.00     0.124 HD
ENDBRANCH  13  16
ENDBRANCH   7  10
ENDBRANCH   4   6
ENDBRANCH   2   4
BRANCH   3  19
HETATM   19  C   UNL     1     -44.329  58.384 -56.825  1.00  0.00     0.242 C 
HETATM   20  N   UNL     1     -44.659  57.801 -55.625  1.00  0.00    -0.357 N 
HETATM   21  H   UNL     1     -44.929  56.828 -55.597  1.00  0.00     0.162 HD
HETATM   22  O   UNL     1     -44.097  59.576 -56.976  1.00  0.00    -0.269 OA
BRANCH  20  23
HETATM   23  C   UNL     1     -44.908  58.614 -54.440  1.00  0.00     0.127 C 
BRANCH  23  24
HETATM   24  C   UNL     1     -44.741  57.799 -53.143  1.00  0.00     0.058 C 
BRANCH  24  25
HETATM   25  C   UNL     1     -43.608  58.232 -52.239  1.00  0.00    -0.054 A 
HETATM   26  C   UNL     1     -42.746  57.287 -51.663  1.00  0.00     0.046 A 
HETATM   27  C   UNL     1     -41.653  57.675 -50.878  1.00  0.00     0.102 A 
HETATM   28  C   UNL     1     -41.406  59.044 -50.664  1.00  0.00     0.101 A 
HETATM   29  C   UNL     1     -42.249  59.992 -51.252  1.00  0.00     0.040 A 
HETATM   30  C   UNL     1     -43.337  59.588 -52.036  1.00  0.00     0.010 A 
BRANCH  27  31
HETATM   31  O   UNL     1     -40.784  56.795 -50.281  1.00  0.00    -0.353 OA
HETATM   32  C   UNL     1     -41.357  55.763 -49.485  1.00  0.00     0.210 C 
ENDBRANCH  27  31
BRANCH  28  33
HETATM   33  O   UNL     1     -40.315  59.344 -49.886  1.00  0.00    -0.353 OA
HETATM   34  C   UNL     1     -39.093  59.630 -50.548  1.00  0.00     0.210 C 
ENDBRANCH  28  33
ENDBRANCH  24  25
ENDBRANCH  23  24
ENDBRANCH  20  23
ENDBRANCH   3  19
TORSDOF 10
ENDMDL
MODEL 9
REMARK VINA RESULT:      -6.6      3.429      6.589
REMARK  10 active torsions:
REMARK  status: ('A' for Active; 'I' for Inactive)
REMARK    1  A    between atoms: C_2  and  N_3 
REMARK    2  A    between atoms: N_3  and  N_4 
REMARK       I    between atoms: N_4  and  C_5 
REMARK    3  A    between atoms: C_5  and  C_6 
REMARK    4  A    between atoms: C_9  and  N_10 
REMARK    5  A    between atoms: C_14  and  C_15 
REMARK       I    between atoms: C_15  and  N_16 
REMARK    6  A    between atoms: N_16  and  C_17 
REMARK    7  A    between atoms: C_17  and  C_18 
REMARK    8  A    between atoms: C_18  and  C_19 
REMARK    9  A    between atoms: C_21  and  O_22 
REMARK   10  A    between atoms: C_24  and  O_25 
ROOT
HETATM    1  C   UNL     1     -44.792  60.970 -54.205  1.00  0.00     0.063 C 
HETATM    2  C   UNL     1     -44.797  59.510 -54.591  1.00  0.00     0.007 C 
HETATM    3  C   UNL     1     -43.956  58.658 -53.967  1.00  0.00     0.094 C 
ENDROOT
BRANCH   2   4
HETATM    4  N   UNL     1     -45.731  59.145 -55.553  1.00  0.00    -0.207 NA
HETATM    5  H   UNL     1     -46.488  58.552 -55.156  1.00  0.00     0.152 HD
BRANCH   4   6
HETATM    6  N   UNL     1     -45.289  58.599 -56.779  1.00  0.00    -0.283 N 
HETATM    7  C   UNL     1     -46.279  58.262 -57.693  1.00  0.00     0.266 C 
HETATM    8  O   UNL     1     -47.451  58.616 -57.589  1.00  0.00    -0.266 OA
HETATM    9  H   UNL     1     -44.440  58.048 -56.732  1.00  0.00     0.184 HD
BRANCH   7  10
HETATM   10  C   UNL     1     -45.866  57.357 -58.802  1.00  0.00     0.033 A 
HETATM   11  C   UNL     1     -44.533  56.987 -59.013  1.00  0.00     0.019 A 
HETATM   12  C   UNL     1     -44.210  56.101 -60.047  1.00  0.00     0.024 A 
HETATM   13  C   UNL     1     -45.195  55.614 -60.912  1.00  0.00     0.005 A 
HETATM   14  C   UNL     1     -46.526  55.958 -60.671  1.00  0.00     0.024 A 
HETATM   15  C   UNL     1     -46.861  56.843 -59.641  1.00  0.00     0.019 A 
BRANCH  13  16
HETATM   16  N   UNL     1     -44.881  54.626 -61.850  1.00  0.00    -0.303 NA
HETATM   17  H   UNL     1     -44.120  54.015 -61.570  1.00  0.00     0.124 HD
HETATM   18  H   UNL     1     -44.755  54.984 -62.793  1.00  0.00     0.124 HD
ENDBRANCH  13  16
ENDBRANCH   7  10
ENDBRANCH   4   6
ENDBRANCH   2   4
BRANCH   3  19
HETATM   19  C   UNL     1     -43.916  57.214 -54.299  1.00  0.00     0.242 C 
HETATM   20  N   UNL     1     -42.642  56.728 -54.473  1.00  0.00    -0.357 N 
HETATM   21  H   UNL     1     -41.854  57.359 -54.426  1.00  0.00     0.162 HD
HETATM   22  O   UNL     1     -44.936  56.553 -54.447  1.00  0.00    -0.269 OA
BRANCH  20  23
HETATM   23  C   UNL     1     -42.416  55.391 -55.007  1.00  0.00     0.127 C 
BRANCH  23  24
HETATM   24  C   UNL     1     -40.926  55.002 -54.963  1.00  0.00     0.058 C 
BRANCH  24  25
HETATM   25  C   UNL     1     -40.549  53.966 -53.927  1.00  0.00    -0.054 A 
HETATM   26  C   UNL     1     -40.723  54.221 -52.559  1.00  0.00     0.046 A 
HETATM   27  C   UNL     1     -40.443  53.249 -51.591  1.00  0.00     0.102 A 
HETATM   28  C   UNL     1     -39.981  51.983 -51.995  1.00  0.00     0.101 A 
HETATM   29  C   UNL     1     -39.825  51.715 -53.359  1.00  0.00     0.040 A 
HETATM   30  C   UNL     1     -40.112  52.697 -54.315  1.00  0.00     0.010 A 
BRANCH  27  31
HETATM   31  O   UNL     1     -40.583  53.447 -50.239  1.00  0.00    -0.353 OA
HETATM   32  C   UNL     1     -39.657  54.332 -49.617  1.00  0.00     0.210 C 
ENDBRANCH  27  31
BRANCH  28  33
HETATM   33  O   UNL     1     -39.731  51.083 -50.989  1.00  0.00    -0.353 OA
HETATM   34  C   UNL     1     -39.550  49.723 -51.350  1.00  0.00     0.210 C 
ENDBRANCH  28  33
ENDBRANCH  24  25
ENDBRANCH  23  24
ENDBRANCH  20  23
ENDBRANCH   3  19
TORSDOF 10
ENDMDL
MODEL 10
REMARK VINA RESULT:      -6.6      2.574      6.297
REMARK  10 active torsions:
REMARK  status: ('A' for Active; 'I' for Inactive)
REMARK    1  A    between atoms: C_2  and  N_3 
REMARK    2  A    between atoms: N_3  and  N_4 
REMARK       I    between atoms: N_4  and  C_5 
REMARK    3  A    between atoms: C_5  and  C_6 
REMARK    4  A    between atoms: C_9  and  N_10 
REMARK    5  A    between atoms: C_14  and  C_15 
REMARK       I    between atoms: C_15  and  N_16 
REMARK    6  A    between atoms: N_16  and  C_17 
REMARK    7  A    between atoms: C_17  and  C_18 
REMARK    8  A    between atoms: C_18  and  C_19 
REMARK    9  A    between atoms: C_21  and  O_22 
REMARK   10  A    between atoms: C_24  and  O_25 
ROOT
HETATM    1  C   UNL     1     -41.007  56.811 -50.016  1.00  0.00     0.063 C 
HETATM    2  C   UNL     1     -41.416  57.254 -51.401  1.00  0.00     0.007 C 
HETATM    3  C   UNL     1     -41.407  58.569 -51.704  1.00  0.00     0.094 C 
ENDROOT
BRANCH   2   4
HETATM    4  N   UNL     1     -41.729  56.233 -52.291  1.00  0.00    -0.207 NA
HETATM    5  H   UNL     1     -42.730  55.957 -52.231  1.00  0.00     0.152 HD
BRANCH   4   6
HETATM    6  N   UNL     1     -40.917  55.078 -52.336  1.00  0.00    -0.283 N 
HETATM    7  C   UNL     1     -41.164  54.194 -53.379  1.00  0.00     0.266 C 
HETATM    8  O   UNL     1     -41.860  54.469 -54.353  1.00  0.00    -0.266 OA
HETATM    9  H   UNL     1     -40.611  54.722 -51.438  1.00  0.00     0.184 HD
BRANCH   7  10
HETATM   10  C   UNL     1     -40.595  52.827 -53.227  1.00  0.00     0.033 A 
HETATM   11  C   UNL     1     -40.037  52.373 -52.027  1.00  0.00     0.019 A 
HETATM   12  C   UNL     1     -39.554  51.063 -51.932  1.00  0.00     0.024 A 
HETATM   13  C   UNL     1     -39.572  50.208 -53.038  1.00  0.00     0.005 A 
HETATM   14  C   UNL     1     -40.165  50.655 -54.220  1.00  0.00     0.024 A 
HETATM   15  C   UNL     1     -40.650  51.962 -54.326  1.00  0.00     0.019 A 
BRANCH  13  16
HETATM   16  N   UNL     1     -39.216  48.863 -52.893  1.00  0.00    -0.303 NA
HETATM   17  H   UNL     1     -39.574  48.428 -52.048  1.00  0.00     0.124 HD
HETATM   18  H   UNL     1     -38.222  48.689 -53.018  1.00  0.00     0.124 HD
ENDBRANCH  13  16
ENDBRANCH   7  10
ENDBRANCH   4   6
ENDBRANCH   2   4
BRANCH   3  19
HETATM   19  C   UNL     1     -41.794  59.065 -53.047  1.00  0.00     0.242 C 
HETATM   20  N   UNL     1     -43.100  58.786 -53.377  1.00  0.00    -0.357 N 
HETATM   21  H   UNL     1     -43.671  58.240 -52.747  1.00  0.00     0.162 HD
HETATM   22  O   UNL     1     -40.996  59.620 -53.789  1.00  0.00    -0.269 OA
BRANCH  20  23
HETATM   23  C   UNL     1     -43.595  59.007 -54.730  1.00  0.00     0.127 C 
BRANCH  23  24
HETATM   24  C   UNL     1     -43.326  57.795 -55.642  1.00  0.00     0.058 C 
BRANCH  24  25
HETATM   25  C   UNL     1     -42.842  58.119 -57.038  1.00  0.00    -0.054 A 
HETATM   26  C   UNL     1     -43.168  57.293 -58.123  1.00  0.00     0.046 A 
HETATM   27  C   UNL     1     -42.785  57.616 -59.431  1.00  0.00     0.102 A 
HETATM   28  C   UNL     1     -42.059  58.797 -59.668  1.00  0.00     0.101 A 
HETATM   29  C   UNL     1     -41.748  59.637 -58.593  1.00  0.00     0.040 A 
HETATM   30  C   UNL     1     -42.140  59.302 -57.291  1.00  0.00     0.010 A 
BRANCH  27  31
HETATM   31  O   UNL     1     -43.067  56.839 -60.528  1.00  0.00    -0.353 OA
HETATM   32  C   UNL     1     -44.228  56.019 -60.457  1.00  0.00     0.210 C 
ENDBRANCH  27  31
BRANCH  28  33
HETATM   33  O   UNL     1     -41.722  59.045 -60.975  1.00  0.00    -0.353 OA
HETATM   34  C   UNL     1     -42.108  60.293 -61.530  1.00  0.00     0.210 C 
ENDBRANCH  28  33
ENDBRANCH  24  25
ENDBRANCH  23  24
ENDBRANCH  20  23
ENDBRANCH   3  19
TORSDOF 10
ENDMDL
