MODEL 1
REMARK VINA RESULT:      -9.0      0.000      0.000
REMARK  8 active torsions:
REMARK  status: ('A' for Active; 'I' for Inactive)
REMARK    1  A    between atoms: C_3  and  S_4 
REMARK    2  A    between atoms: S_4  and  C_5 
REMARK    3  A    between atoms: C_5  and  C_6 
REMARK       I    between atoms: C_6  and  N_7 
REMARK    4  A    between atoms: N_7  and  C_8 
REMARK    5  A    between atoms: C_8  and  C_9 
REMARK    6  A    between atoms: C_18  and  C_19 
REMARK    7  A    between atoms: C_19  and  O_20 
REMARK    8  A    between atoms: O_20  and  C_21 
ROOT
HETATM    1  C   UNL     1     -43.147  60.152 -51.699  1.00  0.00     0.160 C 
HETATM    2  N   UNL     1     -44.189  59.298 -51.192  1.00  0.00    -0.314 N 
HETATM    3  C   UNL     1     -45.315  59.663 -50.511  1.00  0.00     0.191 A 
HETATM    4  N   UNL     1     -46.037  58.599 -50.243  1.00  0.00    -0.123 NA
HETATM    5  N   UNL     1     -45.364  57.505 -50.720  1.00  0.00    -0.132 NA
HETATM    6  C   UNL     1     -44.249  57.925 -51.291  1.00  0.00     0.154 A 
ENDROOT
BRANCH   3   7
HETATM    7  S   UNL     1     -45.689  61.280 -50.035  1.00  0.00    -0.081 SA
BRANCH   7   8
HETATM    8  C   UNL     1     -44.881  61.367 -48.412  1.00  0.00     0.185 C 
BRANCH   8   9
HETATM    9  C   UNL     1     -45.803  61.913 -47.333  1.00  0.00     0.227 C 
HETATM   10  N   UNL     1     -45.270  62.908 -46.551  1.00  0.00    -0.356 N 
HETATM   11  H   UNL     1     -44.306  63.192 -46.722  1.00  0.00     0.162 HD
HETATM   12  O   UNL     1     -46.924  61.440 -47.144  1.00  0.00    -0.273 OA
BRANCH  10  13
HETATM   13  C   UNL     1     -45.928  63.411 -45.369  1.00  0.00     0.161 C 
BRANCH  13  14
HETATM   14  C   UNL     1     -45.000  63.485 -44.183  1.00  0.00    -0.041 A 
HETATM   15  C   UNL     1     -45.106  64.550 -43.274  1.00  0.00     0.009 A 
HETATM   16  C   UNL     1     -44.277  64.615 -42.153  1.00  0.00     0.001 A 
HETATM   17  C   UNL     1     -43.332  63.617 -41.925  1.00  0.00     0.000 A 
HETATM   18  C   UNL     1     -43.217  62.553 -42.816  1.00  0.00     0.001 A 
HETATM   19  C   UNL     1     -44.049  62.483 -43.936  1.00  0.00     0.009 A 
ENDBRANCH  13  14
ENDBRANCH  10  13
ENDBRANCH   8   9
ENDBRANCH   7   8
ENDBRANCH   3   7
BRANCH   6  20
HETATM   20  C   UNL     1     -43.209  57.067 -51.923  1.00  0.00     0.256 C 
BRANCH  20  21
HETATM   21  O   UNL     1     -42.506  56.428 -50.857  1.00  0.00    -0.344 OA
BRANCH  21  22
HETATM   22  C   UNL     1     -41.782  55.324 -51.217  1.00  0.00     0.069 A 
HETATM   23  C   UNL     1     -41.880  54.671 -52.446  1.00  0.00     0.044 A 
HETATM   24  C   UNL     1     -41.096  53.535 -52.716  1.00  0.00    -0.049 A 
HETATM   25  C   UNL     1     -40.231  53.036 -51.726  1.00  0.00    -0.052 A 
HETATM   26  C   UNL     1     -41.256  52.834 -54.043  1.00  0.00     0.039 C 
HETATM   27  C   UNL     1     -39.342  51.843 -51.981  1.00  0.00     0.039 C 
HETATM   28  C   UNL     1     -40.148  53.696 -50.491  1.00  0.00     0.010 A 
HETATM   29  C   UNL     1     -39.802  50.993 -53.163  1.00  0.00     0.005 C 
HETATM   30  C   UNL     1     -40.111  51.876 -54.366  1.00  0.00     0.005 C 
HETATM   31  C   UNL     1     -40.929  54.823 -50.237  1.00  0.00     0.037 A 
ENDBRANCH  21  22
ENDBRANCH  20  21
ENDBRANCH   6  20
TORSDOF 8
ENDMDL
MODEL 2
REMARK VINA RESULT:      -8.9      5.470      8.900
REMARK  8 active torsions:
REMARK  status: ('A' for Active; 'I' for Inactive)
REMARK    1  A    between atoms: C_3  and  S_4 
REMARK    2  A    between atoms: S_4  and  C_5 
REMARK    3  A    between atoms: C_5  and  C_6 
REMARK       I    between atoms: C_6  and  N_7 
REMARK    4  A    between atoms: N_7  and  C_8 
REMARK    5  A    between atoms: C_8  and  C_9 
REMARK    6  A    between atoms: C_18  and  C_19 
REMARK    7  A    between atoms: C_19  and  O_20 
REMARK    8  A    between atoms: O_20  and  C_21 
ROOT
HETATM    1  C   UNL     1     -44.126  57.055 -51.733  1.00  0.00     0.160 C 
HETATM    2  N   UNL     1     -42.924  57.708 -51.285  1.00  0.00    -0.314 N 
HETATM    3  C   UNL     1     -42.568  59.017 -51.454  1.00  0.00     0.191 A 
HETATM    4  N   UNL     1     -41.410  59.240 -50.877  1.00  0.00    -0.123 NA
HETATM    5  N   UNL     1     -40.969  58.055 -50.349  1.00  0.00    -0.132 NA
HETATM    6  C   UNL     1     -41.880  57.131 -50.595  1.00  0.00     0.154 A 
ENDROOT
BRANCH   3   7
HETATM    7  S   UNL     1     -43.492  60.174 -52.341  1.00  0.00    -0.081 SA
BRANCH   7   8
HETATM    8  C   UNL     1     -42.436  60.430 -53.795  1.00  0.00     0.185 C 
BRANCH   8   9
HETATM    9  C   UNL     1     -42.013  59.121 -54.444  1.00  0.00     0.227 C 
HETATM   10  N   UNL     1     -42.992  58.477 -55.161  1.00  0.00    -0.356 N 
HETATM   11  H   UNL     1     -43.922  58.892 -55.189  1.00  0.00     0.162 HD
HETATM   12  O   UNL     1     -40.888  58.653 -54.276  1.00  0.00    -0.273 OA
BRANCH  10  13
HETATM   13  C   UNL     1     -42.826  57.142 -55.685  1.00  0.00     0.161 C 
BRANCH  13  14
HETATM   14  C   UNL     1     -42.632  57.134 -57.181  1.00  0.00    -0.041 A 
HETATM   15  C   UNL     1     -42.994  56.003 -57.929  1.00  0.00     0.009 A 
HETATM   16  C   UNL     1     -42.852  55.993 -59.318  1.00  0.00     0.001 A 
HETATM   17  C   UNL     1     -42.347  57.112 -59.977  1.00  0.00     0.000 A 
HETATM   18  C   UNL     1     -41.986  58.242 -59.247  1.00  0.00     0.001 A 
HETATM   19  C   UNL     1     -42.132  58.257 -57.859  1.00  0.00     0.009 A 
ENDBRANCH  13  14
ENDBRANCH  10  13
ENDBRANCH   8   9
ENDBRANCH   7   8
ENDBRANCH   3   7
BRANCH   6  20
HETATM   20  C   UNL     1     -41.798  55.694 -50.216  1.00  0.00     0.256 C 
BRANCH  20  21
HETATM   21  O   UNL     1     -40.473  55.265 -50.531  1.00  0.00    -0.344 OA
BRANCH  21  22
HETATM   22  C   UNL     1     -40.395  54.205 -51.394  1.00  0.00     0.069 A 
HETATM   23  C   UNL     1     -39.949  52.928 -51.052  1.00  0.00     0.044 A 
HETATM   24  C   UNL     1     -39.898  51.907 -52.017  1.00  0.00    -0.049 A 
HETATM   25  C   UNL     1     -40.269  52.186 -53.345  1.00  0.00    -0.052 A 
HETATM   26  C   UNL     1     -39.375  50.548 -51.617  1.00  0.00     0.039 C 
HETATM   27  C   UNL     1     -40.267  51.114 -54.407  1.00  0.00     0.039 C 
HETATM   28  C   UNL     1     -40.706  53.475 -53.678  1.00  0.00     0.010 A 
HETATM   29  C   UNL     1     -39.412  49.903 -54.038  1.00  0.00     0.005 C 
HETATM   30  C   UNL     1     -39.721  49.446 -52.618  1.00  0.00     0.005 C 
HETATM   31  C   UNL     1     -40.755  54.479 -52.711  1.00  0.00     0.037 A 
ENDBRANCH  21  22
ENDBRANCH  20  21
ENDBRANCH   6  20
TORSDOF 8
ENDMDL
MODEL 3
REMARK VINA RESULT:      -8.8      5.161      7.807
REMARK  8 active torsions:
REMARK  status: ('A' for Active; 'I' for Inactive)
REMARK    1  A    between atoms: C_3  and  S_4 
REMARK    2  A    between atoms: S_4  and  C_5 
REMARK    3  A    between atoms: C_5  and  C_6 
REMARK       I    between atoms: C_6  and  N_7 
REMARK    4  A    between atoms: N_7  and  C_8 
REMARK    5  A    between atoms: C_8  and  C_9 
REMARK    6  A    between atoms: C_18  and  C_19 
REMARK    7  A    between atoms: C_19  and  O_20 
REMARK    8  A    between atoms: O_20  and  C_21 
ROOT
HETATM    1  C   UNL     1     -43.838  57.939 -51.313  1.00  0.00     0.160 C 
HETATM    2  N   UNL     1     -42.511  58.463 -51.119  1.00  0.00    -0.314 N 
HETATM    3  C   UNL     1     -42.100  59.762 -51.217  1.00  0.00     0.191 A 
HETATM    4  N   UNL     1     -40.819  59.844 -50.940  1.00  0.00    -0.123 NA
HETATM    5  N   UNL     1     -40.361  58.577 -50.690  1.00  0.00    -0.132 NA
HETATM    6  C   UNL     1     -41.380  57.744 -50.800  1.00  0.00     0.154 A 
ENDROOT
BRANCH   3   7
HETATM    7  S   UNL     1     -43.116  61.076 -51.687  1.00  0.00    -0.081 SA
BRANCH   7   8
HETATM    8  C   UNL     1     -42.805  61.142 -53.475  1.00  0.00     0.185 C 
BRANCH   8   9
HETATM    9  C   UNL     1     -43.704  60.196 -54.256  1.00  0.00     0.227 C 
HETATM   10  N   UNL     1     -43.052  59.320 -55.090  1.00  0.00    -0.356 N 
HETATM   11  H   UNL     1     -42.036  59.376 -55.150  1.00  0.00     0.162 HD
HETATM   12  O   UNL     1     -44.930  60.265 -54.183  1.00  0.00    -0.273 OA
BRANCH  10  13
HETATM   13  C   UNL     1     -43.746  58.482 -56.038  1.00  0.00     0.161 C 
BRANCH  13  14
HETATM   14  C   UNL     1     -43.533  57.013 -55.769  1.00  0.00    -0.041 A 
HETATM   15  C   UNL     1     -44.028  56.437 -54.589  1.00  0.00     0.009 A 
HETATM   16  C   UNL     1     -43.869  55.072 -54.341  1.00  0.00     0.001 A 
HETATM   17  C   UNL     1     -43.214  54.266 -55.269  1.00  0.00     0.000 A 
HETATM   18  C   UNL     1     -42.721  54.823 -56.446  1.00  0.00     0.001 A 
HETATM   19  C   UNL     1     -42.883  56.187 -56.699  1.00  0.00     0.009 A 
ENDBRANCH  13  14
ENDBRANCH  10  13
ENDBRANCH   8   9
ENDBRANCH   7   8
ENDBRANCH   3   7
BRANCH   6  20
HETATM   20  C   UNL     1     -41.327  56.266 -50.630  1.00  0.00     0.256 C 
BRANCH  20  21
HETATM   21  O   UNL     1     -41.166  55.711 -51.936  1.00  0.00    -0.344 OA
BRANCH  21  22
HETATM   22  C   UNL     1     -40.744  54.410 -51.967  1.00  0.00     0.069 A 
HETATM   23  C   UNL     1     -40.692  53.614 -53.113  1.00  0.00     0.044 A 
HETATM   24  C   UNL     1     -40.251  52.282 -53.038  1.00  0.00    -0.049 A 
HETATM   25  C   UNL     1     -39.889  51.738 -51.792  1.00  0.00    -0.052 A 
HETATM   26  C   UNL     1     -40.244  51.441 -54.292  1.00  0.00     0.039 C 
HETATM   27  C   UNL     1     -39.373  50.325 -51.666  1.00  0.00     0.039 C 
HETATM   28  C   UNL     1     -39.954  52.544 -50.647  1.00  0.00     0.010 A 
HETATM   29  C   UNL     1     -39.724  49.448 -52.866  1.00  0.00     0.005 C 
HETATM   30  C   UNL     1     -39.404  50.172 -54.167  1.00  0.00     0.005 C 
HETATM   31  C   UNL     1     -40.391  53.866 -50.735  1.00  0.00     0.037 A 
ENDBRANCH  21  22
ENDBRANCH  20  21
ENDBRANCH   6  20
TORSDOF 8
ENDMDL
MODEL 4
REMARK VINA RESULT:      -8.8      6.379     10.549
REMARK  8 active torsions:
REMARK  status: ('A' for Active; 'I' for Inactive)
REMARK    1  A    between atoms: C_3  and  S_4 
REMARK    2  A    between atoms: S_4  and  C_5 
REMARK    3  A    between atoms: C_5  and  C_6 
REMARK       I    between atoms: C_6  and  N_7 
REMARK    4  A    between atoms: N_7  and  C_8 
REMARK    5  A    between atoms: C_8  and  C_9 
REMARK    6  A    between atoms: C_18  and  C_19 
REMARK    7  A    between atoms: C_19  and  O_20 
REMARK    8  A    between atoms: O_20  and  C_21 
ROOT
HETATM    1  C   UNL     1     -44.678  57.302 -53.398  1.00  0.00     0.160 C 
HETATM    2  N   UNL     1     -43.360  56.737 -53.528  1.00  0.00    -0.314 N 
HETATM    3  C   UNL     1     -42.717  55.901 -52.658  1.00  0.00     0.191 A 
HETATM    4  N   UNL     1     -41.540  55.579 -53.141  1.00  0.00    -0.123 NA
HETATM    5  N   UNL     1     -41.379  56.238 -54.332  1.00  0.00    -0.132 NA
HETATM    6  C   UNL     1     -42.475  56.937 -54.565  1.00  0.00     0.154 A 
ENDROOT
BRANCH   3   7
HETATM    7  S   UNL     1     -43.353  55.400 -51.133  1.00  0.00    -0.081 SA
BRANCH   7   8
HETATM    8  C   UNL     1     -41.962  55.775 -50.029  1.00  0.00     0.185 C 
BRANCH   8   9
HETATM    9  C   UNL     1     -41.192  54.529 -49.621  1.00  0.00     0.227 C 
HETATM   10  N   UNL     1     -40.602  53.838 -50.652  1.00  0.00    -0.356 N 
HETATM   11  H   UNL     1     -40.737  54.181 -51.602  1.00  0.00     0.162 HD
HETATM   12  O   UNL     1     -41.162  54.143 -48.453  1.00  0.00    -0.273 OA
BRANCH  10  13
HETATM   13  C   UNL     1     -39.992  52.542 -50.476  1.00  0.00     0.161 C 
BRANCH  13  14
HETATM   14  C   UNL     1     -39.956  51.746 -51.757  1.00  0.00    -0.041 A 
HETATM   15  C   UNL     1     -40.216  52.377 -52.983  1.00  0.00     0.009 A 
HETATM   16  C   UNL     1     -40.153  51.662 -54.180  1.00  0.00     0.001 A 
HETATM   17  C   UNL     1     -39.829  50.307 -54.167  1.00  0.00     0.000 A 
HETATM   18  C   UNL     1     -39.565  49.668 -52.958  1.00  0.00     0.001 A 
HETATM   19  C   UNL     1     -39.623  50.383 -51.760  1.00  0.00     0.009 A 
ENDBRANCH  13  14
ENDBRANCH  10  13
ENDBRANCH   8   9
ENDBRANCH   7   8
ENDBRANCH   3   7
BRANCH   6  20
HETATM   20  C   UNL     1     -42.721  57.818 -55.739  1.00  0.00     0.256 C 
BRANCH  20  21
HETATM   21  O   UNL     1     -42.259  57.105 -56.887  1.00  0.00    -0.344 OA
BRANCH  21  22
HETATM   22  C   UNL     1     -43.209  56.858 -57.840  1.00  0.00     0.069 A 
HETATM   23  C   UNL     1     -44.349  57.635 -58.052  1.00  0.00     0.044 A 
HETATM   24  C   UNL     1     -45.272  57.290 -59.055  1.00  0.00    -0.049 A 
HETATM   25  C   UNL     1     -45.059  56.135 -59.829  1.00  0.00    -0.052 A 
HETATM   26  C   UNL     1     -46.513  58.134 -59.229  1.00  0.00     0.039 C 
HETATM   27  C   UNL     1     -46.001  55.745 -60.942  1.00  0.00     0.039 C 
HETATM   28  C   UNL     1     -43.915  55.358 -59.601  1.00  0.00     0.010 A 
HETATM   29  C   UNL     1     -47.373  56.408 -60.829  1.00  0.00     0.005 C 
HETATM   30  C   UNL     1     -47.223  57.899 -60.561  1.00  0.00     0.005 C 
HETATM   31  C   UNL     1     -43.005  55.712 -58.604  1.00  0.00     0.037 A 
ENDBRANCH  21  22
ENDBRANCH  20  21
ENDBRANCH   6  20
TORSDOF 8
ENDMDL
MODEL 5
REMARK VINA RESULT:      -8.7      7.006      9.719
REMARK  8 active torsions:
REMARK  status: ('A' for Active; 'I' for Inactive)
REMARK    1  A    between atoms: C_3  and  S_4 
REMARK    2  A    between atoms: S_4  and  C_5 
REMARK    3  A    between atoms: C_5  and  C_6 
REMARK       I    between atoms: C_6  and  N_7 
REMARK    4  A    between atoms: N_7  and  C_8 
REMARK    5  A    between atoms: C_8  and  C_9 
REMARK    6  A    between atoms: C_18  and  C_19 
REMARK    7  A    between atoms: C_19  and  O_20 
REMARK    8  A    between atoms: O_20  and  C_21 
ROOT
HETATM    1  C   UNL     1     -43.848  57.324 -53.998  1.00  0.00     0.160 C 
HETATM    2  N   UNL     1     -42.683  58.169 -53.966  1.00  0.00    -0.314 N 
HETATM    3  C   UNL     1     -42.554  59.438 -54.457  1.00  0.00     0.191 A 
HETATM    4  N   UNL     1     -41.346  59.888 -54.211  1.00  0.00    -0.123 NA
HETATM    5  N   UNL     1     -40.647  58.892 -53.582  1.00  0.00    -0.132 NA
HETATM    6  C   UNL     1     -41.452  57.855 -53.435  1.00  0.00     0.154 A 
ENDROOT
BRANCH   3   7
HETATM    7  S   UNL     1     -43.791  60.284 -55.315  1.00  0.00    -0.081 SA
BRANCH   7   8
HETATM    8  C   UNL     1     -42.804  61.442 -56.306  1.00  0.00     0.185 C 
BRANCH   8   9
HETATM    9  C   UNL     1     -42.132  60.767 -57.491  1.00  0.00     0.227 C 
HETATM   10  N   UNL     1     -42.977  60.096 -58.342  1.00  0.00    -0.356 N 
HETATM   11  H   UNL     1     -43.970  60.072 -58.116  1.00  0.00     0.162 HD
HETATM   12  O   UNL     1     -40.910  60.774 -57.629  1.00  0.00    -0.273 OA
BRANCH  10  13
HETATM   13  C   UNL     1     -42.500  59.248 -59.408  1.00  0.00     0.161 C 
BRANCH  13  14
HETATM   14  C   UNL     1     -42.847  57.797 -59.186  1.00  0.00    -0.041 A 
HETATM   15  C   UNL     1     -42.695  57.226 -57.914  1.00  0.00     0.009 A 
HETATM   16  C   UNL     1     -43.045  55.894 -57.684  1.00  0.00     0.001 A 
HETATM   17  C   UNL     1     -43.551  55.116 -58.724  1.00  0.00     0.000 A 
HETATM   18  C   UNL     1     -43.710  55.671 -59.991  1.00  0.00     0.001 A 
HETATM   19  C   UNL     1     -43.367  57.004 -60.221  1.00  0.00     0.009 A 
ENDBRANCH  13  14
ENDBRANCH  10  13
ENDBRANCH   8   9
ENDBRANCH   7   8
ENDBRANCH   3   7
BRANCH   6  20
HETATM   20  C   UNL     1     -41.095  56.548 -52.818  1.00  0.00     0.256 C 
BRANCH  20  21
HETATM   21  O   UNL     1     -40.932  55.622 -53.892  1.00  0.00    -0.344 OA
BRANCH  21  22
HETATM   22  C   UNL     1     -40.643  54.338 -53.515  1.00  0.00     0.069 A 
HETATM   23  C   UNL     1     -40.616  53.880 -52.197  1.00  0.00     0.044 A 
HETATM   24  C   UNL     1     -40.299  52.540 -51.914  1.00  0.00    -0.049 A 
HETATM   25  C   UNL     1     -39.974  51.664 -52.966  1.00  0.00    -0.052 A 
HETATM   26  C   UNL     1     -40.243  52.090 -50.473  1.00  0.00     0.039 C 
HETATM   27  C   UNL     1     -39.664  50.209 -52.715  1.00  0.00     0.039 C 
HETATM   28  C   UNL     1     -39.997  52.139 -54.285  1.00  0.00     0.010 A 
HETATM   29  C   UNL     1     -39.280  49.917 -51.266  1.00  0.00     0.005 C 
HETATM   30  C   UNL     1     -40.270  50.571 -50.311  1.00  0.00     0.005 C 
HETATM   31  C   UNL     1     -40.316  53.470 -54.554  1.00  0.00     0.037 A 
ENDBRANCH  21  22
ENDBRANCH  20  21
ENDBRANCH   6  20
TORSDOF 8
ENDMDL
MODEL 6
REMARK VINA RESULT:      -8.7      5.150      9.662
REMARK  8 active torsions:
REMARK  status: ('A' for Active; 'I' for Inactive)
REMARK    1  A    between atoms: C_3  and  S_4 
REMARK    2  A    between atoms: S_4  and  C_5 
REMARK    3  A    between atoms: C_5  and  C_6 
REMARK       I    between atoms: C_6  and  N_7 
REMARK    4  A    between atoms: N_7  and  C_8 
REMARK    5  A    between atoms: C_8  and  C_9 
REMARK    6  A    between atoms: C_18  and  C_19 
REMARK    7  A    between atoms: C_19  and  O_20 
REMARK    8  A    between atoms: O_20  and  C_21 
ROOT
HETATM    1  C   UNL     1     -43.261  59.632 -51.179  1.00  0.00     0.160 C 
HETATM    2  N   UNL     1     -42.102  59.338 -51.981  1.00  0.00    -0.314 N 
HETATM    3  C   UNL     1     -41.781  59.845 -53.208  1.00  0.00     0.191 A 
HETATM    4  N   UNL     1     -40.628  59.357 -53.602  1.00  0.00    -0.123 NA
HETATM    5  N   UNL     1     -40.192  58.483 -52.642  1.00  0.00    -0.132 NA
HETATM    6  C   UNL     1     -41.080  58.469 -51.665  1.00  0.00     0.154 A 
ENDROOT
BRANCH   3   7
HETATM    7  S   UNL     1     -42.781  60.925 -54.111  1.00  0.00    -0.081 SA
BRANCH   7   8
HETATM    8  C   UNL     1     -43.701  59.762 -55.159  1.00  0.00     0.185 C 
BRANCH   8   9
HETATM    9  C   UNL     1     -42.958  59.423 -56.442  1.00  0.00     0.227 C 
HETATM   10  N   UNL     1     -43.569  58.493 -57.248  1.00  0.00    -0.356 N 
HETATM   11  H   UNL     1     -44.444  58.080 -56.930  1.00  0.00     0.162 HD
HETATM   12  O   UNL     1     -41.856  59.909 -56.696  1.00  0.00    -0.273 OA
BRANCH  10  13
HETATM   13  C   UNL     1     -42.925  57.918 -58.404  1.00  0.00     0.161 C 
BRANCH  13  14
HETATM   14  C   UNL     1     -43.780  56.874 -59.077  1.00  0.00    -0.041 A 
HETATM   15  C   UNL     1     -44.883  57.263 -59.852  1.00  0.00     0.009 A 
HETATM   16  C   UNL     1     -45.664  56.310 -60.509  1.00  0.00     0.001 A 
HETATM   17  C   UNL     1     -45.353  54.956 -60.399  1.00  0.00     0.000 A 
HETATM   18  C   UNL     1     -44.259  54.555 -59.636  1.00  0.00     0.001 A 
HETATM   19  C   UNL     1     -43.473  55.507 -58.982  1.00  0.00     0.009 A 
ENDBRANCH  13  14
ENDBRANCH  10  13
ENDBRANCH   8   9
ENDBRANCH   7   8
ENDBRANCH   3   7
BRANCH   6  20
HETATM   20  C   UNL     1     -41.014  57.642 -50.429  1.00  0.00     0.256 C 
BRANCH  20  21
HETATM   21  O   UNL     1     -41.906  56.545 -50.625  1.00  0.00    -0.344 OA
BRANCH  21  22
HETATM   22  C   UNL     1     -41.317  55.384 -51.048  1.00  0.00     0.069 A 
HETATM   23  C   UNL     1     -41.485  54.817 -52.312  1.00  0.00     0.044 A 
HETATM   24  C   UNL     1     -40.841  53.613 -52.647  1.00  0.00    -0.049 A 
HETATM   25  C   UNL     1     -40.046  52.960 -51.688  1.00  0.00    -0.052 A 
HETATM   26  C   UNL     1     -41.077  53.011 -54.011  1.00  0.00     0.039 C 
HETATM   27  C   UNL     1     -39.304  51.686 -52.011  1.00  0.00     0.039 C 
HETATM   28  C   UNL     1     -39.892  53.535 -50.418  1.00  0.00     0.010 A 
HETATM   29  C   UNL     1     -39.856  50.964 -53.239  1.00  0.00     0.005 C 
HETATM   30  C   UNL     1     -40.052  51.943 -54.389  1.00  0.00     0.005 C 
HETATM   31  C   UNL     1     -40.534  54.731 -50.099  1.00  0.00     0.037 A 
ENDBRANCH  21  22
ENDBRANCH  20  21
ENDBRANCH   6  20
TORSDOF 8
ENDMDL
MODEL 7
REMARK VINA RESULT:      -8.7      7.580     10.370
REMARK  8 active torsions:
REMARK  status: ('A' for Active; 'I' for Inactive)
REMARK    1  A    between atoms: C_3  and  S_4 
REMARK    2  A    between atoms: S_4  and  C_5 
REMARK    3  A    between atoms: C_5  and  C_6 
REMARK       I    between atoms: C_6  and  N_7 
REMARK    4  A    between atoms: N_7  and  C_8 
REMARK    5  A    between atoms: C_8  and  C_9 
REMARK    6  A    between atoms: C_18  and  C_19 
REMARK    7  A    between atoms: C_19  and  O_20 
REMARK    8  A    between atoms: O_20  and  C_21 
ROOT
HETATM    1  C   UNL     1     -43.821  57.849 -56.257  1.00  0.00     0.160 C 
HETATM    2  N   UNL     1     -42.783  58.294 -55.363  1.00  0.00    -0.314 N 
HETATM    3  C   UNL     1     -42.274  59.555 -55.230  1.00  0.00     0.191 A 
HETATM    4  N   UNL     1     -41.360  59.567 -54.288  1.00  0.00    -0.123 NA
HETATM    5  N   UNL     1     -41.231  58.289 -53.811  1.00  0.00    -0.132 NA
HETATM    6  C   UNL     1     -42.088  57.521 -54.460  1.00  0.00     0.154 A 
ENDROOT
BRANCH   3   7
HETATM    7  S   UNL     1     -42.739  60.904 -56.203  1.00  0.00    -0.081 SA
BRANCH   7   8
HETATM    8  C   UNL     1     -41.546  60.785 -57.566  1.00  0.00     0.185 C 
BRANCH   8   9
HETATM    9  C   UNL     1     -42.153  60.170 -58.817  1.00  0.00     0.227 C 
HETATM   10  N   UNL     1     -41.728  58.897 -59.112  1.00  0.00    -0.356 N 
HETATM   11  H   UNL     1     -41.031  58.468 -58.505  1.00  0.00     0.162 HD
HETATM   12  O   UNL     1     -42.920  60.804 -59.540  1.00  0.00    -0.273 OA
BRANCH  10  13
HETATM   13  C   UNL     1     -42.053  58.232 -60.351  1.00  0.00     0.161 C 
BRANCH  13  14
HETATM   14  C   UNL     1     -43.182  57.245 -60.194  1.00  0.00    -0.041 A 
HETATM   15  C   UNL     1     -42.918  55.944 -59.738  1.00  0.00     0.009 A 
HETATM   16  C   UNL     1     -43.957  55.029 -59.555  1.00  0.00     0.001 A 
HETATM   17  C   UNL     1     -45.272  55.402 -59.824  1.00  0.00     0.000 A 
HETATM   18  C   UNL     1     -45.549  56.691 -60.273  1.00  0.00     0.001 A 
HETATM   19  C   UNL     1     -44.513  57.610 -60.452  1.00  0.00     0.009 A 
ENDBRANCH  13  14
ENDBRANCH  10  13
ENDBRANCH   8   9
ENDBRANCH   7   8
ENDBRANCH   3   7
BRANCH   6  20
HETATM   20  C   UNL     1     -42.268  56.055 -54.271  1.00  0.00     0.256 C 
BRANCH  20  21
HETATM   21  O   UNL     1     -41.066  55.435 -54.727  1.00  0.00    -0.344 OA
BRANCH  21  22
HETATM   22  C   UNL     1     -40.701  54.304 -54.048  1.00  0.00     0.069 A 
HETATM   23  C   UNL     1     -40.512  53.049 -54.629  1.00  0.00     0.044 A 
HETATM   24  C   UNL     1     -40.145  51.945 -53.840  1.00  0.00    -0.049 A 
HETATM   25  C   UNL     1     -39.998  52.102 -52.450  1.00  0.00    -0.052 A 
HETATM   26  C   UNL     1     -39.987  50.595 -54.498  1.00  0.00     0.039 C 
HETATM   27  C   UNL     1     -39.568  50.956 -51.566  1.00  0.00     0.039 C 
HETATM   28  C   UNL     1     -40.198  53.366 -51.877  1.00  0.00     0.010 A 
HETATM   29  C   UNL     1     -39.773  49.588 -52.213  1.00  0.00     0.005 C 
HETATM   30  C   UNL     1     -39.230  49.586 -53.636  1.00  0.00     0.005 C 
HETATM   31  C   UNL     1     -40.560  54.454 -52.671  1.00  0.00     0.037 A 
ENDBRANCH  21  22
ENDBRANCH  20  21
ENDBRANCH   6  20
TORSDOF 8
ENDMDL
MODEL 8
REMARK VINA RESULT:      -8.6      5.424      8.929
REMARK  8 active torsions:
REMARK  status: ('A' for Active; 'I' for Inactive)
REMARK    1  A    between atoms: C_3  and  S_4 
REMARK    2  A    between atoms: S_4  and  C_5 
REMARK    3  A    between atoms: C_5  and  C_6 
REMARK       I    between atoms: C_6  and  N_7 
REMARK    4  A    between atoms: N_7  and  C_8 
REMARK    5  A    between atoms: C_8  and  C_9 
REMARK    6  A    between atoms: C_18  and  C_19 
REMARK    7  A    between atoms: C_19  and  O_20 
REMARK    8  A    between atoms: O_20  and  C_21 
ROOT
HETATM    1  C   UNL     1     -41.269  58.573 -50.723  1.00  0.00     0.160 C 
HETATM    2  N   UNL     1     -42.477  57.972 -51.225  1.00  0.00    -0.314 N 
HETATM    3  C   UNL     1     -43.507  58.582 -51.883  1.00  0.00     0.191 A 
HETATM    4  N   UNL     1     -44.417  57.693 -52.205  1.00  0.00    -0.123 NA
HETATM    5  N   UNL     1     -44.007  56.479 -51.722  1.00  0.00    -0.132 NA
HETATM    6  C   UNL     1     -42.839  56.646 -51.129  1.00  0.00     0.154 A 
ENDROOT
BRANCH   3   7
HETATM    7  S   UNL     1     -43.601  60.279 -52.189  1.00  0.00    -0.081 SA
BRANCH   7   8
HETATM    8  C   UNL     1     -43.684  60.307 -54.003  1.00  0.00     0.185 C 
BRANCH   8   9
HETATM    9  C   UNL     1     -42.576  59.489 -54.648  1.00  0.00     0.227 C 
HETATM   10  N   UNL     1     -42.994  58.538 -55.546  1.00  0.00    -0.356 N 
HETATM   11  H   UNL     1     -43.995  58.425 -55.699  1.00  0.00     0.162 HD
HETATM   12  O   UNL     1     -41.397  59.638 -54.329  1.00  0.00    -0.273 OA
BRANCH  10  13
HETATM   13  C   UNL     1     -42.103  57.552 -56.111  1.00  0.00     0.161 C 
BRANCH  13  14
HETATM   14  C   UNL     1     -42.527  57.121 -57.492  1.00  0.00    -0.041 A 
HETATM   15  C   UNL     1     -42.187  57.902 -58.607  1.00  0.00     0.009 A 
HETATM   16  C   UNL     1     -42.542  57.499 -59.895  1.00  0.00     0.001 A 
HETATM   17  C   UNL     1     -43.242  56.310 -60.086  1.00  0.00     0.000 A 
HETATM   18  C   UNL     1     -43.584  55.522 -58.990  1.00  0.00     0.001 A 
HETATM   19  C   UNL     1     -43.225  55.921 -57.700  1.00  0.00     0.009 A 
ENDBRANCH  13  14
ENDBRANCH  10  13
ENDBRANCH   8   9
ENDBRANCH   7   8
ENDBRANCH   3   7
BRANCH   6  20
HETATM   20  C   UNL     1     -42.042  55.589 -50.448  1.00  0.00     0.256 C 
BRANCH  20  21
HETATM   21  O   UNL     1     -40.811  55.484 -51.163  1.00  0.00    -0.344 OA
BRANCH  21  22
HETATM   22  C   UNL     1     -40.652  54.329 -51.880  1.00  0.00     0.069 A 
HETATM   23  C   UNL     1     -40.135  53.137 -51.370  1.00  0.00     0.044 A 
HETATM   24  C   UNL     1     -40.003  52.005 -52.194  1.00  0.00    -0.049 A 
HETATM   25  C   UNL     1     -40.367  52.086 -53.551  1.00  0.00    -0.052 A 
HETATM   26  C   UNL     1     -39.405  50.745 -51.617  1.00  0.00     0.039 C 
HETATM   27  C   UNL     1     -40.280  50.889 -54.465  1.00  0.00     0.039 C 
HETATM   28  C   UNL     1     -40.877  53.292 -54.053  1.00  0.00     0.010 A 
HETATM   29  C   UNL     1     -39.360  49.792 -53.934  1.00  0.00     0.005 C 
HETATM   30  C   UNL     1     -39.665  49.504 -52.470  1.00  0.00     0.005 C 
HETATM   31  C   UNL     1     -41.005  54.407 -53.225  1.00  0.00     0.037 A 
ENDBRANCH  21  22
ENDBRANCH  20  21
ENDBRANCH   6  20
TORSDOF 8
ENDMDL
MODEL 9
REMARK VINA RESULT:      -8.5      1.844      2.796
REMARK  8 active torsions:
REMARK  status: ('A' for Active; 'I' for Inactive)
REMARK    1  A    between atoms: C_3  and  S_4 
REMARK    2  A    between atoms: S_4  and  C_5 
REMARK    3  A    between atoms: C_5  and  C_6 
REMARK       I    between atoms: C_6  and  N_7 
REMARK    4  A    between atoms: N_7  and  C_8 
REMARK    5  A    between atoms: C_8  and  C_9 
REMARK    6  A    between atoms: C_18  and  C_19 
REMARK    7  A    between atoms: C_19  and  O_20 
REMARK    8  A    between atoms: O_20  and  C_21 
ROOT
HETATM    1  C   UNL     1     -43.744  58.062 -51.245  1.00  0.00     0.160 C 
HETATM    2  N   UNL     1     -42.398  58.567 -51.327  1.00  0.00    -0.314 N 
HETATM    3  C   UNL     1     -41.996  59.831 -51.656  1.00  0.00     0.191 A 
HETATM    4  N   UNL     1     -40.687  59.910 -51.593  1.00  0.00    -0.123 NA
HETATM    5  N   UNL     1     -40.207  58.672 -51.254  1.00  0.00    -0.132 NA
HETATM    6  C   UNL     1     -41.238  57.862 -51.096  1.00  0.00     0.154 A 
ENDROOT
BRANCH   3   7
HETATM    7  S   UNL     1     -43.062  61.103 -52.130  1.00  0.00    -0.081 SA
BRANCH   7   8
HETATM    8  C   UNL     1     -43.148  62.081 -50.603  1.00  0.00     0.185 C 
BRANCH   8   9
HETATM    9  C   UNL     1     -44.443  61.854 -49.840  1.00  0.00     0.227 C 
HETATM   10  N   UNL     1     -44.646  62.685 -48.765  1.00  0.00    -0.356 N 
HETATM   11  H   UNL     1     -43.922  63.365 -48.537  1.00  0.00     0.162 HD
HETATM   12  O   UNL     1     -45.215  60.943 -50.137  1.00  0.00    -0.273 OA
BRANCH  10  13
HETATM   13  C   UNL     1     -45.721  62.494 -47.822  1.00  0.00     0.161 C 
BRANCH  13  14
HETATM   14  C   UNL     1     -45.225  62.362 -46.404  1.00  0.00    -0.041 A 
HETATM   15  C   UNL     1     -44.777  61.119 -45.930  1.00  0.00     0.009 A 
HETATM   16  C   UNL     1     -44.283  60.988 -44.631  1.00  0.00     0.001 A 
HETATM   17  C   UNL     1     -44.229  62.097 -43.789  1.00  0.00     0.000 A 
HETATM   18  C   UNL     1     -44.667  63.337 -44.247  1.00  0.00     0.001 A 
HETATM   19  C   UNL     1     -45.157  63.472 -45.548  1.00  0.00     0.009 A 
ENDBRANCH  13  14
ENDBRANCH  10  13
ENDBRANCH   8   9
ENDBRANCH   7   8
ENDBRANCH   3   7
BRANCH   6  20
HETATM   20  C   UNL     1     -41.172  56.416 -50.745  1.00  0.00     0.256 C 
BRANCH  20  21
HETATM   21  O   UNL     1     -41.403  55.693 -51.955  1.00  0.00    -0.344 OA
BRANCH  21  22
HETATM   22  C   UNL     1     -40.926  54.410 -51.965  1.00  0.00     0.069 A 
HETATM   23  C   UNL     1     -40.815  53.609 -53.103  1.00  0.00     0.044 A 
HETATM   24  C   UNL     1     -40.320  52.297 -53.006  1.00  0.00    -0.049 A 
HETATM   25  C   UNL     1     -39.963  51.779 -51.748  1.00  0.00    -0.052 A 
HETATM   26  C   UNL     1     -40.250  51.447 -54.253  1.00  0.00     0.039 C 
HETATM   27  C   UNL     1     -39.391  50.390 -51.598  1.00  0.00     0.039 C 
HETATM   28  C   UNL     1     -40.087  52.591 -50.612  1.00  0.00     0.010 A 
HETATM   29  C   UNL     1     -39.678  49.489 -52.798  1.00  0.00     0.005 C 
HETATM   30  C   UNL     1     -39.360  50.215 -54.098  1.00  0.00     0.005 C 
HETATM   31  C   UNL     1     -40.578  53.892 -50.721  1.00  0.00     0.037 A 
ENDBRANCH  21  22
ENDBRANCH  20  21
ENDBRANCH   6  20
TORSDOF 8
ENDMDL
MODEL 10
REMARK VINA RESULT:      -8.5      6.479     10.395
REMARK  8 active torsions:
REMARK  status: ('A' for Active; 'I' for Inactive)
REMARK    1  A    between atoms: C_3  and  S_4 
REMARK    2  A    between atoms: S_4  and  C_5 
REMARK    3  A    between atoms: C_5  and  C_6 
REMARK       I    between atoms: C_6  and  N_7 
REMARK    4  A    between atoms: N_7  and  C_8 
REMARK    5  A    between atoms: C_8  and  C_9 
REMARK    6  A    between atoms: C_18  and  C_19 
REMARK    7  A    between atoms: C_19  and  O_20 
REMARK    8  A    between atoms: O_20  and  C_21 
ROOT
HETATM    1  C   UNL     1     -44.639  57.345 -53.776  1.00  0.00     0.160 C 
HETATM    2  N   UNL     1     -43.208  57.233 -53.664  1.00  0.00    -0.314 N 
HETATM    3  C   UNL     1     -42.493  56.342 -52.914  1.00  0.00     0.191 A 
HETATM    4  N   UNL     1     -41.208  56.538 -53.099  1.00  0.00    -0.123 NA
HETATM    5  N   UNL     1     -41.064  57.597 -53.955  1.00  0.00    -0.132 NA
HETATM    6  C   UNL     1     -42.268  58.018 -54.295  1.00  0.00     0.154 A 
ENDROOT
BRANCH   3   7
HETATM    7  S   UNL     1     -43.193  55.178 -51.849  1.00  0.00    -0.081 SA
BRANCH   7   8
HETATM    8  C   UNL     1     -42.360  55.582 -50.287  1.00  0.00     0.185 C 
BRANCH   8   9
HETATM    9  C   UNL     1     -41.103  54.754 -50.068  1.00  0.00     0.227 C 
HETATM   10  N   UNL     1     -40.808  53.858 -51.067  1.00  0.00    -0.356 N 
HETATM   11  H   UNL     1     -41.448  53.787 -51.857  1.00  0.00     0.162 HD
HETATM   12  O   UNL     1     -40.443  54.846 -49.034  1.00  0.00    -0.273 OA
BRANCH  10  13
HETATM   13  C   UNL     1     -39.766  52.867 -50.944  1.00  0.00     0.161 C 
BRANCH  13  14
HETATM   14  C   UNL     1     -39.789  51.866 -52.072  1.00  0.00    -0.041 A 
HETATM   15  C   UNL     1     -39.540  50.510 -51.813  1.00  0.00     0.009 A 
HETATM   16  C   UNL     1     -39.592  49.567 -52.841  1.00  0.00     0.001 A 
HETATM   17  C   UNL     1     -39.893  49.967 -54.141  1.00  0.00     0.000 A 
HETATM   18  C   UNL     1     -40.146  51.309 -54.413  1.00  0.00     0.001 A 
HETATM   19  C   UNL     1     -40.100  52.253 -53.385  1.00  0.00     0.009 A 
ENDBRANCH  13  14
ENDBRANCH  10  13
ENDBRANCH   8   9
ENDBRANCH   7   8
ENDBRANCH   3   7
BRANCH   6  20
HETATM   20  C   UNL     1     -42.577  59.164 -55.195  1.00  0.00     0.256 C 
BRANCH  20  21
HETATM   21  O   UNL     1     -42.141  58.785 -56.501  1.00  0.00    -0.344 OA
BRANCH  21  22
HETATM   22  C   UNL     1     -43.103  58.219 -57.293  1.00  0.00     0.069 A 
HETATM   23  C   UNL     1     -42.933  57.059 -58.051  1.00  0.00     0.044 A 
HETATM   24  C   UNL     1     -43.984  56.563 -58.843  1.00  0.00    -0.049 A 
HETATM   25  C   UNL     1     -45.204  57.261 -58.895  1.00  0.00    -0.052 A 
HETATM   26  C   UNL     1     -43.750  55.327 -59.678  1.00  0.00     0.039 C 
HETATM   27  C   UNL     1     -46.374  56.748 -59.700  1.00  0.00     0.039 C 
HETATM   28  C   UNL     1     -45.359  58.429 -58.136  1.00  0.00     0.010 A 
HETATM   29  C   UNL     1     -45.970  55.733 -60.768  1.00  0.00     0.005 C 
HETATM   30  C   UNL     1     -45.041  54.680 -60.178  1.00  0.00     0.005 C 
HETATM   31  C   UNL     1     -44.310  58.910 -57.352  1.00  0.00     0.037 A 
ENDBRANCH  21  22
ENDBRANCH  20  21
ENDBRANCH   6  20
TORSDOF 8
ENDMDL
