MODEL 1
REMARK VINA RESULT:      -8.7      0.000      0.000
REMARK  12 active torsions:
REMARK  status: ('A' for Active; 'I' for Inactive)
REMARK    1  A    between atoms: C_2  and  N_3 
REMARK    2  A    between atoms: N_3  and  C_5 
REMARK    3  A    between atoms: N_3  and  C_25 
REMARK    4  A    between atoms: C_7  and  C_8 
REMARK    5  A    between atoms: C_8  and  C_9 
REMARK    6  A    between atoms: C_9  and  C_10 
REMARK    7  A    between atoms: C_18  and  C_19 
REMARK    8  A    between atoms: C_25  and  C_26 
REMARK    9  A    between atoms: C_28  and  N_29 
REMARK   10  A    between atoms: C_32  and  N_33 
REMARK   11  A    between atoms: C_39  and  O_40 
REMARK   12  A    between atoms: C_41  and  O_42 
ROOT
HETATM    1  N   UNL     1     -42.056  57.717 -52.151  1.00  0.00    -0.061 N 
HETATM    2  H   UNL     1     -42.593  56.844 -52.037  1.00  0.00     0.280 HD
ENDROOT
BRANCH   1   3
HETATM    3  C   UNL     1     -40.925  57.676 -51.121  1.00  0.00     0.180 C 
HETATM    4  C   UNL     1     -41.081  56.510 -50.150  1.00  0.00     0.039 C 
HETATM    5  C   UNL     1     -40.717  59.001 -50.393  1.00  0.00     0.039 C 
ENDBRANCH   1   3
BRANCH   1   6
HETATM    6  C   UNL     1     -42.952  58.912 -51.946  1.00  0.00     0.189 C 
HETATM    7  C   UNL     1     -43.795  59.321 -53.193  1.00  0.00     0.038 C 
HETATM    8  C   UNL     1     -44.983  59.604 -52.241  1.00  0.00    -0.010 C 
HETATM    9  C   UNL     1     -44.316  58.598 -51.269  1.00  0.00     0.038 C 
BRANCH   8  10
HETATM   10  C   UNL     1     -45.140  61.016 -51.674  1.00  0.00     0.012 C 
BRANCH  10  11
HETATM   11  C   UNL     1     -46.321  61.097 -50.701  1.00  0.00     0.079 C 
BRANCH  11  12
HETATM   12  C   UNL     1     -45.971  61.919 -49.509  1.00  0.00     0.105 A 
HETATM   13  N   UNL     1     -45.749  63.218 -49.491  1.00  0.00    -0.233 NA
HETATM   14  C   UNL     1     -45.438  63.521 -48.186  1.00  0.00     0.085 A 
HETATM   15  C   UNL     1     -45.484  62.388 -47.389  1.00  0.00     0.063 A 
HETATM   16  C   UNL     1     -45.099  64.745 -47.599  1.00  0.00     0.034 A 
HETATM   17  N   UNL     1     -45.836  61.382 -48.252  1.00  0.00    -0.343 N 
HETATM   18  C   UNL     1     -45.212  62.399 -46.018  1.00  0.00     0.039 A 
HETATM   19  H   UNL     1     -45.959  60.412 -48.000  1.00  0.00     0.167 HD
HETATM   20  C   UNL     1     -44.864  63.629 -45.413  1.00  0.00    -0.048 A 
HETATM   21  C   UNL     1     -44.815  64.782 -46.222  1.00  0.00     0.010 A 
BRANCH  20  22
HETATM   22  C   UNL     1     -44.555  63.670 -43.901  1.00  0.00    -0.024 C 
HETATM   23  C   UNL     1     -45.773  64.024 -43.019  1.00  0.00     0.019 C 
HETATM   24  C   UNL     1     -44.045  62.286 -43.442  1.00  0.00     0.019 C 
HETATM   25  C   UNL     1     -43.467  64.730 -43.619  1.00  0.00     0.019 C 
ENDBRANCH  20  22
ENDBRANCH  11  12
ENDBRANCH  10  11
ENDBRANCH   8  10
ENDBRANCH   1   6
BRANCH   1  26
HETATM   26  C   UNL     1     -41.594  57.723 -53.617  1.00  0.00     0.270 C 
BRANCH  26  27
HETATM   27  C   UNL     1     -41.722  56.333 -54.250  1.00  0.00     0.181 C 
HETATM   28  O   UNL     1     -40.645  55.463 -53.849  1.00  0.00    -0.354 OA
HETATM   29  C   UNL     1     -41.126  54.107 -54.112  1.00  0.00     0.262 C 
HETATM   30  C   UNL     1     -42.661  54.175 -54.253  1.00  0.00     0.198 C 
HETATM   31  C   UNL     1     -42.975  55.598 -53.812  1.00  0.00     0.181 C 
BRANCH  29  32
HETATM   32  N   UNL     1     -40.684  53.202 -53.073  1.00  0.00    -0.294 N 
HETATM   33  C   UNL     1     -40.307  51.909 -53.313  1.00  0.00     0.167 A 
HETATM   34  C   UNL     1     -39.914  51.415 -52.081  1.00  0.00     0.149 A 
HETATM   35  N   UNL     1     -40.321  51.268 -54.493  1.00  0.00    -0.222 NA
HETATM   36  C   UNL     1     -39.455  50.087 -52.057  1.00  0.00     0.155 A 
HETATM   37  N   UNL     1     -40.076  52.379 -51.103  1.00  0.00    -0.236 NA
HETATM   38  N   UNL     1     -39.454  49.388 -53.216  1.00  0.00    -0.222 NA
HETATM   39  C   UNL     1     -39.870  50.002 -54.345  1.00  0.00     0.237 A 
HETATM   40  C   UNL     1     -40.527  53.441 -51.738  1.00  0.00     0.214 A 
BRANCH  36  41
HETATM   41  N   UNL     1     -39.011  49.452 -50.910  1.00  0.00    -0.382 N 
HETATM   42  H   UNL     1     -39.349  49.851 -50.043  1.00  0.00     0.157 HD
HETATM   43  H   UNL     1     -38.999  48.443 -50.996  1.00  0.00     0.157 HD
ENDBRANCH  36  41
ENDBRANCH  29  32
BRANCH  30  44
HETATM   44  O   UNL     1     -43.064  54.036 -55.625  1.00  0.00    -0.388 OA
HETATM   45  H   UNL     1     -42.344  53.556 -56.085  1.00  0.00     0.210 HD
ENDBRANCH  30  44
BRANCH  31  46
HETATM   46  O   UNL     1     -44.131  56.144 -54.420  1.00  0.00    -0.390 OA
HETATM   47  H   UNL     1     -44.269  55.643 -55.255  1.00  0.00     0.210 HD
ENDBRANCH  31  46
ENDBRANCH  26  27
ENDBRANCH   1  26
TORSDOF 12
ENDMDL
MODEL 2
REMARK VINA RESULT:      -8.7      3.561      4.849
REMARK  12 active torsions:
REMARK  status: ('A' for Active; 'I' for Inactive)
REMARK    1  A    between atoms: C_2  and  N_3 
REMARK    2  A    between atoms: N_3  and  C_5 
REMARK    3  A    between atoms: N_3  and  C_25 
REMARK    4  A    between atoms: C_7  and  C_8 
REMARK    5  A    between atoms: C_8  and  C_9 
REMARK    6  A    between atoms: C_9  and  C_10 
REMARK    7  A    between atoms: C_18  and  C_19 
REMARK    8  A    between atoms: C_25  and  C_26 
REMARK    9  A    between atoms: C_28  and  N_29 
REMARK   10  A    between atoms: C_32  and  N_33 
REMARK   11  A    between atoms: C_39  and  O_40 
REMARK   12  A    between atoms: C_41  and  O_42 
ROOT
HETATM    1  N   UNL     1     -41.679  58.129 -52.279  1.00  0.00    -0.061 N 
HETATM    2  H   UNL     1     -42.460  57.459 -52.205  1.00  0.00     0.280 HD
ENDROOT
BRANCH   1   3
HETATM    3  C   UNL     1     -40.816  57.939 -51.030  1.00  0.00     0.180 C 
HETATM    4  C   UNL     1     -41.246  56.721 -50.219  1.00  0.00     0.039 C 
HETATM    5  C   UNL     1     -40.712  59.192 -50.166  1.00  0.00     0.039 C 
ENDBRANCH   1   3
BRANCH   1   6
HETATM    6  C   UNL     1     -42.207  59.537 -52.381  1.00  0.00     0.189 C 
HETATM    7  C   UNL     1     -42.333  60.087 -53.835  1.00  0.00     0.038 C 
HETATM    8  C   UNL     1     -43.669  60.750 -53.421  1.00  0.00    -0.010 C 
HETATM    9  C   UNL     1     -43.756  59.661 -52.323  1.00  0.00     0.038 C 
BRANCH   8  10
HETATM   10  C   UNL     1     -43.634  62.183 -52.886  1.00  0.00     0.012 C 
BRANCH  10  11
HETATM   11  C   UNL     1     -44.495  63.117 -53.743  1.00  0.00     0.079 C 
BRANCH  11  12
HETATM   12  C   UNL     1     -45.879  63.210 -53.200  1.00  0.00     0.105 A 
HETATM   13  N   UNL     1     -46.226  63.661 -52.011  1.00  0.00    -0.233 NA
HETATM   14  C   UNL     1     -47.594  63.530 -51.952  1.00  0.00     0.085 A 
HETATM   15  C   UNL     1     -48.093  63.001 -53.132  1.00  0.00     0.063 A 
HETATM   16  C   UNL     1     -48.487  63.836 -50.919  1.00  0.00     0.034 A 
HETATM   17  N   UNL     1     -46.984  62.815 -53.916  1.00  0.00    -0.343 N 
HETATM   18  C   UNL     1     -49.453  62.758 -53.352  1.00  0.00     0.039 A 
HETATM   19  H   UNL     1     -46.986  62.439 -54.852  1.00  0.00     0.167 HD
HETATM   20  C   UNL     1     -50.365  63.060 -52.314  1.00  0.00    -0.048 A 
HETATM   21  C   UNL     1     -49.859  63.596 -51.114  1.00  0.00     0.010 A 
BRANCH  20  22
HETATM   22  C   UNL     1     -51.871  62.799 -52.530  1.00  0.00    -0.024 C 
HETATM   23  C   UNL     1     -52.562  63.827 -53.453  1.00  0.00     0.019 C 
HETATM   24  C   UNL     1     -52.065  61.406 -53.170  1.00  0.00     0.019 C 
HETATM   25  C   UNL     1     -52.607  62.840 -51.172  1.00  0.00     0.019 C 
ENDBRANCH  20  22
ENDBRANCH  11  12
ENDBRANCH  10  11
ENDBRANCH   8  10
ENDBRANCH   1   6
BRANCH   1  26
HETATM   26  C   UNL     1     -40.980  57.792 -53.606  1.00  0.00     0.270 C 
BRANCH  26  27
HETATM   27  C   UNL     1     -41.405  56.416 -54.130  1.00  0.00     0.181 C 
HETATM   28  O   UNL     1     -40.413  55.408 -53.848  1.00  0.00    -0.354 OA
HETATM   29  C   UNL     1     -41.120  54.132 -53.955  1.00  0.00     0.262 C 
HETATM   30  C   UNL     1     -42.632  54.426 -53.864  1.00  0.00     0.198 C 
HETATM   31  C   UNL     1     -42.665  55.895 -53.464  1.00  0.00     0.181 C 
BRANCH  29  32
HETATM   32  N   UNL     1     -40.653  53.208 -52.945  1.00  0.00    -0.294 N 
HETATM   33  C   UNL     1     -40.330  51.905 -53.209  1.00  0.00     0.167 A 
HETATM   34  C   UNL     1     -39.889  51.392 -52.002  1.00  0.00     0.149 A 
HETATM   35  N   UNL     1     -40.428  51.271 -54.389  1.00  0.00    -0.222 NA
HETATM   36  C   UNL     1     -39.472  50.049 -52.008  1.00  0.00     0.155 A 
HETATM   37  N   UNL     1     -39.968  52.355 -51.013  1.00  0.00    -0.236 NA
HETATM   38  N   UNL     1     -39.556  49.357 -53.168  1.00  0.00    -0.222 NA
HETATM   39  C   UNL     1     -40.011  49.990 -54.271  1.00  0.00     0.237 A 
HETATM   40  C   UNL     1     -40.417  53.434 -51.619  1.00  0.00     0.214 A 
BRANCH  36  41
HETATM   41  N   UNL     1     -38.988  49.394 -50.888  1.00  0.00    -0.382 N 
HETATM   42  H   UNL     1     -39.469  49.612 -50.025  1.00  0.00     0.157 HD
HETATM   43  H   UNL     1     -38.751  48.426 -51.068  1.00  0.00     0.157 HD
ENDBRANCH  36  41
ENDBRANCH  29  32
BRANCH  30  44
HETATM   44  O   UNL     1     -43.264  54.302 -55.148  1.00  0.00    -0.388 OA
HETATM   45  H   UNL     1     -43.869  55.067 -55.243  1.00  0.00     0.210 HD
ENDBRANCH  30  44
BRANCH  31  46
HETATM   46  O   UNL     1     -43.812  56.587 -53.919  1.00  0.00    -0.390 OA
HETATM   47  H   UNL     1     -44.156  56.080 -54.689  1.00  0.00     0.210 HD
ENDBRANCH  31  46
ENDBRANCH  26  27
ENDBRANCH   1  26
TORSDOF 12
ENDMDL
MODEL 3
REMARK VINA RESULT:      -8.6      3.795      6.173
REMARK  12 active torsions:
REMARK  status: ('A' for Active; 'I' for Inactive)
REMARK    1  A    between atoms: C_2  and  N_3 
REMARK    2  A    between atoms: N_3  and  C_5 
REMARK    3  A    between atoms: N_3  and  C_25 
REMARK    4  A    between atoms: C_7  and  C_8 
REMARK    5  A    between atoms: C_8  and  C_9 
REMARK    6  A    between atoms: C_9  and  C_10 
REMARK    7  A    between atoms: C_18  and  C_19 
REMARK    8  A    between atoms: C_25  and  C_26 
REMARK    9  A    between atoms: C_28  and  N_29 
REMARK   10  A    between atoms: C_32  and  N_33 
REMARK   11  A    between atoms: C_39  and  O_40 
REMARK   12  A    between atoms: C_41  and  O_42 
ROOT
HETATM    1  N   UNL     1     -42.792  57.703 -52.178  1.00  0.00    -0.061 N 
HETATM    2  H   UNL     1     -43.067  56.721 -52.025  1.00  0.00     0.280 HD
ENDROOT
BRANCH   1   3
HETATM    3  C   UNL     1     -41.753  58.041 -51.107  1.00  0.00     0.180 C 
HETATM    4  C   UNL     1     -40.519  58.713 -51.702  1.00  0.00     0.039 C 
HETATM    5  C   UNL     1     -41.385  56.855 -50.221  1.00  0.00     0.039 C 
ENDBRANCH   1   3
BRANCH   1   6
HETATM    6  C   UNL     1     -43.998  58.603 -52.086  1.00  0.00     0.189 C 
HETATM    7  C   UNL     1     -43.757  59.949 -51.337  1.00  0.00     0.038 C 
HETATM    8  C   UNL     1     -44.642  60.646 -52.399  1.00  0.00    -0.010 C 
HETATM    9  C   UNL     1     -44.258  59.480 -53.343  1.00  0.00     0.038 C 
BRANCH   8  10
HETATM   10  C   UNL     1     -46.143  60.768 -52.128  1.00  0.00     0.012 C 
BRANCH  10  11
HETATM   11  C   UNL     1     -46.569  62.234 -52.008  1.00  0.00     0.079 C 
BRANCH  11  12
HETATM   12  C   UNL     1     -47.987  62.412 -52.431  1.00  0.00     0.105 A 
HETATM   13  N   UNL     1     -48.934  63.032 -51.756  1.00  0.00    -0.233 NA
HETATM   14  C   UNL     1     -50.070  62.917 -52.524  1.00  0.00     0.085 A 
HETATM   15  C   UNL     1     -49.808  62.225 -53.696  1.00  0.00     0.063 A 
HETATM   16  C   UNL     1     -51.370  63.375 -52.287  1.00  0.00     0.034 A 
HETATM   17  N   UNL     1     -48.473  61.922 -53.619  1.00  0.00    -0.343 N 
HETATM   18  C   UNL     1     -50.779  61.958 -54.666  1.00  0.00     0.039 A 
HETATM   19  H   UNL     1     -47.947  61.414 -54.315  1.00  0.00     0.167 HD
HETATM   20  C   UNL     1     -52.098  62.412 -54.437  1.00  0.00    -0.048 A 
HETATM   21  C   UNL     1     -52.366  63.115 -53.245  1.00  0.00     0.010 A 
BRANCH  20  22
HETATM   22  C   UNL     1     -53.191  62.129 -55.490  1.00  0.00    -0.024 C 
HETATM   23  C   UNL     1     -53.307  60.642 -55.891  1.00  0.00     0.019 C 
HETATM   24  C   UNL     1     -54.566  62.561 -54.934  1.00  0.00     0.019 C 
HETATM   25  C   UNL     1     -52.892  62.926 -56.779  1.00  0.00     0.019 C 
ENDBRANCH  20  22
ENDBRANCH  11  12
ENDBRANCH  10  11
ENDBRANCH   8  10
ENDBRANCH   1   6
BRANCH   1  26
HETATM   26  C   UNL     1     -42.273  57.760 -53.623  1.00  0.00     0.270 C 
BRANCH  26  27
HETATM   27  C   UNL     1     -42.253  56.369 -54.267  1.00  0.00     0.181 C 
HETATM   28  O   UNL     1     -41.085  55.618 -53.879  1.00  0.00    -0.354 OA
HETATM   29  C   UNL     1     -41.418  54.220 -54.151  1.00  0.00     0.262 C 
HETATM   30  C   UNL     1     -42.953  54.123 -54.282  1.00  0.00     0.198 C 
HETATM   31  C   UNL     1     -43.417  55.499 -53.828  1.00  0.00     0.181 C 
BRANCH  29  32
HETATM   32  N   UNL     1     -40.875  53.361 -53.122  1.00  0.00    -0.294 N 
HETATM   33  C   UNL     1     -40.511  52.060 -53.343  1.00  0.00     0.167 A 
HETATM   34  C   UNL     1     -40.001  51.619 -52.134  1.00  0.00     0.149 A 
HETATM   35  N   UNL     1     -40.631  51.371 -54.489  1.00  0.00    -0.222 NA
HETATM   36  C   UNL     1     -39.532  50.295 -52.099  1.00  0.00     0.155 A 
HETATM   37  N   UNL     1     -40.078  52.623 -51.186  1.00  0.00    -0.236 NA
HETATM   38  N   UNL     1     -39.635  49.549 -53.224  1.00  0.00    -0.222 NA
HETATM   39  C   UNL     1     -40.159  50.113 -54.333  1.00  0.00     0.237 A 
HETATM   40  C   UNL     1     -40.594  53.655 -51.818  1.00  0.00     0.214 A 
BRANCH  36  41
HETATM   41  N   UNL     1     -38.977  49.710 -50.973  1.00  0.00    -0.382 N 
HETATM   42  H   UNL     1     -38.777  48.721 -51.061  1.00  0.00     0.157 HD
HETATM   43  H   UNL     1     -38.285  50.296 -50.523  1.00  0.00     0.157 HD
ENDBRANCH  36  41
ENDBRANCH  29  32
BRANCH  30  44
HETATM   44  O   UNL     1     -43.347  53.951 -55.653  1.00  0.00    -0.388 OA
HETATM   45  H   UNL     1     -42.551  53.656 -56.143  1.00  0.00     0.210 HD
ENDBRANCH  30  44
BRANCH  31  46
HETATM   46  O   UNL     1     -44.628  55.921 -54.425  1.00  0.00    -0.390 OA
HETATM   47  H   UNL     1     -45.346  55.682 -53.796  1.00  0.00     0.210 HD
ENDBRANCH  31  46
ENDBRANCH  26  27
ENDBRANCH   1  26
TORSDOF 12
ENDMDL
MODEL 4
REMARK VINA RESULT:      -8.2      4.403      9.994
REMARK  12 active torsions:
REMARK  status: ('A' for Active; 'I' for Inactive)
REMARK    1  A    between atoms: C_2  and  N_3 
REMARK    2  A    between atoms: N_3  and  C_5 
REMARK    3  A    between atoms: N_3  and  C_25 
REMARK    4  A    between atoms: C_7  and  C_8 
REMARK    5  A    between atoms: C_8  and  C_9 
REMARK    6  A    between atoms: C_9  and  C_10 
REMARK    7  A    between atoms: C_18  and  C_19 
REMARK    8  A    between atoms: C_25  and  C_26 
REMARK    9  A    between atoms: C_28  and  N_29 
REMARK   10  A    between atoms: C_32  and  N_33 
REMARK   11  A    between atoms: C_39  and  O_40 
REMARK   12  A    between atoms: C_41  and  O_42 
ROOT
HETATM    1  N   UNL     1     -42.907  61.568 -53.452  1.00  0.00    -0.061 N 
HETATM    2  H   UNL     1     -42.234  62.226 -53.874  1.00  0.00     0.280 HD
ENDROOT
BRANCH   1   3
HETATM    3  C   UNL     1     -43.863  62.402 -52.599  1.00  0.00     0.180 C 
HETATM    4  C   UNL     1     -45.324  62.129 -52.946  1.00  0.00     0.039 C 
HETATM    5  C   UNL     1     -43.544  63.894 -52.608  1.00  0.00     0.039 C 
ENDBRANCH   1   3
BRANCH   1   6
HETATM    6  C   UNL     1     -42.180  60.537 -52.627  1.00  0.00     0.189 C 
HETATM    7  C   UNL     1     -42.338  60.701 -51.084  1.00  0.00     0.038 C 
HETATM    8  C   UNL     1     -42.447  59.160 -50.977  1.00  0.00    -0.010 C 
HETATM    9  C   UNL     1     -42.936  59.191 -52.446  1.00  0.00     0.038 C 
BRANCH   8  10
HETATM   10  C   UNL     1     -41.166  58.354 -50.757  1.00  0.00     0.012 C 
BRANCH  10  11
HETATM   11  C   UNL     1     -41.473  56.967 -50.184  1.00  0.00     0.079 C 
BRANCH  11  12
HETATM   12  C   UNL     1     -41.170  55.902 -51.181  1.00  0.00     0.105 A 
HETATM   13  N   UNL     1     -41.131  56.042 -52.490  1.00  0.00    -0.233 NA
HETATM   14  C   UNL     1     -40.840  54.792 -52.987  1.00  0.00     0.085 A 
HETATM   15  C   UNL     1     -40.686  53.875 -51.960  1.00  0.00     0.063 A 
HETATM   16  C   UNL     1     -40.695  54.357 -54.309  1.00  0.00     0.034 A 
HETATM   17  N   UNL     1     -40.890  54.606 -50.819  1.00  0.00    -0.343 N 
HETATM   18  C   UNL     1     -40.387  52.525 -52.173  1.00  0.00     0.039 A 
HETATM   19  H   UNL     1     -40.853  54.244 -49.877  1.00  0.00     0.167 HD
HETATM   20  C   UNL     1     -40.241  52.072 -53.504  1.00  0.00    -0.048 A 
HETATM   21  C   UNL     1     -40.399  53.004 -54.549  1.00  0.00     0.010 A 
BRANCH  20  22
HETATM   22  C   UNL     1     -39.914  50.586 -53.767  1.00  0.00    -0.024 C 
HETATM   23  C   UNL     1     -41.046  49.809 -54.477  1.00  0.00     0.019 C 
HETATM   24  C   UNL     1     -38.660  50.486 -54.664  1.00  0.00     0.019 C 
HETATM   25  C   UNL     1     -39.640  49.867 -52.428  1.00  0.00     0.019 C 
ENDBRANCH  20  22
ENDBRANCH  11  12
ENDBRANCH  10  11
ENDBRANCH   8  10
ENDBRANCH   1   6
BRANCH   1  26
HETATM   26  C   UNL     1     -43.563  60.843 -54.638  1.00  0.00     0.270 C 
BRANCH  26  27
HETATM   27  C   UNL     1     -42.583  60.673 -55.804  1.00  0.00     0.181 C 
HETATM   28  O   UNL     1     -42.794  59.430 -56.501  1.00  0.00    -0.354 OA
HETATM   29  C   UNL     1     -42.162  59.609 -57.808  1.00  0.00     0.262 C 
HETATM   30  C   UNL     1     -41.970  61.124 -58.030  1.00  0.00     0.198 C 
HETATM   31  C   UNL     1     -42.751  61.734 -56.875  1.00  0.00     0.181 C 
BRANCH  29  32
HETATM   32  N   UNL     1     -42.948  58.973 -58.843  1.00  0.00    -0.294 N 
HETATM   33  C   UNL     1     -43.196  57.627 -58.878  1.00  0.00     0.167 A 
HETATM   34  C   UNL     1     -44.013  57.442 -59.980  1.00  0.00     0.149 A 
HETATM   35  N   UNL     1     -42.738  56.698 -58.024  1.00  0.00    -0.222 NA
HETATM   36  C   UNL     1     -44.434  56.124 -60.232  1.00  0.00     0.155 A 
HETATM   37  N   UNL     1     -44.236  58.646 -60.621  1.00  0.00    -0.236 NA
HETATM   38  N   UNL     1     -43.997  55.143 -59.408  1.00  0.00    -0.222 NA
HETATM   39  C   UNL     1     -43.198  55.474 -58.370  1.00  0.00     0.237 A 
HETATM   40  C   UNL     1     -43.593  59.543 -59.902  1.00  0.00     0.214 A 
BRANCH  36  41
HETATM   41  N   UNL     1     -45.266  55.775 -61.282  1.00  0.00    -0.382 N 
HETATM   42  H   UNL     1     -44.800  55.339 -62.068  1.00  0.00     0.157 HD
HETATM   43  H   UNL     1     -46.147  55.382 -60.975  1.00  0.00     0.157 HD
ENDBRANCH  36  41
ENDBRANCH  29  32
BRANCH  30  44
HETATM   44  O   UNL     1     -40.591  61.500 -57.880  1.00  0.00    -0.388 OA
HETATM   45  H   UNL     1     -40.289  61.826 -58.753  1.00  0.00     0.210 HD
ENDBRANCH  30  44
BRANCH  31  46
HETATM   46  O   UNL     1     -42.253  62.986 -56.444  1.00  0.00    -0.390 OA
HETATM   47  H   UNL     1     -41.794  63.384 -57.218  1.00  0.00     0.210 HD
ENDBRANCH  31  46
ENDBRANCH  26  27
ENDBRANCH   1  26
TORSDOF 12
ENDMDL
MODEL 5
REMARK VINA RESULT:      -8.2      1.216      1.994
REMARK  12 active torsions:
REMARK  status: ('A' for Active; 'I' for Inactive)
REMARK    1  A    between atoms: C_2  and  N_3 
REMARK    2  A    between atoms: N_3  and  C_5 
REMARK    3  A    between atoms: N_3  and  C_25 
REMARK    4  A    between atoms: C_7  and  C_8 
REMARK    5  A    between atoms: C_8  and  C_9 
REMARK    6  A    between atoms: C_9  and  C_10 
REMARK    7  A    between atoms: C_18  and  C_19 
REMARK    8  A    between atoms: C_25  and  C_26 
REMARK    9  A    between atoms: C_28  and  N_29 
REMARK   10  A    between atoms: C_32  and  N_33 
REMARK   11  A    between atoms: C_39  and  O_40 
REMARK   12  A    between atoms: C_41  and  O_42 
ROOT
HETATM    1  N   UNL     1     -42.068  58.287 -52.535  1.00  0.00    -0.061 N 
HETATM    2  H   UNL     1     -42.828  57.593 -52.616  1.00  0.00     0.280 HD
ENDROOT
BRANCH   1   3
HETATM    3  C   UNL     1     -41.628  58.290 -51.070  1.00  0.00     0.180 C 
HETATM    4  C   UNL     1     -40.759  59.499 -50.738  1.00  0.00     0.039 C 
HETATM    5  C   UNL     1     -40.979  56.981 -50.627  1.00  0.00     0.039 C 
ENDBRANCH   1   3
BRANCH   1   6
HETATM    6  C   UNL     1     -42.554  59.645 -52.973  1.00  0.00     0.189 C 
HETATM    7  C   UNL     1     -42.376  59.948 -54.492  1.00  0.00     0.038 C 
HETATM    8  C   UNL     1     -43.765  60.634 -54.472  1.00  0.00    -0.010 C 
HETATM    9  C   UNL     1     -44.082  59.736 -53.250  1.00  0.00     0.038 C 
BRANCH   8  10
HETATM   10  C   UNL     1     -43.829  62.135 -54.184  1.00  0.00     0.012 C 
BRANCH  10  11
HETATM   11  C   UNL     1     -45.193  62.533 -53.612  1.00  0.00     0.079 C 
BRANCH  11  12
HETATM   12  C   UNL     1     -45.082  62.878 -52.166  1.00  0.00     0.105 A 
HETATM   13  N   UNL     1     -44.424  63.898 -51.653  1.00  0.00    -0.233 NA
HETATM   14  C   UNL     1     -44.583  63.792 -50.290  1.00  0.00     0.085 A 
HETATM   15  C   UNL     1     -45.365  62.694 -49.967  1.00  0.00     0.063 A 
HETATM   16  C   UNL     1     -44.087  64.594 -49.258  1.00  0.00     0.034 A 
HETATM   17  N   UNL     1     -45.679  62.133 -51.178  1.00  0.00    -0.343 N 
HETATM   18  C   UNL     1     -45.691  62.341 -48.654  1.00  0.00     0.039 A 
HETATM   19  H   UNL     1     -46.242  61.306 -51.312  1.00  0.00     0.167 HD
HETATM   20  C   UNL     1     -45.192  63.142 -47.601  1.00  0.00    -0.048 A 
HETATM   21  C   UNL     1     -44.396  64.258 -47.928  1.00  0.00     0.010 A 
BRANCH  20  22
HETATM   22  C   UNL     1     -45.534  62.773 -46.141  1.00  0.00    -0.024 C 
HETATM   23  C   UNL     1     -44.964  61.411 -45.686  1.00  0.00     0.019 C 
HETATM   24  C   UNL     1     -44.960  63.848 -45.191  1.00  0.00     0.019 C 
HETATM   25  C   UNL     1     -47.067  62.707 -45.965  1.00  0.00     0.019 C 
ENDBRANCH  20  22
ENDBRANCH  11  12
ENDBRANCH  10  11
ENDBRANCH   8  10
ENDBRANCH   1   6
BRANCH   1  26
HETATM   26  C   UNL     1     -40.992  57.829 -53.533  1.00  0.00     0.270 C 
BRANCH  26  27
HETATM   27  C   UNL     1     -41.326  56.457 -54.128  1.00  0.00     0.181 C 
HETATM   28  O   UNL     1     -40.329  55.472 -53.790  1.00  0.00    -0.354 OA
HETATM   29  C   UNL     1     -40.981  54.179 -53.991  1.00  0.00     0.262 C 
HETATM   30  C   UNL     1     -42.505  54.423 -54.019  1.00  0.00     0.198 C 
HETATM   31  C   UNL     1     -42.619  55.878 -53.585  1.00  0.00     0.181 C 
BRANCH  29  32
HETATM   32  N   UNL     1     -40.570  53.240 -52.970  1.00  0.00    -0.294 N 
HETATM   33  C   UNL     1     -40.258  51.934 -53.232  1.00  0.00     0.167 A 
HETATM   34  C   UNL     1     -39.873  51.405 -52.012  1.00  0.00     0.149 A 
HETATM   35  N   UNL     1     -40.319  51.310 -54.419  1.00  0.00    -0.222 NA
HETATM   36  C   UNL     1     -39.478  50.056 -52.011  1.00  0.00     0.155 A 
HETATM   37  N   UNL     1     -39.975  52.363 -51.020  1.00  0.00    -0.236 NA
HETATM   38  N   UNL     1     -39.527  49.373 -53.179  1.00  0.00    -0.222 NA
HETATM   39  C   UNL     1     -39.928  50.021 -54.294  1.00  0.00     0.237 A 
HETATM   40  C   UNL     1     -40.382  53.453 -51.635  1.00  0.00     0.214 A 
BRANCH  36  41
HETATM   41  N   UNL     1     -39.049  49.385 -50.879  1.00  0.00    -0.382 N 
HETATM   42  H   UNL     1     -39.663  48.645 -50.563  1.00  0.00     0.157 HD
HETATM   43  H   UNL     1     -38.053  49.207 -50.878  1.00  0.00     0.157 HD
ENDBRANCH  36  41
ENDBRANCH  29  32
BRANCH  30  44
HETATM   44  O   UNL     1     -43.023  54.318 -55.355  1.00  0.00    -0.388 OA
HETATM   45  H   UNL     1     -43.996  54.414 -55.291  1.00  0.00     0.210 HD
ENDBRANCH  30  44
BRANCH  31  46
HETATM   46  O   UNL     1     -43.747  56.547 -54.116  1.00  0.00    -0.390 OA
HETATM   47  H   UNL     1     -43.557  57.510 -54.047  1.00  0.00     0.210 HD
ENDBRANCH  31  46
ENDBRANCH  26  27
ENDBRANCH   1  26
TORSDOF 12
ENDMDL
MODEL 6
REMARK VINA RESULT:      -8.1      4.209      7.486
REMARK  12 active torsions:
REMARK  status: ('A' for Active; 'I' for Inactive)
REMARK    1  A    between atoms: C_2  and  N_3 
REMARK    2  A    between atoms: N_3  and  C_5 
REMARK    3  A    between atoms: N_3  and  C_25 
REMARK    4  A    between atoms: C_7  and  C_8 
REMARK    5  A    between atoms: C_8  and  C_9 
REMARK    6  A    between atoms: C_9  and  C_10 
REMARK    7  A    between atoms: C_18  and  C_19 
REMARK    8  A    between atoms: C_25  and  C_26 
REMARK    9  A    between atoms: C_28  and  N_29 
REMARK   10  A    between atoms: C_32  and  N_33 
REMARK   11  A    between atoms: C_39  and  O_40 
REMARK   12  A    between atoms: C_41  and  O_42 
ROOT
HETATM    1  N   UNL     1     -41.622  58.098 -52.341  1.00  0.00    -0.061 N 
HETATM    2  H   UNL     1     -42.407  57.433 -52.273  1.00  0.00     0.280 HD
ENDROOT
BRANCH   1   3
HETATM    3  C   UNL     1     -40.756  57.886 -51.098  1.00  0.00     0.180 C 
HETATM    4  C   UNL     1     -41.277  56.747 -50.227  1.00  0.00     0.039 C 
HETATM    5  C   UNL     1     -40.525  59.161 -50.292  1.00  0.00     0.039 C 
ENDBRANCH   1   3
BRANCH   1   6
HETATM    6  C   UNL     1     -42.142  59.511 -52.422  1.00  0.00     0.189 C 
HETATM    7  C   UNL     1     -42.320  60.063 -53.869  1.00  0.00     0.038 C 
HETATM    8  C   UNL     1     -43.634  60.737 -53.402  1.00  0.00    -0.010 C 
HETATM    9  C   UNL     1     -43.686  59.648 -52.302  1.00  0.00     0.038 C 
BRANCH   8  10
HETATM   10  C   UNL     1     -43.566  62.169 -52.869  1.00  0.00     0.012 C 
BRANCH  10  11
HETATM   11  C   UNL     1     -44.415  63.119 -53.718  1.00  0.00     0.079 C 
BRANCH  11  12
HETATM   12  C   UNL     1     -44.087  62.976 -55.164  1.00  0.00     0.105 A 
HETATM   13  N   UNL     1     -44.897  62.550 -56.112  1.00  0.00    -0.233 NA
HETATM   14  C   UNL     1     -44.150  62.563 -57.268  1.00  0.00     0.085 A 
HETATM   15  C   UNL     1     -42.865  63.020 -57.023  1.00  0.00     0.063 A 
HETATM   16  C   UNL     1     -44.498  62.195 -58.572  1.00  0.00     0.034 A 
HETATM   17  N   UNL     1     -42.851  63.286 -55.678  1.00  0.00    -0.343 N 
HETATM   18  C   UNL     1     -41.887  63.137 -58.016  1.00  0.00     0.039 A 
HETATM   19  H   UNL     1     -42.060  63.637 -55.159  1.00  0.00     0.167 HD
HETATM   20  C   UNL     1     -42.225  62.765 -59.337  1.00  0.00    -0.048 A 
HETATM   21  C   UNL     1     -43.531  62.299 -59.588  1.00  0.00     0.010 A 
BRANCH  20  22
HETATM   22  C   UNL     1     -41.164  62.882 -60.452  1.00  0.00    -0.024 C 
HETATM   23  C   UNL     1     -39.712  62.969 -59.932  1.00  0.00     0.019 C 
HETATM   24  C   UNL     1     -41.246  61.644 -61.373  1.00  0.00     0.019 C 
HETATM   25  C   UNL     1     -41.425  64.154 -61.289  1.00  0.00     0.019 C 
ENDBRANCH  20  22
ENDBRANCH  11  12
ENDBRANCH  10  11
ENDBRANCH   8  10
ENDBRANCH   1   6
BRANCH   1  26
HETATM   26  C   UNL     1     -40.929  57.776 -53.674  1.00  0.00     0.270 C 
BRANCH  26  27
HETATM   27  C   UNL     1     -41.338  56.395 -54.199  1.00  0.00     0.181 C 
HETATM   28  O   UNL     1     -40.348  55.393 -53.890  1.00  0.00    -0.354 OA
HETATM   29  C   UNL     1     -41.047  54.113 -54.005  1.00  0.00     0.262 C 
HETATM   30  C   UNL     1     -42.562  54.402 -53.946  1.00  0.00     0.198 C 
HETATM   31  C   UNL     1     -42.609  55.872 -53.556  1.00  0.00     0.181 C 
BRANCH  29  32
HETATM   32  N   UNL     1     -40.597  53.197 -52.979  1.00  0.00    -0.294 N 
HETATM   33  C   UNL     1     -40.292  51.886 -53.224  1.00  0.00     0.167 A 
HETATM   34  C   UNL     1     -39.862  51.384 -52.008  1.00  0.00     0.149 A 
HETATM   35  N   UNL     1     -40.393  51.237 -54.396  1.00  0.00    -0.222 NA
HETATM   36  C   UNL     1     -39.464  50.036 -51.993  1.00  0.00     0.155 A 
HETATM   37  N   UNL     1     -39.931  52.362 -51.033  1.00  0.00    -0.236 NA
HETATM   38  N   UNL     1     -39.552  49.329 -53.144  1.00  0.00    -0.222 NA
HETATM   39  C   UNL     1     -39.994  49.952 -54.257  1.00  0.00     0.237 A 
HETATM   40  C   UNL     1     -40.363  53.439 -51.656  1.00  0.00     0.214 A 
BRANCH  36  41
HETATM   41  N   UNL     1     -38.993  49.390 -50.862  1.00  0.00    -0.382 N 
HETATM   42  H   UNL     1     -38.615  48.465 -51.025  1.00  0.00     0.157 HD
HETATM   43  H   UNL     1     -38.489  50.006 -50.237  1.00  0.00     0.157 HD
ENDBRANCH  36  41
ENDBRANCH  29  32
BRANCH  30  44
HETATM   44  O   UNL     1     -43.167  54.267 -55.242  1.00  0.00    -0.388 OA
HETATM   45  H   UNL     1     -44.044  53.852 -55.105  1.00  0.00     0.210 HD
ENDBRANCH  30  44
BRANCH  31  46
HETATM   46  O   UNL     1     -43.749  56.556 -54.038  1.00  0.00    -0.390 OA
HETATM   47  H   UNL     1     -44.017  56.101 -54.868  1.00  0.00     0.210 HD
ENDBRANCH  31  46
ENDBRANCH  26  27
ENDBRANCH   1  26
TORSDOF 12
ENDMDL
MODEL 7
REMARK VINA RESULT:      -8.1      4.009      8.838
REMARK  12 active torsions:
REMARK  status: ('A' for Active; 'I' for Inactive)
REMARK    1  A    between atoms: C_2  and  N_3 
REMARK    2  A    between atoms: N_3  and  C_5 
REMARK    3  A    between atoms: N_3  and  C_25 
REMARK    4  A    between atoms: C_7  and  C_8 
REMARK    5  A    between atoms: C_8  and  C_9 
REMARK    6  A    between atoms: C_9  and  C_10 
REMARK    7  A    between atoms: C_18  and  C_19 
REMARK    8  A    between atoms: C_25  and  C_26 
REMARK    9  A    between atoms: C_28  and  N_29 
REMARK   10  A    between atoms: C_32  and  N_33 
REMARK   11  A    between atoms: C_39  and  O_40 
REMARK   12  A    between atoms: C_41  and  O_42 
ROOT
HETATM    1  N   UNL     1     -43.473  58.225 -52.725  1.00  0.00    -0.061 N 
HETATM    2  H   UNL     1     -44.066  57.485 -53.130  1.00  0.00     0.280 HD
ENDROOT
BRANCH   1   3
HETATM    3  C   UNL     1     -44.101  58.610 -51.385  1.00  0.00     0.180 C 
HETATM    4  C   UNL     1     -44.918  57.467 -50.789  1.00  0.00     0.039 C 
HETATM    5  C   UNL     1     -44.895  59.912 -51.436  1.00  0.00     0.039 C 
ENDBRANCH   1   3
BRANCH   1   6
HETATM    6  C   UNL     1     -43.397  59.404 -53.663  1.00  0.00     0.189 C 
HETATM    7  C   UNL     1     -41.974  60.022 -53.825  1.00  0.00     0.038 C 
HETATM    8  C   UNL     1     -42.272  60.196 -55.335  1.00  0.00    -0.010 C 
HETATM    9  C   UNL     1     -43.284  59.036 -55.169  1.00  0.00     0.038 C 
BRANCH   8  10
HETATM   10  C   UNL     1     -42.894  61.512 -55.806  1.00  0.00     0.012 C 
BRANCH  10  11
HETATM   11  C   UNL     1     -42.728  61.696 -57.317  1.00  0.00     0.079 C 
BRANCH  11  12
HETATM   12  C   UNL     1     -42.858  60.393 -58.028  1.00  0.00     0.105 A 
HETATM   13  N   UNL     1     -41.913  59.773 -58.706  1.00  0.00    -0.233 NA
HETATM   14  C   UNL     1     -42.502  58.632 -59.201  1.00  0.00     0.085 A 
HETATM   15  C   UNL     1     -43.828  58.549 -58.807  1.00  0.00     0.063 A 
HETATM   16  C   UNL     1     -41.971  57.616 -60.003  1.00  0.00     0.034 A 
HETATM   17  N   UNL     1     -44.029  59.676 -58.053  1.00  0.00    -0.343 N 
HETATM   18  C   UNL     1     -44.673  57.494 -59.167  1.00  0.00     0.039 A 
HETATM   19  H   UNL     1     -44.897  59.934 -57.606  1.00  0.00     0.167 HD
HETATM   20  C   UNL     1     -44.149  56.462 -59.980  1.00  0.00    -0.048 A 
HETATM   21  C   UNL     1     -42.801  56.546 -60.382  1.00  0.00     0.010 A 
BRANCH  20  22
HETATM   22  C   UNL     1     -45.060  55.287 -60.394  1.00  0.00    -0.024 C 
HETATM   23  C   UNL     1     -44.789  53.977 -59.620  1.00  0.00     0.019 C 
HETATM   24  C   UNL     1     -46.536  55.667 -60.144  1.00  0.00     0.019 C 
HETATM   25  C   UNL     1     -44.862  54.977 -61.894  1.00  0.00     0.019 C 
ENDBRANCH  20  22
ENDBRANCH  11  12
ENDBRANCH  10  11
ENDBRANCH   8  10
ENDBRANCH   1   6
BRANCH   1  26
HETATM   26  C   UNL     1     -42.067  57.611 -52.628  1.00  0.00     0.270 C 
BRANCH  26  27
HETATM   27  C   UNL     1     -41.955  56.332 -53.464  1.00  0.00     0.181 C 
HETATM   28  O   UNL     1     -40.803  55.550 -53.092  1.00  0.00    -0.354 OA
HETATM   29  C   UNL     1     -41.072  54.203 -53.593  1.00  0.00     0.262 C 
HETATM   30  C   UNL     1     -42.588  54.102 -53.868  1.00  0.00     0.198 C 
HETATM   31  C   UNL     1     -43.126  55.389 -53.259  1.00  0.00     0.181 C 
BRANCH  29  32
HETATM   32  N   UNL     1     -40.591  53.209 -52.659  1.00  0.00    -0.294 N 
HETATM   33  C   UNL     1     -40.313  51.917 -53.012  1.00  0.00     0.167 A 
HETATM   34  C   UNL     1     -39.838  51.322 -51.856  1.00  0.00     0.149 A 
HETATM   35  N   UNL     1     -40.472  51.358 -54.223  1.00  0.00    -0.222 NA
HETATM   36  C   UNL     1     -39.457  49.973 -51.958  1.00  0.00     0.155 A 
HETATM   37  N   UNL     1     -39.854  52.226 -50.810  1.00  0.00    -0.236 NA
HETATM   38  N   UNL     1     -39.603  49.354 -53.152  1.00  0.00    -0.222 NA
HETATM   39  C   UNL     1     -40.083  50.063 -54.197  1.00  0.00     0.237 A 
HETATM   40  C   UNL     1     -40.298  53.350 -51.333  1.00  0.00     0.214 A 
BRANCH  36  41
HETATM   41  N   UNL     1     -38.947  49.241 -50.899  1.00  0.00    -0.382 N 
HETATM   42  H   UNL     1     -39.307  49.499 -49.989  1.00  0.00     0.157 HD
HETATM   43  H   UNL     1     -38.853  48.255 -51.110  1.00  0.00     0.157 HD
ENDBRANCH  36  41
ENDBRANCH  29  32
BRANCH  30  44
HETATM   44  O   UNL     1     -42.862  54.130 -55.278  1.00  0.00    -0.388 OA
HETATM   45  H   UNL     1     -42.486  53.308 -55.657  1.00  0.00     0.210 HD
ENDBRANCH  30  44
BRANCH  31  46
HETATM   46  O   UNL     1     -44.296  55.874 -53.889  1.00  0.00    -0.390 OA
HETATM   47  H   UNL     1     -44.246  56.856 -53.850  1.00  0.00     0.210 HD
ENDBRANCH  31  46
ENDBRANCH  26  27
ENDBRANCH   1  26
TORSDOF 12
ENDMDL
MODEL 8
REMARK VINA RESULT:      -8.1      4.180      6.946
REMARK  12 active torsions:
REMARK  status: ('A' for Active; 'I' for Inactive)
REMARK    1  A    between atoms: C_2  and  N_3 
REMARK    2  A    between atoms: N_3  and  C_5 
REMARK    3  A    between atoms: N_3  and  C_25 
REMARK    4  A    between atoms: C_7  and  C_8 
REMARK    5  A    between atoms: C_8  and  C_9 
REMARK    6  A    between atoms: C_9  and  C_10 
REMARK    7  A    between atoms: C_18  and  C_19 
REMARK    8  A    between atoms: C_25  and  C_26 
REMARK    9  A    between atoms: C_28  and  N_29 
REMARK   10  A    between atoms: C_32  and  N_33 
REMARK   11  A    between atoms: C_39  and  O_40 
REMARK   12  A    between atoms: C_41  and  O_42 
ROOT
HETATM    1  N   UNL     1     -44.093  59.007 -52.804  1.00  0.00    -0.061 N 
HETATM    2  H   UNL     1     -43.135  59.099 -52.433  1.00  0.00     0.280 HD
ENDROOT
BRANCH   1   3
HETATM    3  C   UNL     1     -43.961  58.589 -54.269  1.00  0.00     0.180 C 
HETATM    4  C   UNL     1     -43.905  59.794 -55.203  1.00  0.00     0.039 C 
HETATM    5  C   UNL     1     -45.012  57.574 -54.710  1.00  0.00     0.039 C 
ENDBRANCH   1   3
BRANCH   1   6
HETATM    6  C   UNL     1     -44.835  60.312 -52.662  1.00  0.00     0.189 C 
HETATM    7  C   UNL     1     -46.238  60.199 -51.990  1.00  0.00     0.038 C 
HETATM    8  C   UNL     1     -45.931  61.516 -51.234  1.00  0.00    -0.010 C 
HETATM    9  C   UNL     1     -44.435  61.160 -51.421  1.00  0.00     0.038 C 
BRANCH   8  10
HETATM   10  C   UNL     1     -46.349  62.838 -51.879  1.00  0.00     0.012 C 
BRANCH  10  11
HETATM   11  C   UNL     1     -47.496  63.496 -51.105  1.00  0.00     0.079 C 
BRANCH  11  12
HETATM   12  C   UNL     1     -48.800  63.261 -51.787  1.00  0.00     0.105 A 
HETATM   13  N   UNL     1     -49.990  63.617 -51.346  1.00  0.00    -0.233 NA
HETATM   14  C   UNL     1     -50.883  63.168 -52.291  1.00  0.00     0.085 A 
HETATM   15  C   UNL     1     -50.225  62.537 -53.335  1.00  0.00     0.063 A 
HETATM   16  C   UNL     1     -52.279  63.256 -52.328  1.00  0.00     0.034 A 
HETATM   17  N   UNL     1     -48.899  62.617 -52.997  1.00  0.00    -0.343 N 
HETATM   18  C   UNL     1     -50.884  61.981 -54.436  1.00  0.00     0.039 A 
HETATM   19  H   UNL     1     -48.132  62.251 -53.543  1.00  0.00     0.167 HD
HETATM   20  C   UNL     1     -52.295  62.060 -54.483  1.00  0.00    -0.048 A 
HETATM   21  C   UNL     1     -52.965  62.700 -53.423  1.00  0.00     0.010 A 
BRANCH  20  22
HETATM   22  C   UNL     1     -53.047  61.451 -55.686  1.00  0.00    -0.024 C 
HETATM   23  C   UNL     1     -52.555  61.960 -57.059  1.00  0.00     0.019 C 
HETATM   24  C   UNL     1     -52.874  59.916 -55.679  1.00  0.00     0.019 C 
HETATM   25  C   UNL     1     -54.551  61.792 -55.587  1.00  0.00     0.019 C 
ENDBRANCH  20  22
ENDBRANCH  11  12
ENDBRANCH  10  11
ENDBRANCH   8  10
ENDBRANCH   1   6
BRANCH   1  26
HETATM   26  C   UNL     1     -44.782  57.974 -51.896  1.00  0.00     0.270 C 
BRANCH  26  27
HETATM   27  C   UNL     1     -43.758  57.125 -51.135  1.00  0.00     0.181 C 
HETATM   28  O   UNL     1     -43.700  55.777 -51.643  1.00  0.00    -0.354 OA
HETATM   29  C   UNL     1     -42.415  55.248 -51.186  1.00  0.00     0.262 C 
HETATM   30  C   UNL     1     -41.531  56.448 -50.787  1.00  0.00     0.198 C 
HETATM   31  C   UNL     1     -42.338  57.639 -51.284  1.00  0.00     0.181 C 
BRANCH  29  32
HETATM   32  N   UNL     1     -41.821  54.412 -52.206  1.00  0.00    -0.294 N 
HETATM   33  C   UNL     1     -41.051  53.315 -51.924  1.00  0.00     0.167 A 
HETATM   34  C   UNL     1     -40.727  52.777 -53.158  1.00  0.00     0.149 A 
HETATM   35  N   UNL     1     -40.693  52.869 -50.710  1.00  0.00    -0.222 NA
HETATM   36  C   UNL     1     -39.943  51.611 -53.146  1.00  0.00     0.155 A 
HETATM   37  N   UNL     1     -41.265  53.547 -54.173  1.00  0.00    -0.236 NA
HETATM   38  N   UNL     1     -39.545  51.120 -51.949  1.00  0.00    -0.222 NA
HETATM   39  C   UNL     1     -39.936  51.754 -50.823  1.00  0.00     0.237 A 
HETATM   40  C   UNL     1     -41.924  54.509 -53.563  1.00  0.00     0.214 A 
BRANCH  36  41
HETATM   41  N   UNL     1     -39.550  50.942 -54.292  1.00  0.00    -0.382 N 
HETATM   42  H   UNL     1     -40.244  50.911 -55.028  1.00  0.00     0.157 HD
HETATM   43  H   UNL     1     -38.590  51.135 -54.552  1.00  0.00     0.157 HD
ENDBRANCH  36  41
ENDBRANCH  29  32
BRANCH  30  44
HETATM   44  O   UNL     1     -41.416  56.556 -49.359  1.00  0.00    -0.388 OA
HETATM   45  H   UNL     1     -42.203  56.114 -48.976  1.00  0.00     0.210 HD
ENDBRANCH  30  44
BRANCH  31  46
HETATM   46  O   UNL     1     -42.136  58.821 -50.534  1.00  0.00    -0.390 OA
HETATM   47  H   UNL     1     -42.053  59.554 -51.185  1.00  0.00     0.210 HD
ENDBRANCH  31  46
ENDBRANCH  26  27
ENDBRANCH   1  26
TORSDOF 12
ENDMDL
MODEL 9
REMARK VINA RESULT:      -8.0      4.099      8.137
REMARK  12 active torsions:
REMARK  status: ('A' for Active; 'I' for Inactive)
REMARK    1  A    between atoms: C_2  and  N_3 
REMARK    2  A    between atoms: N_3  and  C_5 
REMARK    3  A    between atoms: N_3  and  C_25 
REMARK    4  A    between atoms: C_7  and  C_8 
REMARK    5  A    between atoms: C_8  and  C_9 
REMARK    6  A    between atoms: C_9  and  C_10 
REMARK    7  A    between atoms: C_18  and  C_19 
REMARK    8  A    between atoms: C_25  and  C_26 
REMARK    9  A    between atoms: C_28  and  N_29 
REMARK   10  A    between atoms: C_32  and  N_33 
REMARK   11  A    between atoms: C_39  and  O_40 
REMARK   12  A    between atoms: C_41  and  O_42 
ROOT
HETATM    1  N   UNL     1     -42.931  58.472 -51.713  1.00  0.00    -0.061 N 
HETATM    2  H   UNL     1     -43.259  58.763 -50.779  1.00  0.00     0.280 HD
ENDROOT
BRANCH   1   3
HETATM    3  C   UNL     1     -41.402  58.451 -51.656  1.00  0.00     0.180 C 
HETATM    4  C   UNL     1     -40.872  59.029 -50.348  1.00  0.00     0.039 C 
HETATM    5  C   UNL     1     -40.740  59.091 -52.873  1.00  0.00     0.039 C 
ENDBRANCH   1   3
BRANCH   1   6
HETATM    6  C   UNL     1     -43.436  59.427 -52.764  1.00  0.00     0.189 C 
HETATM    7  C   UNL     1     -44.908  59.185 -53.217  1.00  0.00     0.038 C 
HETATM    8  C   UNL     1     -45.104  60.721 -53.247  1.00  0.00    -0.010 C 
HETATM    9  C   UNL     1     -43.949  60.790 -52.217  1.00  0.00     0.038 C 
BRANCH   8  10
HETATM   10  C   UNL     1     -44.827  61.464 -54.555  1.00  0.00     0.012 C 
BRANCH  10  11
HETATM   11  C   UNL     1     -46.061  61.472 -55.462  1.00  0.00     0.079 C 
BRANCH  11  12
HETATM   12  C   UNL     1     -45.986  60.378 -56.471  1.00  0.00     0.105 A 
HETATM   13  N   UNL     1     -46.943  60.006 -57.297  1.00  0.00    -0.233 NA
HETATM   14  C   UNL     1     -46.426  58.950 -58.011  1.00  0.00     0.085 A 
HETATM   15  C   UNL     1     -45.123  58.681 -57.623  1.00  0.00     0.063 A 
HETATM   16  C   UNL     1     -47.009  58.162 -59.009  1.00  0.00     0.034 A 
HETATM   17  N   UNL     1     -44.860  59.609 -56.648  1.00  0.00    -0.343 N 
HETATM   18  C   UNL     1     -44.349  57.658 -58.181  1.00  0.00     0.039 A 
HETATM   19  H   UNL     1     -43.991  59.698 -56.143  1.00  0.00     0.167 HD
HETATM   20  C   UNL     1     -44.929  56.852 -59.188  1.00  0.00    -0.048 A 
HETATM   21  C   UNL     1     -46.254  57.124 -59.582  1.00  0.00     0.010 A 
BRANCH  20  22
HETATM   22  C   UNL     1     -44.098  55.714 -59.819  1.00  0.00    -0.024 C 
HETATM   23  C   UNL     1     -42.633  56.099 -60.125  1.00  0.00     0.019 C 
HETATM   24  C   UNL     1     -44.061  54.508 -58.854  1.00  0.00     0.019 C 
HETATM   25  C   UNL     1     -44.741  55.277 -61.153  1.00  0.00     0.019 C 
ENDBRANCH  20  22
ENDBRANCH  11  12
ENDBRANCH  10  11
ENDBRANCH   8  10
ENDBRANCH   1   6
BRANCH   1  26
HETATM   26  C   UNL     1     -43.587  57.105 -51.966  1.00  0.00     0.270 C 
BRANCH  26  27
HETATM   27  C   UNL     1     -42.750  56.250 -52.924  1.00  0.00     0.181 C 
HETATM   28  O   UNL     1     -41.612  55.665 -52.261  1.00  0.00    -0.354 OA
HETATM   29  C   UNL     1     -41.203  54.548 -53.111  1.00  0.00     0.262 C 
HETATM   30  C   UNL     1     -42.386  54.214 -54.045  1.00  0.00     0.198 C 
HETATM   31  C   UNL     1     -43.514  55.059 -53.472  1.00  0.00     0.181 C 
BRANCH  29  32
HETATM   32  N   UNL     1     -40.774  53.427 -52.303  1.00  0.00    -0.294 N 
HETATM   33  C   UNL     1     -40.403  52.220 -52.830  1.00  0.00     0.167 A 
HETATM   34  C   UNL     1     -40.022  51.455 -51.740  1.00  0.00     0.149 A 
HETATM   35  N   UNL     1     -40.413  51.865 -54.125  1.00  0.00    -0.222 NA
HETATM   36  C   UNL     1     -39.572  50.153 -52.018  1.00  0.00     0.155 A 
HETATM   37  N   UNL     1     -40.185  52.172 -50.570  1.00  0.00    -0.236 NA
HETATM   38  N   UNL     1     -39.567  49.736 -53.306  1.00  0.00    -0.222 NA
HETATM   39  C   UNL     1     -39.971  50.594 -54.267  1.00  0.00     0.237 A 
HETATM   40  C   UNL     1     -40.624  53.354 -50.949  1.00  0.00     0.214 A 
BRANCH  36  41
HETATM   41  N   UNL     1     -39.140  49.269 -51.043  1.00  0.00    -0.382 N 
HETATM   42  H   UNL     1     -39.354  49.544 -50.093  1.00  0.00     0.157 HD
HETATM   43  H   UNL     1     -39.277  48.300 -51.300  1.00  0.00     0.157 HD
ENDBRANCH  36  41
ENDBRANCH  29  32
BRANCH  30  44
HETATM   44  O   UNL     1     -42.132  54.663 -55.386  1.00  0.00    -0.388 OA
HETATM   45  H   UNL     1     -41.771  55.571 -55.318  1.00  0.00     0.210 HD
ENDBRANCH  30  44
BRANCH  31  46
HETATM   46  O   UNL     1     -44.474  55.459 -54.431  1.00  0.00    -0.390 OA
HETATM   47  H   UNL     1     -44.524  56.440 -54.382  1.00  0.00     0.210 HD
ENDBRANCH  31  46
ENDBRANCH  26  27
ENDBRANCH   1  26
TORSDOF 12
ENDMDL
MODEL 10
REMARK VINA RESULT:      -7.8      4.488      9.131
REMARK  12 active torsions:
REMARK  status: ('A' for Active; 'I' for Inactive)
REMARK    1  A    between atoms: C_2  and  N_3 
REMARK    2  A    between atoms: N_3  and  C_5 
REMARK    3  A    between atoms: N_3  and  C_25 
REMARK    4  A    between atoms: C_7  and  C_8 
REMARK    5  A    between atoms: C_8  and  C_9 
REMARK    6  A    between atoms: C_9  and  C_10 
REMARK    7  A    between atoms: C_18  and  C_19 
REMARK    8  A    between atoms: C_25  and  C_26 
REMARK    9  A    between atoms: C_28  and  N_29 
REMARK   10  A    between atoms: C_32  and  N_33 
REMARK   11  A    between atoms: C_39  and  O_40 
REMARK   12  A    between atoms: C_41  and  O_42 
ROOT
HETATM    1  N   UNL     1     -45.100  62.282 -53.658  1.00  0.00    -0.061 N 
HETATM    2  H   UNL     1     -44.471  62.927 -54.160  1.00  0.00     0.280 HD
ENDROOT
BRANCH   1   3
HETATM    3  C   UNL     1     -46.267  63.121 -53.134  1.00  0.00     0.180 C 
HETATM    4  C   UNL     1     -47.616  62.480 -53.446  1.00  0.00     0.039 C 
HETATM    5  C   UNL     1     -46.212  64.581 -53.576  1.00  0.00     0.039 C 
ENDBRANCH   1   3
BRANCH   1   6
HETATM    6  C   UNL     1     -44.359  61.598 -52.537  1.00  0.00     0.189 C 
HETATM    7  C   UNL     1     -42.875  62.046 -52.362  1.00  0.00     0.038 C 
HETATM    8  C   UNL     1     -43.087  61.993 -50.829  1.00  0.00    -0.010 C 
HETATM    9  C   UNL     1     -44.591  62.214 -51.128  1.00  0.00     0.038 C 
BRANCH   8  10
HETATM   10  C   UNL     1     -42.776  60.687 -50.097  1.00  0.00     0.012 C 
BRANCH  10  11
HETATM   11  C   UNL     1     -41.337  60.232 -50.359  1.00  0.00     0.079 C 
BRANCH  11  12
HETATM   12  C   UNL     1     -41.302  58.815 -50.816  1.00  0.00     0.105 A 
HETATM   13  N   UNL     1     -41.243  57.745 -50.048  1.00  0.00    -0.233 NA
HETATM   14  C   UNL     1     -41.205  56.674 -50.910  1.00  0.00     0.085 A 
HETATM   15  C   UNL     1     -41.255  57.097 -52.229  1.00  0.00     0.063 A 
HETATM   16  C   UNL     1     -41.122  55.303 -50.644  1.00  0.00     0.034 A 
HETATM   17  N   UNL     1     -41.327  58.463 -52.144  1.00  0.00    -0.343 N 
HETATM   18  C   UNL     1     -41.231  56.222 -53.319  1.00  0.00     0.039 A 
HETATM   19  H   UNL     1     -41.376  59.097 -52.929  1.00  0.00     0.167 HD
HETATM   20  C   UNL     1     -41.143  54.833 -53.064  1.00  0.00    -0.048 A 
HETATM   21  C   UNL     1     -41.091  54.402 -51.724  1.00  0.00     0.010 A 
BRANCH  20  22
HETATM   22  C   UNL     1     -41.112  53.845 -54.249  1.00  0.00    -0.024 C 
HETATM   23  C   UNL     1     -40.785  52.390 -53.847  1.00  0.00     0.019 C 
HETATM   24  C   UNL     1     -42.493  53.828 -54.942  1.00  0.00     0.019 C 
HETATM   25  C   UNL     1     -40.038  54.287 -55.268  1.00  0.00     0.019 C 
ENDBRANCH  20  22
ENDBRANCH  11  12
ENDBRANCH  10  11
ENDBRANCH   8  10
ENDBRANCH   1   6
BRANCH   1  26
HETATM   26  C   UNL     1     -45.487  61.208 -54.688  1.00  0.00     0.270 C 
BRANCH  26  27
HETATM   27  C   UNL     1     -44.253  60.642 -55.398  1.00  0.00     0.181 C 
HETATM   28  O   UNL     1     -44.546  59.399 -56.068  1.00  0.00    -0.354 OA
HETATM   29  C   UNL     1     -43.479  59.232 -57.054  1.00  0.00     0.262 C 
HETATM   30  C   UNL     1     -42.811  60.608 -57.257  1.00  0.00     0.198 C 
HETATM   31  C   UNL     1     -43.741  61.547 -56.503  1.00  0.00     0.181 C 
BRANCH  29  32
HETATM   32  N   UNL     1     -44.004  58.662 -58.276  1.00  0.00    -0.294 N 
HETATM   33  C   UNL     1     -43.935  57.328 -58.574  1.00  0.00     0.167 A 
HETATM   34  C   UNL     1     -44.586  57.198 -59.789  1.00  0.00     0.149 A 
HETATM   35  N   UNL     1     -43.356  56.365 -57.839  1.00  0.00    -0.222 NA
HETATM   36  C   UNL     1     -44.672  55.897 -60.315  1.00  0.00     0.155 A 
HETATM   37  N   UNL     1     -45.018  58.432 -60.237  1.00  0.00    -0.236 NA
HETATM   38  N   UNL     1     -44.098  54.886 -59.622  1.00  0.00    -0.222 NA
HETATM   39  C   UNL     1     -43.493  55.164 -58.447  1.00  0.00     0.237 A 
HETATM   40  C   UNL     1     -44.663  59.283 -59.297  1.00  0.00     0.214 A 
BRANCH  36  41
HETATM   41  N   UNL     1     -45.304  55.596 -61.509  1.00  0.00    -0.382 N 
HETATM   42  H   UNL     1     -45.817  56.363 -61.926  1.00  0.00     0.157 HD
HETATM   43  H   UNL     1     -44.742  55.014 -62.118  1.00  0.00     0.157 HD
ENDBRANCH  36  41
ENDBRANCH  29  32
BRANCH  30  44
HETATM   44  O   UNL     1     -41.522  60.658 -56.625  1.00  0.00    -0.388 OA
HETATM   45  H   UNL     1     -41.388  61.582 -56.325  1.00  0.00     0.210 HD
ENDBRANCH  30  44
BRANCH  31  46
HETATM   46  O   UNL     1     -43.096  62.690 -55.975  1.00  0.00    -0.390 OA
HETATM   47  H   UNL     1     -43.282  62.694 -55.009  1.00  0.00     0.210 HD
ENDBRANCH  31  46
ENDBRANCH  26  27
ENDBRANCH   1  26
TORSDOF 12
ENDMDL
