MODEL 1
REMARK VINA RESULT:      -8.8      0.000      0.000
REMARK  7 active torsions:
REMARK  status: ('A' for Active; 'I' for Inactive)
REMARK    1  A    between atoms: C_2  and  C_3 
REMARK    2  A    between atoms: C_4  and  O_5 
REMARK    3  A    between atoms: N_10  and  N_11 
REMARK       I    between atoms: N_11  and  C_12 
REMARK    4  A    between atoms: C_12  and  C_13 
REMARK    5  A    between atoms: C_16  and  C_17 
REMARK    6  A    between atoms: C_17  and  S_18 
REMARK    7  A    between atoms: S_18  and  C_19 
ROOT
HETATM    1  C   UNL     1     -42.010  57.592 -51.073  1.00  0.00     0.033 A 
HETATM    2  C   UNL     1     -41.214  58.662 -50.653  1.00  0.00     0.017 A 
HETATM    3  C   UNL     1     -41.744  59.954 -50.600  1.00  0.00     0.009 A 
HETATM    4  C   UNL     1     -43.075  60.193 -50.975  1.00  0.00    -0.048 A 
HETATM    5  C   UNL     1     -43.852  59.123 -51.442  1.00  0.00     0.009 A 
HETATM    6  C   UNL     1     -43.325  57.829 -51.493  1.00  0.00     0.017 A 
ENDROOT
BRANCH   1   7
HETATM    7  C   UNL     1     -41.423  56.223 -51.048  1.00  0.00     0.271 C 
HETATM    8  N   UNL     1     -41.719  55.434 -52.151  1.00  0.00    -0.243 N 
HETATM    9  H   UNL     1     -42.360  55.768 -52.857  1.00  0.00     0.192 HD
HETATM   10  O   UNL     1     -40.780  55.853 -50.070  1.00  0.00    -0.266 OA
BRANCH   8  11
HETATM   11  N   UNL     1     -41.286  54.146 -52.183  1.00  0.00    -0.176 NA
HETATM   12  C   UNL     1     -40.682  53.695 -53.245  1.00  0.00     0.064 C 
HETATM   13  C   UNL     1     -40.430  54.521 -54.490  1.00  0.00     0.073 C 
BRANCH  12  14
HETATM   14  C   UNL     1     -40.239  52.266 -53.230  1.00  0.00     0.023 A 
HETATM   15  C   UNL     1     -39.862  51.655 -52.025  1.00  0.00     0.077 A 
HETATM   16  C   UNL     1     -39.493  50.312 -51.994  1.00  0.00     0.037 A 
HETATM   17  C   UNL     1     -39.467  49.570 -53.174  1.00  0.00     0.003 A 
HETATM   18  C   UNL     1     -39.805  50.174 -54.384  1.00  0.00     0.001 A 
HETATM   19  C   UNL     1     -40.188  51.519 -54.415  1.00  0.00     0.016 A 
BRANCH  15  20
HETATM   20  O   UNL     1     -39.839  52.312 -50.824  1.00  0.00    -0.360 OA
HETATM   21  H   UNL     1     -40.695  52.141 -50.365  1.00  0.00     0.217 HD
ENDBRANCH  15  20
ENDBRANCH  12  14
ENDBRANCH   8  11
ENDBRANCH   1   7
BRANCH   4  22
HETATM   22  C   UNL     1     -43.662  61.580 -50.875  1.00  0.00     0.121 C 
BRANCH  22  23
HETATM   23  S   UNL     1     -45.408  61.552 -50.378  1.00  0.00    -0.087 SA
BRANCH  23  24
HETATM   24  C   UNL     1     -45.236  61.926 -48.704  1.00  0.00     0.167 A 
HETATM   25  N   UNL     1     -45.404  63.091 -48.129  1.00  0.00    -0.223 NA
HETATM   26  C   UNL     1     -45.148  62.862 -46.798  1.00  0.00     0.086 A 
HETATM   27  C   UNL     1     -44.825  61.526 -46.572  1.00  0.00     0.063 A 
HETATM   28  C   UNL     1     -45.173  63.753 -45.716  1.00  0.00     0.034 A 
HETATM   29  N   UNL     1     -44.888  60.952 -47.816  1.00  0.00    -0.333 N 
HETATM   30  C   UNL     1     -44.522  61.015 -45.309  1.00  0.00     0.032 A 
HETATM   31  H   UNL     1     -44.714  59.986 -48.049  1.00  0.00     0.168 HD
HETATM   32  C   UNL     1     -44.553  61.920 -44.242  1.00  0.00     0.002 A 
HETATM   33  C   UNL     1     -44.871  63.267 -44.438  1.00  0.00     0.002 A 
ENDBRANCH  23  24
ENDBRANCH  22  23
ENDBRANCH   4  22
TORSDOF 7
ENDMDL
MODEL 2
REMARK VINA RESULT:      -8.6      6.021      8.324
REMARK  7 active torsions:
REMARK  status: ('A' for Active; 'I' for Inactive)
REMARK    1  A    between atoms: C_2  and  C_3 
REMARK    2  A    between atoms: C_4  and  O_5 
REMARK    3  A    between atoms: N_10  and  N_11 
REMARK       I    between atoms: N_11  and  C_12 
REMARK    4  A    between atoms: C_12  and  C_13 
REMARK    5  A    between atoms: C_16  and  C_17 
REMARK    6  A    between atoms: C_17  and  S_18 
REMARK    7  A    between atoms: S_18  and  C_19 
ROOT
HETATM    1  C   UNL     1     -43.449  56.920 -54.445  1.00  0.00     0.033 A 
HETATM    2  C   UNL     1     -44.797  57.256 -54.605  1.00  0.00     0.017 A 
HETATM    3  C   UNL     1     -45.154  58.504 -55.123  1.00  0.00     0.009 A 
HETATM    4  C   UNL     1     -44.167  59.436 -55.478  1.00  0.00    -0.048 A 
HETATM    5  C   UNL     1     -42.818  59.111 -55.268  1.00  0.00     0.009 A 
HETATM    6  C   UNL     1     -42.459  57.862 -54.753  1.00  0.00     0.017 A 
ENDROOT
BRANCH   1   7
HETATM    7  C   UNL     1     -43.115  55.554 -53.955  1.00  0.00     0.271 C 
HETATM    8  N   UNL     1     -41.820  55.398 -53.479  1.00  0.00    -0.243 N 
HETATM    9  H   UNL     1     -41.156  56.155 -53.556  1.00  0.00     0.192 HD
HETATM   10  O   UNL     1     -43.945  54.655 -54.042  1.00  0.00    -0.266 OA
BRANCH   8  11
HETATM   11  N   UNL     1     -41.403  54.169 -53.077  1.00  0.00    -0.176 NA
HETATM   12  C   UNL     1     -40.611  53.474 -53.842  1.00  0.00     0.064 C 
HETATM   13  C   UNL     1     -40.115  53.942 -55.194  1.00  0.00     0.073 C 
BRANCH  12  14
HETATM   14  C   UNL     1     -40.194  52.121 -53.354  1.00  0.00     0.023 A 
HETATM   15  C   UNL     1     -39.832  51.934 -52.012  1.00  0.00     0.077 A 
HETATM   16  C   UNL     1     -39.488  50.671 -51.538  1.00  0.00     0.037 A 
HETATM   17  C   UNL     1     -39.473  49.581 -52.408  1.00  0.00     0.003 A 
HETATM   18  C   UNL     1     -39.797  49.759 -53.752  1.00  0.00     0.001 A 
HETATM   19  C   UNL     1     -40.154  51.025 -54.227  1.00  0.00     0.016 A 
BRANCH  15  20
HETATM   20  O   UNL     1     -39.799  52.950 -51.093  1.00  0.00    -0.360 OA
HETATM   21  H   UNL     1     -40.729  53.201 -50.882  1.00  0.00     0.217 HD
ENDBRANCH  15  20
ENDBRANCH  12  14
ENDBRANCH   8  11
ENDBRANCH   1   7
BRANCH   4  22
HETATM   22  C   UNL     1     -44.550  60.767 -56.079  1.00  0.00     0.121 C 
BRANCH  22  23
HETATM   23  S   UNL     1     -43.864  60.989 -57.745  1.00  0.00    -0.087 SA
BRANCH  23  24
HETATM   24  C   UNL     1     -44.446  59.548 -58.490  1.00  0.00     0.167 A 
HETATM   25  N   UNL     1     -45.694  59.221 -58.720  1.00  0.00    -0.223 NA
HETATM   26  C   UNL     1     -45.625  57.987 -59.322  1.00  0.00     0.086 A 
HETATM   27  C   UNL     1     -44.303  57.570 -59.461  1.00  0.00     0.063 A 
HETATM   28  C   UNL     1     -46.656  57.156 -59.782  1.00  0.00     0.034 A 
HETATM   29  N   UNL     1     -43.570  58.594 -58.915  1.00  0.00    -0.333 N 
HETATM   30  C   UNL     1     -43.940  56.354 -60.044  1.00  0.00     0.032 A 
HETATM   31  H   UNL     1     -42.566  58.647 -58.837  1.00  0.00     0.168 HD
HETATM   32  C   UNL     1     -44.984  55.540 -60.497  1.00  0.00     0.002 A 
HETATM   33  C   UNL     1     -46.320  55.930 -60.369  1.00  0.00     0.002 A 
ENDBRANCH  23  24
ENDBRANCH  22  23
ENDBRANCH   4  22
TORSDOF 7
ENDMDL
MODEL 3
REMARK VINA RESULT:      -8.5      0.898      1.415
REMARK  7 active torsions:
REMARK  status: ('A' for Active; 'I' for Inactive)
REMARK    1  A    between atoms: C_2  and  C_3 
REMARK    2  A    between atoms: C_4  and  O_5 
REMARK    3  A    between atoms: N_10  and  N_11 
REMARK       I    between atoms: N_11  and  C_12 
REMARK    4  A    between atoms: C_12  and  C_13 
REMARK    5  A    between atoms: C_16  and  C_17 
REMARK    6  A    between atoms: C_17  and  S_18 
REMARK    7  A    between atoms: S_18  and  C_19 
ROOT
HETATM    1  C   UNL     1     -42.435  57.475 -51.847  1.00  0.00     0.033 A 
HETATM    2  C   UNL     1     -41.646  58.591 -52.140  1.00  0.00     0.017 A 
HETATM    3  C   UNL     1     -42.223  59.862 -52.211  1.00  0.00     0.009 A 
HETATM    4  C   UNL     1     -43.599  60.031 -51.999  1.00  0.00    -0.048 A 
HETATM    5  C   UNL     1     -44.393  58.900 -51.755  1.00  0.00     0.009 A 
HETATM    6  C   UNL     1     -43.817  57.629 -51.680  1.00  0.00     0.017 A 
ENDROOT
BRANCH   1   7
HETATM    7  C   UNL     1     -41.766  56.152 -51.713  1.00  0.00     0.271 C 
HETATM    8  N   UNL     1     -42.155  55.197 -52.642  1.00  0.00    -0.243 N 
HETATM    9  H   UNL     1     -42.904  55.395 -53.292  1.00  0.00     0.192 HD
HETATM   10  O   UNL     1     -40.976  55.957 -50.794  1.00  0.00    -0.266 OA
BRANCH   8  11
HETATM   11  N   UNL     1     -41.650  53.938 -52.555  1.00  0.00    -0.176 NA
HETATM   12  C   UNL     1     -40.811  53.516 -53.457  1.00  0.00     0.064 C 
HETATM   13  C   UNL     1     -40.353  54.344 -54.640  1.00  0.00     0.073 C 
BRANCH  12  14
HETATM   14  C   UNL     1     -40.298  52.117 -53.318  1.00  0.00     0.023 A 
HETATM   15  C   UNL     1     -39.817  51.659 -52.082  1.00  0.00     0.077 A 
HETATM   16  C   UNL     1     -39.381  50.345 -51.932  1.00  0.00     0.037 A 
HETATM   17  C   UNL     1     -39.392  49.478 -53.024  1.00  0.00     0.003 A 
HETATM   18  C   UNL     1     -39.834  49.930 -54.267  1.00  0.00     0.001 A 
HETATM   19  C   UNL     1     -40.284  51.246 -54.416  1.00  0.00     0.016 A 
BRANCH  15  20
HETATM   20  O   UNL     1     -39.751  52.446 -50.963  1.00  0.00    -0.360 OA
HETATM   21  H   UNL     1     -38.838  52.380 -50.597  1.00  0.00     0.217 HD
ENDBRANCH  15  20
ENDBRANCH  12  14
ENDBRANCH   8  11
ENDBRANCH   1   7
BRANCH   4  22
HETATM   22  C   UNL     1     -44.217  61.408 -52.031  1.00  0.00     0.121 C 
BRANCH  22  23
HETATM   23  S   UNL     1     -45.950  61.395 -51.488  1.00  0.00    -0.087 SA
BRANCH  23  24
HETATM   24  C   UNL     1     -45.721  61.615 -49.794  1.00  0.00     0.167 A 
HETATM   25  N   UNL     1     -45.713  60.689 -48.867  1.00  0.00    -0.223 NA
HETATM   26  C   UNL     1     -45.499  61.373 -47.693  1.00  0.00     0.086 A 
HETATM   27  C   UNL     1     -45.371  62.740 -47.927  1.00  0.00     0.063 A 
HETATM   28  C   UNL     1     -45.401  60.890 -46.381  1.00  0.00     0.034 A 
HETATM   29  N   UNL     1     -45.520  62.863 -49.285  1.00  0.00    -0.333 N 
HETATM   30  C   UNL     1     -45.143  63.672 -46.912  1.00  0.00     0.032 A 
HETATM   31  H   UNL     1     -45.487  63.715 -49.824  1.00  0.00     0.168 HD
HETATM   32  C   UNL     1     -45.048  63.170 -45.609  1.00  0.00     0.002 A 
HETATM   33  C   UNL     1     -45.175  61.803 -45.344  1.00  0.00     0.002 A 
ENDBRANCH  23  24
ENDBRANCH  22  23
ENDBRANCH   4  22
TORSDOF 7
ENDMDL
MODEL 4
REMARK VINA RESULT:      -8.5      3.640      4.842
REMARK  7 active torsions:
REMARK  status: ('A' for Active; 'I' for Inactive)
REMARK    1  A    between atoms: C_2  and  C_3 
REMARK    2  A    between atoms: C_4  and  O_5 
REMARK    3  A    between atoms: N_10  and  N_11 
REMARK       I    between atoms: N_11  and  C_12 
REMARK    4  A    between atoms: C_12  and  C_13 
REMARK    5  A    between atoms: C_16  and  C_17 
REMARK    6  A    between atoms: C_17  and  S_18 
REMARK    7  A    between atoms: S_18  and  C_19 
ROOT
HETATM    1  C   UNL     1     -43.925  56.637 -54.484  1.00  0.00     0.033 A 
HETATM    2  C   UNL     1     -43.556  57.132 -55.739  1.00  0.00     0.017 A 
HETATM    3  C   UNL     1     -43.883  58.442 -56.103  1.00  0.00     0.009 A 
HETATM    4  C   UNL     1     -44.592  59.269 -55.219  1.00  0.00    -0.048 A 
HETATM    5  C   UNL     1     -45.002  58.749 -53.982  1.00  0.00     0.009 A 
HETATM    6  C   UNL     1     -44.673  57.441 -53.615  1.00  0.00     0.017 A 
ENDROOT
BRANCH   1   7
HETATM    7  C   UNL     1     -43.495  55.261 -54.114  1.00  0.00     0.271 C 
HETATM    8  N   UNL     1     -42.295  55.183 -53.421  1.00  0.00    -0.243 N 
HETATM    9  H   UNL     1     -41.739  56.014 -53.272  1.00  0.00     0.192 HD
HETATM   10  O   UNL     1     -44.163  54.296 -54.472  1.00  0.00    -0.266 OA
BRANCH   8  11
HETATM   11  N   UNL     1     -41.787  53.963 -53.103  1.00  0.00    -0.176 NA
HETATM   12  C   UNL     1     -40.811  53.467 -53.808  1.00  0.00     0.064 C 
HETATM   13  C   UNL     1     -40.190  54.163 -55.001  1.00  0.00     0.073 C 
BRANCH  12  14
HETATM   14  C   UNL     1     -40.301  52.114 -53.421  1.00  0.00     0.023 A 
HETATM   15  C   UNL     1     -39.871  51.869 -52.108  1.00  0.00     0.077 A 
HETATM   16  C   UNL     1     -39.438  50.601 -51.727  1.00  0.00     0.037 A 
HETATM   17  C   UNL     1     -39.403  49.568 -52.662  1.00  0.00     0.003 A 
HETATM   18  C   UNL     1     -39.794  49.806 -53.978  1.00  0.00     0.001 A 
HETATM   19  C   UNL     1     -40.240  51.075 -54.360  1.00  0.00     0.016 A 
BRANCH  15  20
HETATM   20  O   UNL     1     -39.852  52.830 -51.132  1.00  0.00    -0.360 OA
HETATM   21  H   UNL     1     -39.298  52.497 -50.387  1.00  0.00     0.217 HD
ENDBRANCH  15  20
ENDBRANCH  12  14
ENDBRANCH   8  11
ENDBRANCH   1   7
BRANCH   4  22
HETATM   22  C   UNL     1     -44.907  60.697 -55.592  1.00  0.00     0.121 C 
BRANCH  22  23
HETATM   23  S   UNL     1     -43.466  61.787 -55.413  1.00  0.00    -0.087 SA
BRANCH  23  24
HETATM   24  C   UNL     1     -42.731  61.067 -54.029  1.00  0.00     0.167 A 
HETATM   25  N   UNL     1     -43.020  61.289 -52.771  1.00  0.00    -0.223 NA
HETATM   26  C   UNL     1     -42.157  60.481 -52.069  1.00  0.00     0.086 A 
HETATM   27  C   UNL     1     -41.338  59.754 -52.930  1.00  0.00     0.063 A 
HETATM   28  C   UNL     1     -42.016  60.312 -50.684  1.00  0.00     0.034 A 
HETATM   29  N   UNL     1     -41.730  60.155 -54.182  1.00  0.00    -0.333 N 
HETATM   30  C   UNL     1     -40.370  58.851 -52.486  1.00  0.00     0.032 A 
HETATM   31  H   UNL     1     -41.357  59.840 -55.064  1.00  0.00     0.168 HD
HETATM   32  C   UNL     1     -40.245  58.697 -51.100  1.00  0.00     0.002 A 
HETATM   33  C   UNL     1     -41.052  59.414 -50.212  1.00  0.00     0.002 A 
ENDBRANCH  23  24
ENDBRANCH  22  23
ENDBRANCH   4  22
TORSDOF 7
ENDMDL
MODEL 5
REMARK VINA RESULT:      -8.5      5.492     10.181
REMARK  7 active torsions:
REMARK  status: ('A' for Active; 'I' for Inactive)
REMARK    1  A    between atoms: C_2  and  C_3 
REMARK    2  A    between atoms: C_4  and  O_5 
REMARK    3  A    between atoms: N_10  and  N_11 
REMARK       I    between atoms: N_11  and  C_12 
REMARK    4  A    between atoms: C_12  and  C_13 
REMARK    5  A    between atoms: C_16  and  C_17 
REMARK    6  A    between atoms: C_17  and  S_18 
REMARK    7  A    between atoms: S_18  and  C_19 
ROOT
HETATM    1  C   UNL     1     -41.793  57.933 -53.231  1.00  0.00     0.033 A 
HETATM    2  C   UNL     1     -42.635  56.832 -53.419  1.00  0.00     0.017 A 
HETATM    3  C   UNL     1     -42.775  55.874 -52.412  1.00  0.00     0.009 A 
HETATM    4  C   UNL     1     -42.067  55.999 -51.207  1.00  0.00    -0.048 A 
HETATM    5  C   UNL     1     -41.186  57.079 -51.046  1.00  0.00     0.009 A 
HETATM    6  C   UNL     1     -41.047  58.041 -52.051  1.00  0.00     0.017 A 
ENDROOT
BRANCH   1   7
HETATM    7  C   UNL     1     -41.728  58.964 -54.304  1.00  0.00     0.271 C 
HETATM    8  N   UNL     1     -42.267  58.580 -55.524  1.00  0.00    -0.243 N 
HETATM    9  H   UNL     1     -42.592  57.633 -55.661  1.00  0.00     0.192 HD
HETATM   10  O   UNL     1     -41.175  60.037 -54.086  1.00  0.00    -0.266 OA
BRANCH   8  11
HETATM   11  N   UNL     1     -42.190  59.429 -56.583  1.00  0.00    -0.176 NA
HETATM   12  C   UNL     1     -42.167  58.950 -57.793  1.00  0.00     0.064 C 
HETATM   13  C   UNL     1     -42.209  57.471 -58.119  1.00  0.00     0.073 C 
BRANCH  12  14
HETATM   14  C   UNL     1     -42.067  59.931 -58.920  1.00  0.00     0.023 A 
HETATM   15  C   UNL     1     -41.300  61.097 -58.776  1.00  0.00     0.077 A 
HETATM   16  C   UNL     1     -41.163  61.992 -59.834  1.00  0.00     0.037 A 
HETATM   17  C   UNL     1     -41.815  61.748 -61.041  1.00  0.00     0.003 A 
HETATM   18  C   UNL     1     -42.609  60.611 -61.187  1.00  0.00     0.001 A 
HETATM   19  C   UNL     1     -42.738  59.705 -60.130  1.00  0.00     0.016 A 
BRANCH  15  20
HETATM   20  O   UNL     1     -40.642  61.427 -57.620  1.00  0.00    -0.360 OA
HETATM   21  H   UNL     1     -40.519  60.602 -57.093  1.00  0.00     0.217 HD
ENDBRANCH  15  20
ENDBRANCH  12  14
ENDBRANCH   8  11
ENDBRANCH   1   7
BRANCH   4  22
HETATM   22  C   UNL     1     -42.251  54.989 -50.101  1.00  0.00     0.121 C 
BRANCH  22  23
HETATM   23  S   UNL     1     -40.667  54.435 -49.408  1.00  0.00    -0.087 SA
BRANCH  23  24
HETATM   24  C   UNL     1     -40.343  53.107 -50.459  1.00  0.00     0.167 A 
HETATM   25  N   UNL     1     -40.206  51.847 -50.128  1.00  0.00    -0.223 NA
HETATM   26  C   UNL     1     -39.957  51.201 -51.316  1.00  0.00     0.086 A 
HETATM   27  C   UNL     1     -39.951  52.097 -52.382  1.00  0.00     0.063 A 
HETATM   28  C   UNL     1     -39.726  49.840 -51.563  1.00  0.00     0.034 A 
HETATM   29  N   UNL     1     -40.199  53.313 -51.799  1.00  0.00    -0.333 N 
HETATM   30  C   UNL     1     -39.726  51.711 -53.706  1.00  0.00     0.032 A 
HETATM   31  H   UNL     1     -40.268  54.206 -52.263  1.00  0.00     0.168 HD
HETATM   32  C   UNL     1     -39.498  50.349 -53.931  1.00  0.00     0.002 A 
HETATM   33  C   UNL     1     -39.496  49.427 -52.881  1.00  0.00     0.002 A 
ENDBRANCH  23  24
ENDBRANCH  22  23
ENDBRANCH   4  22
TORSDOF 7
ENDMDL
MODEL 6
REMARK VINA RESULT:      -8.2      4.413      5.654
REMARK  7 active torsions:
REMARK  status: ('A' for Active; 'I' for Inactive)
REMARK    1  A    between atoms: C_2  and  C_3 
REMARK    2  A    between atoms: C_4  and  O_5 
REMARK    3  A    between atoms: N_10  and  N_11 
REMARK       I    between atoms: N_11  and  C_12 
REMARK    4  A    between atoms: C_12  and  C_13 
REMARK    5  A    between atoms: C_16  and  C_17 
REMARK    6  A    between atoms: C_17  and  S_18 
REMARK    7  A    between atoms: S_18  and  C_19 
ROOT
HETATM    1  C   UNL     1     -44.662  58.128 -52.431  1.00  0.00     0.033 A 
HETATM    2  C   UNL     1     -45.030  59.152 -53.309  1.00  0.00     0.017 A 
HETATM    3  C   UNL     1     -45.670  60.296 -52.826  1.00  0.00     0.009 A 
HETATM    4  C   UNL     1     -45.959  60.426 -51.459  1.00  0.00    -0.048 A 
HETATM    5  C   UNL     1     -45.632  59.373 -50.592  1.00  0.00     0.009 A 
HETATM    6  C   UNL     1     -44.988  58.229 -51.073  1.00  0.00     0.017 A 
ENDROOT
BRANCH   1   7
HETATM    7  C   UNL     1     -43.921  56.959 -52.981  1.00  0.00     0.271 C 
HETATM    8  N   UNL     1     -43.740  55.905 -52.096  1.00  0.00    -0.243 N 
HETATM    9  H   UNL     1     -44.029  55.996 -51.132  1.00  0.00     0.192 HD
HETATM   10  O   UNL     1     -43.474  57.002 -54.123  1.00  0.00    -0.266 OA
BRANCH   8  11
HETATM   11  N   UNL     1     -43.014  54.825 -52.487  1.00  0.00    -0.176 NA
HETATM   12  C   UNL     1     -41.788  54.686 -52.070  1.00  0.00     0.064 C 
HETATM   13  C   UNL     1     -41.085  55.677 -51.165  1.00  0.00     0.073 C 
BRANCH  12  14
HETATM   14  C   UNL     1     -41.031  53.485 -52.543  1.00  0.00     0.023 A 
HETATM   15  C   UNL     1     -41.141  53.060 -53.876  1.00  0.00     0.077 A 
HETATM   16  C   UNL     1     -40.405  51.971 -54.337  1.00  0.00     0.037 A 
HETATM   17  C   UNL     1     -39.572  51.274 -53.465  1.00  0.00     0.003 A 
HETATM   18  C   UNL     1     -39.480  51.664 -52.129  1.00  0.00     0.001 A 
HETATM   19  C   UNL     1     -40.209  52.764 -51.667  1.00  0.00     0.016 A 
BRANCH  15  20
HETATM   20  O   UNL     1     -41.950  53.672 -54.796  1.00  0.00    -0.360 OA
HETATM   21  H   UNL     1     -42.008  54.629 -54.563  1.00  0.00     0.217 HD
ENDBRANCH  15  20
ENDBRANCH  12  14
ENDBRANCH   8  11
ENDBRANCH   1   7
BRANCH   4  22
HETATM   22  C   UNL     1     -46.610  61.681 -50.928  1.00  0.00     0.121 C 
BRANCH  22  23
HETATM   23  S   UNL     1     -46.802  62.950 -52.213  1.00  0.00    -0.087 SA
BRANCH  23  24
HETATM   24  C   UNL     1     -48.504  62.846 -52.467  1.00  0.00     0.167 A 
HETATM   25  N   UNL     1     -49.450  63.375 -51.731  1.00  0.00    -0.223 NA
HETATM   26  C   UNL     1     -50.620  63.001 -52.349  1.00  0.00     0.086 A 
HETATM   27  C   UNL     1     -50.365  62.236 -53.485  1.00  0.00     0.063 A 
HETATM   28  C   UNL     1     -51.948  63.282 -51.997  1.00  0.00     0.034 A 
HETATM   29  N   UNL     1     -48.997  62.152 -53.532  1.00  0.00    -0.333 N 
HETATM   30  C   UNL     1     -51.372  61.726 -54.307  1.00  0.00     0.032 A 
HETATM   31  H   UNL     1     -48.441  61.671 -54.222  1.00  0.00     0.168 HD
HETATM   32  C   UNL     1     -52.690  62.018 -53.938  1.00  0.00     0.002 A 
HETATM   33  C   UNL     1     -52.977  62.781 -52.803  1.00  0.00     0.002 A 
ENDBRANCH  23  24
ENDBRANCH  22  23
ENDBRANCH   4  22
TORSDOF 7
ENDMDL
MODEL 7
REMARK VINA RESULT:      -8.2      3.011     11.287
REMARK  7 active torsions:
REMARK  status: ('A' for Active; 'I' for Inactive)
REMARK    1  A    between atoms: C_2  and  C_3 
REMARK    2  A    between atoms: C_4  and  O_5 
REMARK    3  A    between atoms: N_10  and  N_11 
REMARK       I    between atoms: N_11  and  C_12 
REMARK    4  A    between atoms: C_12  and  C_13 
REMARK    5  A    between atoms: C_16  and  C_17 
REMARK    6  A    between atoms: C_17  and  S_18 
REMARK    7  A    between atoms: S_18  and  C_19 
ROOT
HETATM    1  C   UNL     1     -44.414  59.263 -51.135  1.00  0.00     0.033 A 
HETATM    2  C   UNL     1     -44.937  58.087 -51.682  1.00  0.00     0.017 A 
HETATM    3  C   UNL     1     -44.264  57.432 -52.716  1.00  0.00     0.009 A 
HETATM    4  C   UNL     1     -43.063  57.951 -53.223  1.00  0.00    -0.048 A 
HETATM    5  C   UNL     1     -42.571  59.158 -52.704  1.00  0.00     0.009 A 
HETATM    6  C   UNL     1     -43.241  59.813 -51.667  1.00  0.00     0.017 A 
ENDROOT
BRANCH   1   7
HETATM    7  C   UNL     1     -45.130  59.888 -49.988  1.00  0.00     0.271 C 
HETATM    8  N   UNL     1     -44.436  60.899 -49.339  1.00  0.00    -0.243 N 
HETATM    9  H   UNL     1     -43.482  61.109 -49.599  1.00  0.00     0.192 HD
HETATM   10  O   UNL     1     -46.230  59.461 -49.650  1.00  0.00    -0.266 OA
BRANCH   8  11
HETATM   11  N   UNL     1     -44.980  61.480 -48.237  1.00  0.00    -0.176 NA
HETATM   12  C   UNL     1     -45.026  62.778 -48.148  1.00  0.00     0.064 C 
HETATM   13  C   UNL     1     -44.487  63.718 -49.207  1.00  0.00     0.073 C 
BRANCH  12  14
HETATM   14  C   UNL     1     -45.623  63.362 -46.906  1.00  0.00     0.023 A 
HETATM   15  C   UNL     1     -46.924  63.011 -46.515  1.00  0.00     0.077 A 
HETATM   16  C   UNL     1     -47.472  63.514 -45.337  1.00  0.00     0.037 A 
HETATM   17  C   UNL     1     -46.736  64.397 -44.549  1.00  0.00     0.003 A 
HETATM   18  C   UNL     1     -45.456  64.782 -44.944  1.00  0.00     0.001 A 
HETATM   19  C   UNL     1     -44.900  64.270 -46.120  1.00  0.00     0.016 A 
BRANCH  15  20
HETATM   20  O   UNL     1     -47.725  62.167 -47.238  1.00  0.00    -0.360 OA
HETATM   21  H   UNL     1     -48.147  62.689 -47.959  1.00  0.00     0.217 HD
ENDBRANCH  15  20
ENDBRANCH  12  14
ENDBRANCH   8  11
ENDBRANCH   1   7
BRANCH   4  22
HETATM   22  C   UNL     1     -42.311  57.221 -54.310  1.00  0.00     0.121 C 
BRANCH  22  23
HETATM   23  S   UNL     1     -43.176  55.720 -54.853  1.00  0.00    -0.087 SA
BRANCH  23  24
HETATM   24  C   UNL     1     -42.162  54.528 -54.131  1.00  0.00     0.167 A 
HETATM   25  N   UNL     1     -41.700  54.515 -52.905  1.00  0.00    -0.223 NA
HETATM   26  C   UNL     1     -40.948  53.367 -52.828  1.00  0.00     0.086 A 
HETATM   27  C   UNL     1     -40.966  52.674 -54.037  1.00  0.00     0.063 A 
HETATM   28  C   UNL     1     -40.217  52.845 -51.752  1.00  0.00     0.034 A 
HETATM   29  N   UNL     1     -41.752  53.447 -54.854  1.00  0.00    -0.333 N 
HETATM   30  C   UNL     1     -40.289  51.470 -54.240  1.00  0.00     0.032 A 
HETATM   31  H   UNL     1     -41.995  53.262 -55.815  1.00  0.00     0.168 HD
HETATM   32  C   UNL     1     -39.565  50.967 -53.153  1.00  0.00     0.002 A 
HETATM   33  C   UNL     1     -39.526  51.640 -51.929  1.00  0.00     0.002 A 
ENDBRANCH  23  24
ENDBRANCH  22  23
ENDBRANCH   4  22
TORSDOF 7
ENDMDL
MODEL 8
REMARK VINA RESULT:      -8.0      4.990      7.426
REMARK  7 active torsions:
REMARK  status: ('A' for Active; 'I' for Inactive)
REMARK    1  A    between atoms: C_2  and  C_3 
REMARK    2  A    between atoms: C_4  and  O_5 
REMARK    3  A    between atoms: N_10  and  N_11 
REMARK       I    between atoms: N_11  and  C_12 
REMARK    4  A    between atoms: C_12  and  C_13 
REMARK    5  A    between atoms: C_16  and  C_17 
REMARK    6  A    between atoms: C_17  and  S_18 
REMARK    7  A    between atoms: S_18  and  C_19 
ROOT
HETATM    1  C   UNL     1     -42.331  57.779 -53.295  1.00  0.00     0.033 A 
HETATM    2  C   UNL     1     -41.475  58.642 -53.987  1.00  0.00     0.017 A 
HETATM    3  C   UNL     1     -41.931  59.893 -54.412  1.00  0.00     0.009 A 
HETATM    4  C   UNL     1     -43.251  60.292 -54.158  1.00  0.00    -0.048 A 
HETATM    5  C   UNL     1     -44.118  59.401 -53.507  1.00  0.00     0.009 A 
HETATM    6  C   UNL     1     -43.663  58.151 -53.078  1.00  0.00     0.017 A 
ENDROOT
BRANCH   1   7
HETATM    7  C   UNL     1     -41.781  56.485 -52.803  1.00  0.00     0.271 C 
HETATM    8  N   UNL     1     -41.968  55.403 -53.651  1.00  0.00    -0.243 N 
HETATM    9  H   UNL     1     -42.517  55.507 -54.493  1.00  0.00     0.192 HD
HETATM   10  O   UNL     1     -41.261  56.427 -51.692  1.00  0.00    -0.266 OA
BRANCH   8  11
HETATM   11  N   UNL     1     -41.563  54.168 -53.254  1.00  0.00    -0.176 NA
HETATM   12  C   UNL     1     -40.613  53.560 -53.906  1.00  0.00     0.064 C 
HETATM   13  C   UNL     1     -39.915  54.139 -55.120  1.00  0.00     0.073 C 
BRANCH  12  14
HETATM   14  C   UNL     1     -40.218  52.196 -53.433  1.00  0.00     0.023 A 
HETATM   15  C   UNL     1     -39.790  52.003 -52.111  1.00  0.00     0.077 A 
HETATM   16  C   UNL     1     -39.464  50.730 -51.649  1.00  0.00     0.037 A 
HETATM   17  C   UNL     1     -39.533  49.637 -52.511  1.00  0.00     0.003 A 
HETATM   18  C   UNL     1     -39.922  49.820 -53.837  1.00  0.00     0.001 A 
HETATM   19  C   UNL     1     -40.262  51.096 -54.300  1.00  0.00     0.016 A 
BRANCH  15  20
HETATM   20  O   UNL     1     -39.673  53.021 -51.202  1.00  0.00    -0.360 OA
HETATM   21  H   UNL     1     -38.844  53.516 -51.403  1.00  0.00     0.217 HD
ENDBRANCH  15  20
ENDBRANCH  12  14
ENDBRANCH   8  11
ENDBRANCH   1   7
BRANCH   4  22
HETATM   22  C   UNL     1     -43.733  61.661 -54.576  1.00  0.00     0.121 C 
BRANCH  22  23
HETATM   23  S   UNL     1     -45.144  61.572 -55.715  1.00  0.00    -0.087 SA
BRANCH  23  24
HETATM   24  C   UNL     1     -44.450  60.600 -56.958  1.00  0.00     0.167 A 
HETATM   25  N   UNL     1     -44.736  59.355 -57.245  1.00  0.00    -0.223 NA
HETATM   26  C   UNL     1     -43.914  59.043 -58.302  1.00  0.00     0.086 A 
HETATM   27  C   UNL     1     -43.121  60.132 -58.658  1.00  0.00     0.063 A 
HETATM   28  C   UNL     1     -43.789  57.843 -59.016  1.00  0.00     0.034 A 
HETATM   29  N   UNL     1     -43.488  61.116 -57.774  1.00  0.00    -0.333 N 
HETATM   30  C   UNL     1     -42.196  60.097 -59.703  1.00  0.00     0.032 A 
HETATM   31  H   UNL     1     -43.123  62.055 -57.726  1.00  0.00     0.168 HD
HETATM   32  C   UNL     1     -42.086  58.890 -60.403  1.00  0.00     0.002 A 
HETATM   33  C   UNL     1     -42.867  57.780 -60.067  1.00  0.00     0.002 A 
ENDBRANCH  23  24
ENDBRANCH  22  23
ENDBRANCH   4  22
TORSDOF 7
ENDMDL
MODEL 9
REMARK VINA RESULT:      -7.9      3.410      5.691
REMARK  7 active torsions:
REMARK  status: ('A' for Active; 'I' for Inactive)
REMARK    1  A    between atoms: C_2  and  C_3 
REMARK    2  A    between atoms: C_4  and  O_5 
REMARK    3  A    between atoms: N_10  and  N_11 
REMARK       I    between atoms: N_11  and  C_12 
REMARK    4  A    between atoms: C_12  and  C_13 
REMARK    5  A    between atoms: C_16  and  C_17 
REMARK    6  A    between atoms: C_17  and  S_18 
REMARK    7  A    between atoms: S_18  and  C_19 
ROOT
HETATM    1  C   UNL     1     -43.110  57.132 -51.323  1.00  0.00     0.033 A 
HETATM    2  C   UNL     1     -42.322  58.277 -51.478  1.00  0.00     0.017 A 
HETATM    3  C   UNL     1     -42.918  59.541 -51.510  1.00  0.00     0.009 A 
HETATM    4  C   UNL     1     -44.310  59.674 -51.397  1.00  0.00    -0.048 A 
HETATM    5  C   UNL     1     -45.097  58.518 -51.292  1.00  0.00     0.009 A 
HETATM    6  C   UNL     1     -44.503  57.253 -51.256  1.00  0.00     0.017 A 
ENDROOT
BRANCH   1   7
HETATM    7  C   UNL     1     -42.426  55.813 -51.225  1.00  0.00     0.271 C 
HETATM    8  N   UNL     1     -42.357  55.094 -52.411  1.00  0.00    -0.243 N 
HETATM    9  H   UNL     1     -42.824  55.435 -53.239  1.00  0.00     0.192 HD
HETATM   10  O   UNL     1     -42.022  55.414 -50.137  1.00  0.00    -0.266 OA
BRANCH   8  11
HETATM   11  N   UNL     1     -41.813  53.849 -52.404  1.00  0.00    -0.176 NA
HETATM   12  C   UNL     1     -40.922  53.528 -53.297  1.00  0.00     0.064 C 
HETATM   13  C   UNL     1     -40.442  54.466 -54.386  1.00  0.00     0.073 C 
BRANCH  12  14
HETATM   14  C   UNL     1     -40.368  52.139 -53.251  1.00  0.00     0.023 A 
HETATM   15  C   UNL     1     -39.887  51.610 -52.043  1.00  0.00     0.077 A 
HETATM   16  C   UNL     1     -39.413  50.302 -51.980  1.00  0.00     0.037 A 
HETATM   17  C   UNL     1     -39.386  49.514 -53.130  1.00  0.00     0.003 A 
HETATM   18  C   UNL     1     -39.828  50.039 -54.344  1.00  0.00     0.001 A 
HETATM   19  C   UNL     1     -40.316  51.348 -54.407  1.00  0.00     0.016 A 
BRANCH  15  20
HETATM   20  O   UNL     1     -39.858  52.317 -50.871  1.00  0.00    -0.360 OA
HETATM   21  H   UNL     1     -40.660  52.078 -50.349  1.00  0.00     0.217 HD
ENDBRANCH  15  20
ENDBRANCH  12  14
ENDBRANCH   8  11
ENDBRANCH   1   7
BRANCH   4  22
HETATM   22  C   UNL     1     -44.951  61.041 -51.387  1.00  0.00     0.121 C 
BRANCH  22  23
HETATM   23  S   UNL     1     -46.134  61.254 -52.748  1.00  0.00    -0.087 SA
BRANCH  23  24
HETATM   24  C   UNL     1     -45.165  60.698 -54.060  1.00  0.00     0.167 A 
HETATM   25  N   UNL     1     -44.055  61.231 -54.509  1.00  0.00    -0.223 NA
HETATM   26  C   UNL     1     -43.681  60.424 -55.558  1.00  0.00     0.086 A 
HETATM   27  C   UNL     1     -44.587  59.380 -55.734  1.00  0.00     0.063 A 
HETATM   28  C   UNL     1     -42.572  60.519 -56.409  1.00  0.00     0.034 A 
HETATM   29  N   UNL     1     -45.529  59.586 -54.759  1.00  0.00    -0.333 N 
HETATM   30  C   UNL     1     -44.449  58.407 -56.726  1.00  0.00     0.032 A 
HETATM   31  H   UNL     1     -46.347  59.025 -54.577  1.00  0.00     0.168 HD
HETATM   32  C   UNL     1     -43.335  58.520 -57.566  1.00  0.00     0.002 A 
HETATM   33  C   UNL     1     -42.411  59.557 -57.414  1.00  0.00     0.002 A 
ENDBRANCH  23  24
ENDBRANCH  22  23
ENDBRANCH   4  22
TORSDOF 7
ENDMDL
MODEL 10
REMARK VINA RESULT:      -7.8     18.486     21.926
REMARK  7 active torsions:
REMARK  status: ('A' for Active; 'I' for Inactive)
REMARK    1  A    between atoms: C_2  and  C_3 
REMARK    2  A    between atoms: C_4  and  O_5 
REMARK    3  A    between atoms: N_10  and  N_11 
REMARK       I    between atoms: N_11  and  C_12 
REMARK    4  A    between atoms: C_12  and  C_13 
REMARK    5  A    between atoms: C_16  and  C_17 
REMARK    6  A    between atoms: C_17  and  S_18 
REMARK    7  A    between atoms: S_18  and  C_19 
ROOT
HETATM    1  C   UNL     1     -35.529  41.706 -54.604  1.00  0.00     0.033 A 
HETATM    2  C   UNL     1     -36.890  41.812 -54.907  1.00  0.00     0.017 A 
HETATM    3  C   UNL     1     -37.311  41.894 -56.237  1.00  0.00     0.009 A 
HETATM    4  C   UNL     1     -36.374  41.880 -57.281  1.00  0.00    -0.048 A 
HETATM    5  C   UNL     1     -35.007  41.825 -56.968  1.00  0.00     0.009 A 
HETATM    6  C   UNL     1     -34.585  41.739 -55.638  1.00  0.00     0.017 A 
ENDROOT
BRANCH   1   7
HETATM    7  C   UNL     1     -35.133  41.553 -53.177  1.00  0.00     0.271 C 
HETATM    8  N   UNL     1     -34.594  40.318 -52.844  1.00  0.00    -0.243 N 
HETATM    9  H   UNL     1     -34.568  39.574 -53.527  1.00  0.00     0.192 HD
HETATM   10  O   UNL     1     -35.344  42.465 -52.384  1.00  0.00    -0.266 OA
BRANCH   8  11
HETATM   11  N   UNL     1     -34.269  40.061 -51.550  1.00  0.00    -0.176 NA
HETATM   12  C   UNL     1     -33.103  39.554 -51.265  1.00  0.00     0.064 C 
HETATM   13  C   UNL     1     -32.056  39.207 -52.303  1.00  0.00     0.073 C 
BRANCH  12  14
HETATM   14  C   UNL     1     -32.805  39.278 -49.825  1.00  0.00     0.023 A 
HETATM   15  C   UNL     1     -33.660  38.461 -49.070  1.00  0.00     0.077 A 
HETATM   16  C   UNL     1     -33.366  38.162 -47.741  1.00  0.00     0.037 A 
HETATM   17  C   UNL     1     -32.228  38.699 -47.142  1.00  0.00     0.003 A 
HETATM   18  C   UNL     1     -31.389  39.540 -47.870  1.00  0.00     0.001 A 
HETATM   19  C   UNL     1     -31.676  39.833 -49.207  1.00  0.00     0.016 A 
BRANCH  15  20
HETATM   20  O   UNL     1     -34.808  37.908 -49.571  1.00  0.00    -0.360 OA
HETATM   21  H   UNL     1     -34.955  38.276 -50.474  1.00  0.00     0.217 HD
ENDBRANCH  15  20
ENDBRANCH  12  14
ENDBRANCH   8  11
ENDBRANCH   1   7
BRANCH   4  22
HETATM   22  C   UNL     1     -36.828  41.924 -58.720  1.00  0.00     0.121 C 
BRANCH  22  23
HETATM   23  S   UNL     1     -38.084  40.662 -59.081  1.00  0.00    -0.087 SA
BRANCH  23  24
HETATM   24  C   UNL     1     -37.221  39.721 -60.239  1.00  0.00     0.167 A 
HETATM   25  N   UNL     1     -36.087  39.089 -60.062  1.00  0.00    -0.223 NA
HETATM   26  C   UNL     1     -35.824  38.501 -61.277  1.00  0.00     0.086 A 
HETATM   27  C   UNL     1     -36.829  38.784 -62.199  1.00  0.00     0.063 A 
HETATM   28  C   UNL     1     -34.740  37.703 -61.669  1.00  0.00     0.034 A 
HETATM   29  N   UNL     1     -37.710  39.572 -61.503  1.00  0.00    -0.333 N 
HETATM   30  C   UNL     1     -36.819  38.310 -63.512  1.00  0.00     0.032 A 
HETATM   31  H   UNL     1     -38.569  39.973 -61.847  1.00  0.00     0.168 HD
HETATM   32  C   UNL     1     -35.729  37.516 -63.884  1.00  0.00     0.002 A 
HETATM   33  C   UNL     1     -34.704  37.216 -62.981  1.00  0.00     0.002 A 
ENDBRANCH  23  24
ENDBRANCH  22  23
ENDBRANCH   4  22
TORSDOF 7
ENDMDL
