MODEL 1
REMARK VINA RESULT:      -7.3      0.000      0.000
REMARK  5 active torsions:
REMARK  status: ('A' for Active; 'I' for Inactive)
REMARK    1  A    between atoms: C_2  and  O_3 
REMARK    2  A    between atoms: O_3  and  C_4 
REMARK    3  A    between atoms: C_8  and  C_9 
REMARK    4  A    between atoms: C_9  and  N_10 
REMARK       I    between atoms: N_10  and  C_11 
REMARK    5  A    between atoms: C_11  and  C_12 
ROOT
HETATM    1  C   UNL     1     -42.008  54.424 -49.986  1.00  0.00     0.161 C 
ENDROOT
BRANCH   1   2
HETATM    2  C   UNL     1     -42.035  55.821 -50.535  1.00  0.00    -0.035 A 
HETATM    3  C   UNL     1     -41.054  56.752 -50.184  1.00  0.00     0.028 A 
HETATM    4  C   UNL     1     -41.143  58.033 -50.705  1.00  0.00     0.120 A 
HETATM    5  N   UNL     1     -42.126  58.444 -51.534  1.00  0.00    -0.237 NA
HETATM    6  C   UNL     1     -43.064  57.537 -51.861  1.00  0.00     0.165 A 
HETATM    7  C   UNL     1     -43.063  56.233 -51.386  1.00  0.00     0.066 A 
BRANCH   6   8
HETATM    8  O   UNL     1     -44.091  57.858 -52.717  1.00  0.00    -0.324 OA
BRANCH   8   9
HETATM    9  C   UNL     1     -43.843  58.031 -54.124  1.00  0.00     0.058 C 
HETATM   10  C   UNL     1     -42.610  57.260 -54.615  1.00  0.00     0.045 C 
HETATM   11  C   UNL     1     -43.811  59.509 -54.534  1.00  0.00     0.045 C 
HETATM   12  C   UNL     1     -45.078  57.392 -54.791  1.00  0.00     0.045 C 
ENDBRANCH   8   9
ENDBRANCH   6   8
ENDBRANCH   1   2
BRANCH   1  13
HETATM   13  N   UNL     1     -41.659  53.470 -51.010  1.00  0.00    -0.353 N 
HETATM   14  C   UNL     1     -40.345  53.122 -51.224  1.00  0.00     0.255 C 
HETATM   15  O   UNL     1     -39.401  53.588 -50.600  1.00  0.00    -0.268 OA
HETATM   16  H   UNL     1     -42.396  53.069 -51.576  1.00  0.00     0.163 HD
BRANCH  14  17
HETATM   17  C   UNL     1     -40.112  52.109 -52.270  1.00  0.00     0.075 A 
HETATM   18  C   UNL     1     -39.888  50.766 -51.936  1.00  0.00     0.051 A 
HETATM   19 CL   UNL     1     -39.845  50.203 -50.302  1.00  0.00    -0.083 Cl
HETATM   20  C   UNL     1     -39.702  49.813 -52.944  1.00  0.00     0.025 A 
HETATM   21  C   UNL     1     -39.747  50.190 -54.286  1.00  0.00     0.003 A 
HETATM   22  C   UNL     1     -39.972  51.524 -54.622  1.00  0.00     0.025 A 
HETATM   23  C   UNL     1     -40.154  52.484 -53.621  1.00  0.00     0.051 A 
HETATM   24 CL   UNL     1     -40.368  54.122 -54.133  1.00  0.00    -0.083 Cl
ENDBRANCH  14  17
ENDBRANCH   1  13
TORSDOF 5
ENDMDL
MODEL 2
REMARK VINA RESULT:      -7.2      2.151      3.678
REMARK  5 active torsions:
REMARK  status: ('A' for Active; 'I' for Inactive)
REMARK    1  A    between atoms: C_2  and  O_3 
REMARK    2  A    between atoms: O_3  and  C_4 
REMARK    3  A    between atoms: C_8  and  C_9 
REMARK    4  A    between atoms: C_9  and  N_10 
REMARK       I    between atoms: N_10  and  C_11 
REMARK    5  A    between atoms: C_11  and  C_12 
ROOT
HETATM    1  C   UNL     1     -42.132  54.157 -55.043  1.00  0.00     0.161 C 
ENDROOT
BRANCH   1   2
HETATM    2  C   UNL     1     -42.563  55.427 -54.368  1.00  0.00    -0.035 A 
HETATM    3  C   UNL     1     -43.915  55.761 -54.256  1.00  0.00     0.028 A 
HETATM    4  C   UNL     1     -44.250  56.958 -53.643  1.00  0.00     0.120 A 
HETATM    5  N   UNL     1     -43.348  57.829 -53.144  1.00  0.00    -0.237 NA
HETATM    6  C   UNL     1     -42.051  57.494 -53.261  1.00  0.00     0.165 A 
HETATM    7  C   UNL     1     -41.616  56.322 -53.864  1.00  0.00     0.066 A 
BRANCH   6   8
HETATM    8  O   UNL     1     -41.061  58.309 -52.763  1.00  0.00    -0.324 OA
BRANCH   8   9
HETATM    9  C   UNL     1     -40.976  58.577 -51.351  1.00  0.00     0.058 C 
HETATM   10  C   UNL     1     -41.122  57.313 -50.491  1.00  0.00     0.045 C 
HETATM   11  C   UNL     1     -41.927  59.697 -50.911  1.00  0.00     0.045 C 
HETATM   12  C   UNL     1     -39.534  59.093 -51.167  1.00  0.00     0.045 C 
ENDBRANCH   8   9
ENDBRANCH   6   8
ENDBRANCH   1   2
BRANCH   1  13
HETATM   13  N   UNL     1     -41.736  53.163 -54.075  1.00  0.00    -0.353 N 
HETATM   14  C   UNL     1     -40.418  52.786 -53.959  1.00  0.00     0.255 C 
HETATM   15  O   UNL     1     -39.512  53.233 -54.650  1.00  0.00    -0.268 OA
HETATM   16  H   UNL     1     -42.445  52.739 -53.492  1.00  0.00     0.163 HD
BRANCH  14  17
HETATM   17  C   UNL     1     -40.125  51.791 -52.910  1.00  0.00     0.075 A 
HETATM   18  C   UNL     1     -40.141  52.147 -51.555  1.00  0.00     0.051 A 
HETATM   19 CL   UNL     1     -40.473  53.754 -51.012  1.00  0.00    -0.083 Cl
HETATM   20  C   UNL     1     -39.893  51.181 -50.573  1.00  0.00     0.025 A 
HETATM   21  C   UNL     1     -39.640  49.858 -50.934  1.00  0.00     0.003 A 
HETATM   22  C   UNL     1     -39.627  49.500 -52.280  1.00  0.00     0.025 A 
HETATM   23  C   UNL     1     -39.868  50.460 -53.269  1.00  0.00     0.051 A 
HETATM   24 CL   UNL     1     -39.772  49.935 -54.915  1.00  0.00    -0.083 Cl
ENDBRANCH  14  17
ENDBRANCH   1  13
TORSDOF 5
ENDMDL
MODEL 3
REMARK VINA RESULT:      -7.2      0.103      1.913
REMARK  5 active torsions:
REMARK  status: ('A' for Active; 'I' for Inactive)
REMARK    1  A    between atoms: C_2  and  O_3 
REMARK    2  A    between atoms: O_3  and  C_4 
REMARK    3  A    between atoms: C_8  and  C_9 
REMARK    4  A    between atoms: C_9  and  N_10 
REMARK       I    between atoms: N_10  and  C_11 
REMARK    5  A    between atoms: C_11  and  C_12 
ROOT
HETATM    1  C   UNL     1     -42.007  54.443 -50.017  1.00  0.00     0.161 C 
ENDROOT
BRANCH   1   2
HETATM    2  C   UNL     1     -42.008  55.837 -50.577  1.00  0.00    -0.035 A 
HETATM    3  C   UNL     1     -41.010  56.752 -50.233  1.00  0.00     0.028 A 
HETATM    4  C   UNL     1     -41.076  58.031 -50.763  1.00  0.00     0.120 A 
HETATM    5  N   UNL     1     -42.052  58.453 -51.595  1.00  0.00    -0.237 NA
HETATM    6  C   UNL     1     -43.006  57.561 -51.915  1.00  0.00     0.165 A 
HETATM    7  C   UNL     1     -43.029  56.261 -51.430  1.00  0.00     0.066 A 
BRANCH   6   8
HETATM    8  O   UNL     1     -44.028  57.895 -52.773  1.00  0.00    -0.324 OA
BRANCH   8   9
HETATM    9  C   UNL     1     -43.779  58.045 -54.183  1.00  0.00     0.058 C 
HETATM   10  C   UNL     1     -42.650  57.139 -54.692  1.00  0.00     0.045 C 
HETATM   11  C   UNL     1     -43.582  59.512 -54.587  1.00  0.00     0.045 C 
HETATM   12  C   UNL     1     -45.089  57.557 -54.835  1.00  0.00     0.045 C 
ENDBRANCH   8   9
ENDBRANCH   6   8
ENDBRANCH   1   2
BRANCH   1  13
HETATM   13  N   UNL     1     -41.669  53.476 -51.033  1.00  0.00    -0.353 N 
HETATM   14  C   UNL     1     -40.362  53.095 -51.227  1.00  0.00     0.255 C 
HETATM   15  O   UNL     1     -39.414  53.539 -50.593  1.00  0.00    -0.268 OA
HETATM   16  H   UNL     1     -42.408  53.092 -51.607  1.00  0.00     0.163 HD
BRANCH  14  17
HETATM   17  C   UNL     1     -40.140  52.071 -52.267  1.00  0.00     0.075 A 
HETATM   18  C   UNL     1     -40.149  52.411 -53.627  1.00  0.00     0.051 A 
HETATM   19 CL   UNL     1     -40.436  54.021 -54.187  1.00  0.00    -0.083 Cl
HETATM   20  C   UNL     1     -39.904  51.433 -54.597  1.00  0.00     0.025 A 
HETATM   21  C   UNL     1     -39.641  50.117 -54.218  1.00  0.00     0.003 A 
HETATM   22  C   UNL     1     -39.629  49.775 -52.867  1.00  0.00     0.025 A 
HETATM   23  C   UNL     1     -39.878  50.746 -51.891  1.00  0.00     0.051 A 
HETATM   24 CL   UNL     1     -39.901  50.217 -50.244  1.00  0.00    -0.083 Cl
ENDBRANCH  14  17
ENDBRANCH   1  13
TORSDOF 5
ENDMDL
MODEL 4
REMARK VINA RESULT:      -7.0      1.750      2.455
REMARK  5 active torsions:
REMARK  status: ('A' for Active; 'I' for Inactive)
REMARK    1  A    between atoms: C_2  and  O_3 
REMARK    2  A    between atoms: O_3  and  C_4 
REMARK    3  A    between atoms: C_8  and  C_9 
REMARK    4  A    between atoms: C_9  and  N_10 
REMARK       I    between atoms: N_10  and  C_11 
REMARK    5  A    between atoms: C_11  and  C_12 
ROOT
HETATM    1  C   UNL     1     -42.223  54.576 -50.796  1.00  0.00     0.161 C 
ENDROOT
BRANCH   1   2
HETATM    2  C   UNL     1     -43.050  55.534 -51.605  1.00  0.00    -0.035 A 
HETATM    3  C   UNL     1     -43.037  55.495 -53.002  1.00  0.00     0.028 A 
HETATM    4  C   UNL     1     -43.804  56.419 -53.694  1.00  0.00     0.120 A 
HETATM    5  N   UNL     1     -44.566  57.362 -53.103  1.00  0.00    -0.237 NA
HETATM    6  C   UNL     1     -44.568  57.387 -51.758  1.00  0.00     0.165 A 
HETATM    7  C   UNL     1     -43.829  56.509 -50.977  1.00  0.00     0.066 A 
BRANCH   6   8
HETATM    8  O   UNL     1     -45.332  58.298 -51.067  1.00  0.00    -0.324 OA
BRANCH   8   9
HETATM    9  C   UNL     1     -45.035  59.705 -51.140  1.00  0.00     0.058 C 
HETATM   10  C   UNL     1     -45.854  60.435 -52.214  1.00  0.00     0.045 C 
HETATM   11  C   UNL     1     -43.531  59.979 -51.263  1.00  0.00     0.045 C 
HETATM   12  C   UNL     1     -45.494  60.242 -49.769  1.00  0.00     0.045 C 
ENDBRANCH   8   9
ENDBRANCH   6   8
ENDBRANCH   1   2
BRANCH   1  13
HETATM   13  N   UNL     1     -41.763  53.474 -51.605  1.00  0.00    -0.353 N 
HETATM   14  C   UNL     1     -40.440  53.097 -51.587  1.00  0.00     0.255 C 
HETATM   15  O   UNL     1     -39.576  53.654 -50.922  1.00  0.00    -0.268 OA
HETATM   16  H   UNL     1     -42.428  52.991 -52.195  1.00  0.00     0.163 HD
BRANCH  14  17
HETATM   17  C   UNL     1     -40.093  51.933 -52.424  1.00  0.00     0.075 A 
HETATM   18  C   UNL     1     -39.900  50.667 -51.854  1.00  0.00     0.051 A 
HETATM   19 CL   UNL     1     -40.025  50.377 -50.154  1.00  0.00    -0.083 Cl
HETATM   20  C   UNL     1     -39.604  49.568 -52.668  1.00  0.00     0.025 A 
HETATM   21  C   UNL     1     -39.510  49.721 -54.051  1.00  0.00     0.003 A 
HETATM   22  C   UNL     1     -39.705  50.978 -54.622  1.00  0.00     0.025 A 
HETATM   23  C   UNL     1     -39.995  52.083 -53.815  1.00  0.00     0.051 A 
HETATM   24 CL   UNL     1     -40.162  53.612 -54.606  1.00  0.00    -0.083 Cl
ENDBRANCH  14  17
ENDBRANCH   1  13
TORSDOF 5
ENDMDL
MODEL 5
REMARK VINA RESULT:      -6.9      1.512      3.081
REMARK  5 active torsions:
REMARK  status: ('A' for Active; 'I' for Inactive)
REMARK    1  A    between atoms: C_2  and  O_3 
REMARK    2  A    between atoms: O_3  and  C_4 
REMARK    3  A    between atoms: C_8  and  C_9 
REMARK    4  A    between atoms: C_9  and  N_10 
REMARK       I    between atoms: N_10  and  C_11 
REMARK    5  A    between atoms: C_11  and  C_12 
ROOT
HETATM    1  C   UNL     1     -42.108  54.600 -50.738  1.00  0.00     0.161 C 
ENDROOT
BRANCH   1   2
HETATM    2  C   UNL     1     -42.684  55.712 -51.567  1.00  0.00    -0.035 A 
HETATM    3  C   UNL     1     -42.893  55.554 -52.940  1.00  0.00     0.028 A 
HETATM    4  C   UNL     1     -43.408  56.623 -53.656  1.00  0.00     0.120 A 
HETATM    5  N   UNL     1     -43.721  57.817 -53.110  1.00  0.00    -0.237 NA
HETATM    6  C   UNL     1     -43.513  57.954 -51.788  1.00  0.00     0.165 A 
HETATM    7  C   UNL     1     -42.997  56.944 -50.988  1.00  0.00     0.066 A 
BRANCH   6   8
HETATM    8  O   UNL     1     -43.823  59.126 -51.140  1.00  0.00    -0.324 OA
BRANCH   8   9
HETATM    9  C   UNL     1     -42.927  60.251 -51.196  1.00  0.00     0.058 C 
HETATM   10  C   UNL     1     -43.141  61.127 -52.439  1.00  0.00     0.045 C 
HETATM   11  C   UNL     1     -41.460  59.839 -51.016  1.00  0.00     0.045 C 
HETATM   12  C   UNL     1     -43.326  61.094 -49.968  1.00  0.00     0.045 C 
ENDBRANCH   8   9
ENDBRANCH   6   8
ENDBRANCH   1   2
BRANCH   1  13
HETATM   13  N   UNL     1     -41.698  53.493 -51.567  1.00  0.00    -0.353 N 
HETATM   14  C   UNL     1     -40.391  53.065 -51.566  1.00  0.00     0.255 C 
HETATM   15  O   UNL     1     -39.500  53.578 -50.903  1.00  0.00    -0.268 OA
HETATM   16  H   UNL     1     -42.386  53.043 -52.157  1.00  0.00     0.163 HD
BRANCH  14  17
HETATM   17  C   UNL     1     -40.097  51.900 -52.422  1.00  0.00     0.075 A 
HETATM   18  C   UNL     1     -39.981  52.039 -53.813  1.00  0.00     0.051 A 
HETATM   19 CL   UNL     1     -40.193  53.551 -54.623  1.00  0.00    -0.083 Cl
HETATM   20  C   UNL     1     -39.669  50.928 -54.605  1.00  0.00     0.025 A 
HETATM   21  C   UNL     1     -39.461  49.680 -54.019  1.00  0.00     0.003 A 
HETATM   22  C   UNL     1     -39.572  49.539 -52.637  1.00  0.00     0.025 A 
HETATM   23  C   UNL     1     -39.889  50.643 -51.837  1.00  0.00     0.051 A 
HETATM   24 CL   UNL     1     -40.064  50.359 -50.140  1.00  0.00    -0.083 Cl
ENDBRANCH  14  17
ENDBRANCH   1  13
TORSDOF 5
ENDMDL
MODEL 6
REMARK VINA RESULT:      -6.9      2.142      3.212
REMARK  5 active torsions:
REMARK  status: ('A' for Active; 'I' for Inactive)
REMARK    1  A    between atoms: C_2  and  O_3 
REMARK    2  A    between atoms: O_3  and  C_4 
REMARK    3  A    between atoms: C_8  and  C_9 
REMARK    4  A    between atoms: C_9  and  N_10 
REMARK       I    between atoms: N_10  and  C_11 
REMARK    5  A    between atoms: C_11  and  C_12 
ROOT
HETATM    1  C   UNL     1     -42.360  56.749 -50.952  1.00  0.00     0.161 C 
ENDROOT
BRANCH   1   2
HETATM    2  C   UNL     1     -42.192  58.036 -51.709  1.00  0.00    -0.035 A 
HETATM    3  C   UNL     1     -42.374  59.270 -51.080  1.00  0.00     0.028 A 
HETATM    4  C   UNL     1     -42.228  60.423 -51.836  1.00  0.00     0.120 A 
HETATM    5  N   UNL     1     -41.921  60.430 -53.150  1.00  0.00    -0.237 NA
HETATM    6  C   UNL     1     -41.750  59.234 -53.741  1.00  0.00     0.165 A 
HETATM    7  C   UNL     1     -41.881  58.026 -53.070  1.00  0.00     0.066 A 
BRANCH   6   8
HETATM    8  O   UNL     1     -41.413  59.142 -55.071  1.00  0.00    -0.324 OA
BRANCH   8   9
HETATM    9  C   UNL     1     -42.434  58.993 -56.075  1.00  0.00     0.058 C 
HETATM   10  C   UNL     1     -43.809  59.495 -55.611  1.00  0.00     0.045 C 
HETATM   11  C   UNL     1     -42.491  57.569 -56.642  1.00  0.00     0.045 C 
HETATM   12  C   UNL     1     -41.964  59.926 -57.210  1.00  0.00     0.045 C 
ENDBRANCH   8   9
ENDBRANCH   6   8
ENDBRANCH   1   2
BRANCH   1  13
HETATM   13  N   UNL     1     -41.587  55.689 -51.551  1.00  0.00    -0.353 N 
HETATM   14  C   UNL     1     -42.135  54.440 -51.732  1.00  0.00     0.255 C 
HETATM   15  O   UNL     1     -43.272  54.134 -51.398  1.00  0.00    -0.268 OA
HETATM   16  H   UNL     1     -40.631  55.876 -51.826  1.00  0.00     0.163 HD
BRANCH  14  17
HETATM   17  C   UNL     1     -41.265  53.447 -52.390  1.00  0.00     0.075 A 
HETATM   18  C   UNL     1     -41.289  53.277 -53.781  1.00  0.00     0.051 A 
HETATM   19 CL   UNL     1     -42.335  54.182 -54.817  1.00  0.00    -0.083 Cl
HETATM   20  C   UNL     1     -40.432  52.353 -54.390  1.00  0.00     0.025 A 
HETATM   21  C   UNL     1     -39.543  51.603 -53.620  1.00  0.00     0.003 A 
HETATM   22  C   UNL     1     -39.515  51.771 -52.237  1.00  0.00     0.025 A 
HETATM   23  C   UNL     1     -40.371  52.689 -51.619  1.00  0.00     0.051 A 
HETATM   24 CL   UNL     1     -40.306  52.786 -49.893  1.00  0.00    -0.083 Cl
ENDBRANCH  14  17
ENDBRANCH   1  13
TORSDOF 5
ENDMDL
MODEL 7
REMARK VINA RESULT:      -6.8      3.203      4.231
REMARK  5 active torsions:
REMARK  status: ('A' for Active; 'I' for Inactive)
REMARK    1  A    between atoms: C_2  and  O_3 
REMARK    2  A    between atoms: O_3  and  C_4 
REMARK    3  A    between atoms: C_8  and  C_9 
REMARK    4  A    between atoms: C_9  and  N_10 
REMARK       I    between atoms: N_10  and  C_11 
REMARK    5  A    between atoms: C_11  and  C_12 
ROOT
HETATM    1  C   UNL     1     -43.619  56.465 -53.286  1.00  0.00     0.161 C 
ENDROOT
BRANCH   1   2
HETATM    2  C   UNL     1     -43.167  57.055 -54.591  1.00  0.00    -0.035 A 
HETATM    3  C   UNL     1     -42.717  58.375 -54.667  1.00  0.00     0.028 A 
HETATM    4  C   UNL     1     -42.334  58.872 -55.902  1.00  0.00     0.120 A 
HETATM    5  N   UNL     1     -42.370  58.157 -57.047  1.00  0.00    -0.237 NA
HETATM    6  C   UNL     1     -42.807  56.888 -56.958  1.00  0.00     0.165 A 
HETATM    7  C   UNL     1     -43.217  56.304 -55.767  1.00  0.00     0.066 A 
BRANCH   6   8
HETATM    8  O   UNL     1     -42.857  56.077 -58.067  1.00  0.00    -0.324 OA
BRANCH   8   9
HETATM    9  C   UNL     1     -43.659  56.444 -59.205  1.00  0.00     0.058 C 
HETATM   10  C   UNL     1     -42.864  57.194 -60.282  1.00  0.00     0.045 C 
HETATM   11  C   UNL     1     -44.941  57.184 -58.801  1.00  0.00     0.045 C 
HETATM   12  C   UNL     1     -44.077  55.086 -59.806  1.00  0.00     0.045 C 
ENDBRANCH   8   9
ENDBRANCH   6   8
ENDBRANCH   1   2
BRANCH   1  13
HETATM   13  N   UNL     1     -42.875  55.270 -52.970  1.00  0.00    -0.353 N 
HETATM   14  C   UNL     1     -41.625  55.355 -52.401  1.00  0.00     0.255 C 
HETATM   15  O   UNL     1     -41.058  56.408 -52.142  1.00  0.00    -0.268 OA
HETATM   16  H   UNL     1     -43.282  54.369 -53.184  1.00  0.00     0.163 HD
BRANCH  14  17
HETATM   17  C   UNL     1     -40.975  54.069 -52.086  1.00  0.00     0.075 A 
HETATM   18  C   UNL     1     -40.945  53.578 -50.773  1.00  0.00     0.051 A 
HETATM   19 CL   UNL     1     -41.632  54.435 -49.438  1.00  0.00    -0.083 Cl
HETATM   20  C   UNL     1     -40.353  52.340 -50.499  1.00  0.00     0.025 A 
HETATM   21  C   UNL     1     -39.798  51.582 -51.530  1.00  0.00     0.003 A 
HETATM   22  C   UNL     1     -39.828  52.065 -52.837  1.00  0.00     0.025 A 
HETATM   23  C   UNL     1     -40.413  53.304 -53.119  1.00  0.00     0.051 A 
HETATM   24 CL   UNL     1     -40.352  53.847 -54.760  1.00  0.00    -0.083 Cl
ENDBRANCH  14  17
ENDBRANCH   1  13
TORSDOF 5
ENDMDL
MODEL 8
REMARK VINA RESULT:      -6.8      3.238      4.573
REMARK  5 active torsions:
REMARK  status: ('A' for Active; 'I' for Inactive)
REMARK    1  A    between atoms: C_2  and  O_3 
REMARK    2  A    between atoms: O_3  and  C_4 
REMARK    3  A    between atoms: C_8  and  C_9 
REMARK    4  A    between atoms: C_9  and  N_10 
REMARK       I    between atoms: N_10  and  C_11 
REMARK    5  A    between atoms: C_11  and  C_12 
ROOT
HETATM    1  C   UNL     1     -43.598  56.358 -53.359  1.00  0.00     0.161 C 
ENDROOT
BRANCH   1   2
HETATM    2  C   UNL     1     -43.174  56.936 -54.678  1.00  0.00    -0.035 A 
HETATM    3  C   UNL     1     -42.781  58.273 -54.787  1.00  0.00     0.028 A 
HETATM    4  C   UNL     1     -42.421  58.755 -56.035  1.00  0.00     0.120 A 
HETATM    5  N   UNL     1     -42.429  58.013 -57.162  1.00  0.00    -0.237 NA
HETATM    6  C   UNL     1     -42.810  56.729 -57.042  1.00  0.00     0.165 A 
HETATM    7  C   UNL     1     -43.194  56.156 -55.837  1.00  0.00     0.066 A 
BRANCH   6   8
HETATM    8  O   UNL     1     -42.828  55.890 -58.131  1.00  0.00    -0.324 OA
BRANCH   8   9
HETATM    9  C   UNL     1     -43.785  56.086 -59.189  1.00  0.00     0.058 C 
HETATM   10  C   UNL     1     -44.897  57.076 -58.816  1.00  0.00     0.045 C 
HETATM   11  C   UNL     1     -44.338  54.760 -59.729  1.00  0.00     0.045 C 
HETATM   12  C   UNL     1     -42.952  56.733 -60.314  1.00  0.00     0.045 C 
ENDBRANCH   8   9
ENDBRANCH   6   8
ENDBRANCH   1   2
BRANCH   1  13
HETATM   13  N   UNL     1     -42.867  55.151 -53.061  1.00  0.00    -0.353 N 
HETATM   14  C   UNL     1     -41.601  55.213 -52.525  1.00  0.00     0.255 C 
HETATM   15  O   UNL     1     -41.009  56.256 -52.281  1.00  0.00    -0.268 OA
HETATM   16  H   UNL     1     -43.296  54.257 -53.264  1.00  0.00     0.163 HD
BRANCH  14  17
HETATM   17  C   UNL     1     -40.967  53.915 -52.226  1.00  0.00     0.075 A 
HETATM   18  C   UNL     1     -40.378  53.150 -53.243  1.00  0.00     0.051 A 
HETATM   19 CL   UNL     1     -40.369  53.643 -54.900  1.00  0.00    -0.083 Cl
HETATM   20  C   UNL     1     -39.752  51.937 -52.935  1.00  0.00     0.025 A 
HETATM   21  C   UNL     1     -39.699  51.486 -51.616  1.00  0.00     0.003 A 
HETATM   22  C   UNL     1     -40.280  52.246 -50.603  1.00  0.00     0.025 A 
HETATM   23  C   UNL     1     -40.914  53.457 -50.902  1.00  0.00     0.051 A 
HETATM   24 CL   UNL     1     -41.658  54.300 -49.588  1.00  0.00    -0.083 Cl
ENDBRANCH  14  17
ENDBRANCH   1  13
TORSDOF 5
ENDMDL
MODEL 9
REMARK VINA RESULT:      -6.8      2.217      2.731
REMARK  5 active torsions:
REMARK  status: ('A' for Active; 'I' for Inactive)
REMARK    1  A    between atoms: C_2  and  O_3 
REMARK    2  A    between atoms: O_3  and  C_4 
REMARK    3  A    between atoms: C_8  and  C_9 
REMARK    4  A    between atoms: C_9  and  N_10 
REMARK       I    between atoms: N_10  and  C_11 
REMARK    5  A    between atoms: C_11  and  C_12 
ROOT
HETATM    1  C   UNL     1     -42.638  56.673 -51.248  1.00  0.00     0.161 C 
ENDROOT
BRANCH   1   2
HETATM    2  C   UNL     1     -42.382  57.977 -51.948  1.00  0.00    -0.035 A 
HETATM    3  C   UNL     1     -42.482  59.193 -51.267  1.00  0.00     0.028 A 
HETATM    4  C   UNL     1     -42.256  60.364 -51.972  1.00  0.00     0.120 A 
HETATM    5  N   UNL     1     -41.945  60.407 -53.285  1.00  0.00    -0.237 NA
HETATM    6  C   UNL     1     -41.853  59.228 -53.927  1.00  0.00     0.165 A 
HETATM    7  C   UNL     1     -42.068  58.004 -53.309  1.00  0.00     0.066 A 
BRANCH   6   8
HETATM    8  O   UNL     1     -41.520  59.172 -55.260  1.00  0.00    -0.324 OA
BRANCH   8   9
HETATM    9  C   UNL     1     -42.465  59.577 -56.267  1.00  0.00     0.058 C 
HETATM   10  C   UNL     1     -42.174  60.972 -56.836  1.00  0.00     0.045 C 
HETATM   11  C   UNL     1     -43.918  59.427 -55.798  1.00  0.00     0.045 C 
HETATM   12  C   UNL     1     -42.238  58.561 -57.405  1.00  0.00     0.045 C 
ENDBRANCH   8   9
ENDBRANCH   6   8
ENDBRANCH   1   2
BRANCH   1  13
HETATM   13  N   UNL     1     -41.782  55.631 -51.759  1.00  0.00    -0.353 N 
HETATM   14  C   UNL     1     -42.240  54.338 -51.862  1.00  0.00     0.255 C 
HETATM   15  O   UNL     1     -43.360  53.976 -51.526  1.00  0.00    -0.268 OA
HETATM   16  H   UNL     1     -40.836  55.865 -52.030  1.00  0.00     0.163 HD
BRANCH  14  17
HETATM   17  C   UNL     1     -41.290  53.365 -52.434  1.00  0.00     0.075 A 
HETATM   18  C   UNL     1     -40.359  52.703 -51.621  1.00  0.00     0.051 A 
HETATM   19 CL   UNL     1     -40.235  52.984 -49.919  1.00  0.00    -0.083 Cl
HETATM   20  C   UNL     1     -39.488  51.759 -52.176  1.00  0.00     0.025 A 
HETATM   21  C   UNL     1     -39.546  51.463 -53.538  1.00  0.00     0.003 A 
HETATM   22  C   UNL     1     -40.471  52.116 -54.349  1.00  0.00     0.025 A 
HETATM   23  C   UNL     1     -41.342  53.066 -53.803  1.00  0.00     0.051 A 
HETATM   24 CL   UNL     1     -42.416  53.868 -54.896  1.00  0.00    -0.083 Cl
ENDBRANCH  14  17
ENDBRANCH   1  13
TORSDOF 5
ENDMDL
MODEL 10
REMARK VINA RESULT:      -6.8      2.646      3.923
REMARK  5 active torsions:
REMARK  status: ('A' for Active; 'I' for Inactive)
REMARK    1  A    between atoms: C_2  and  O_3 
REMARK    2  A    between atoms: O_3  and  C_4 
REMARK    3  A    between atoms: C_8  and  C_9 
REMARK    4  A    between atoms: C_9  and  N_10 
REMARK       I    between atoms: N_10  and  C_11 
REMARK    5  A    between atoms: C_11  and  C_12 
ROOT
HETATM    1  C   UNL     1     -42.032  57.114 -52.313  1.00  0.00     0.161 C 
ENDROOT
BRANCH   1   2
HETATM    2  C   UNL     1     -42.940  57.504 -53.444  1.00  0.00    -0.035 A 
HETATM    3  C   UNL     1     -44.311  57.681 -53.239  1.00  0.00     0.028 A 
HETATM    4  C   UNL     1     -45.102  58.019 -54.325  1.00  0.00     0.120 A 
HETATM    5  N   UNL     1     -44.630  58.187 -55.578  1.00  0.00    -0.237 NA
HETATM    6  C   UNL     1     -43.309  58.012 -55.760  1.00  0.00     0.165 A 
HETATM    7  C   UNL     1     -42.437  57.668 -54.736  1.00  0.00     0.066 A 
BRANCH   6   8
HETATM    8  O   UNL     1     -42.735  58.184 -56.998  1.00  0.00    -0.324 OA
BRANCH   8   9
HETATM    9  C   UNL     1     -43.146  57.372 -58.113  1.00  0.00     0.058 C 
HETATM   10  C   UNL     1     -44.507  57.787 -58.689  1.00  0.00     0.045 C 
HETATM   11  C   UNL     1     -43.076  55.871 -57.799  1.00  0.00     0.045 C 
HETATM   12  C   UNL     1     -42.082  57.670 -59.189  1.00  0.00     0.045 C 
ENDBRANCH   8   9
ENDBRANCH   6   8
ENDBRANCH   1   2
BRANCH   1  13
HETATM   13  N   UNL     1     -41.341  55.882 -52.602  1.00  0.00    -0.353 N 
HETATM   14  C   UNL     1     -41.846  54.678 -52.166  1.00  0.00     0.255 C 
HETATM   15  O   UNL     1     -42.873  54.561 -51.510  1.00  0.00    -0.268 OA
HETATM   16  H   UNL     1     -40.473  55.918 -53.120  1.00  0.00     0.163 HD
BRANCH  14  17
HETATM   17  C   UNL     1     -41.076  53.481 -52.553  1.00  0.00     0.075 A 
HETATM   18  C   UNL     1     -41.202  52.927 -53.834  1.00  0.00     0.051 A 
HETATM   19 CL   UNL     1     -42.267  53.572 -55.034  1.00  0.00    -0.083 Cl
HETATM   20  C   UNL     1     -40.438  51.811 -54.195  1.00  0.00     0.025 A 
HETATM   21  C   UNL     1     -39.540  51.249 -53.287  1.00  0.00     0.003 A 
HETATM   22  C   UNL     1     -39.409  51.800 -52.013  1.00  0.00     0.025 A 
HETATM   23  C   UNL     1     -40.173  52.912 -51.643  1.00  0.00     0.051 A 
HETATM   24 CL   UNL     1     -39.987  53.489 -50.023  1.00  0.00    -0.083 Cl
ENDBRANCH  14  17
ENDBRANCH   1  13
TORSDOF 5
ENDMDL
