MODEL 1
REMARK VINA RESULT:      -8.0      0.000      0.000
REMARK  9 active torsions:
REMARK  status: ('A' for Active; 'I' for Inactive)
REMARK    1  A    between atoms: C_2  and  C_3 
REMARK    2  A    between atoms: C_7  and  C_8 
REMARK    3  A    between atoms: C_8  and  C_9 
REMARK       I    between atoms: C_9  and  N_10 
REMARK    4  A    between atoms: N_10  and  C_11 
REMARK    5  A    between atoms: C_11  and  C_12 
REMARK    6  A    between atoms: C_12  and  C_13 
REMARK    7  A    between atoms: C_21  and  C_22 
REMARK    8  A    between atoms: C_32  and  C_33 
REMARK    9  A    between atoms: C_33  and  O_34 
ROOT
HETATM    1  C   UNL     1     -42.595  59.749 -51.194  1.00  0.00     0.051 C 
HETATM    2  N   UNL     1     -43.951  59.898 -51.527  1.00  0.00    -0.228 NA
HETATM    3  C   UNL     1     -44.291  59.456 -52.694  1.00  0.00     0.170 C 
HETATM    4  N   UNL     1     -43.344  58.553 -53.556  1.00  0.00    -0.318 N 
HETATM    5  C   UNL     1     -43.311  59.044 -54.756  1.00  0.00     0.011 C 
HETATM    6  C   UNL     1     -42.557  57.749 -52.591  1.00  0.00     0.166 C 
HETATM    7  S   UNL     1     -45.605  60.034 -53.641  1.00  0.00    -0.086 SA
HETATM    8  C   UNL     1     -44.529  59.892 -55.120  1.00  0.00     0.135 C 
HETATM    9  C   UNL     1     -41.842  58.770 -51.759  1.00  0.00     0.069 C 
ENDROOT
BRANCH   5  10
HETATM   10  C   UNL     1     -42.037  59.020 -55.555  1.00  0.00     0.156 C 
BRANCH  10  11
HETATM   11  C   UNL     1     -42.077  59.579 -56.961  1.00  0.00     0.222 C 
HETATM   12  N   UNL     1     -43.032  58.984 -57.759  1.00  0.00    -0.361 N 
HETATM   13  H   UNL     1     -43.586  58.221 -57.370  1.00  0.00     0.162 HD
HETATM   14  O   UNL     1     -41.321  60.456 -57.370  1.00  0.00    -0.273 OA
BRANCH  12  15
HETATM   15  C   UNL     1     -43.000  59.065 -59.209  1.00  0.00     0.124 C 
BRANCH  15  16
HETATM   16  C   UNL     1     -42.425  57.838 -59.921  1.00  0.00     0.053 C 
BRANCH  16  17
HETATM   17  C   UNL     1     -43.433  56.775 -60.338  1.00  0.00     0.189 C 
HETATM   18  N   UNL     1     -43.373  55.471 -59.568  1.00  0.00    -0.071 N 
HETATM   19  H   UNL     1     -42.598  54.920 -59.982  1.00  0.00     0.279 HD
HETATM   20  C   UNL     1     -43.153  55.548 -58.080  1.00  0.00     0.270 C 
HETATM   21  C   UNL     1     -44.693  54.771 -59.876  1.00  0.00     0.235 C 
HETATM   22  C   UNL     1     -45.615  55.857 -60.422  1.00  0.00     0.030 C 
HETATM   23  C   UNL     1     -44.892  57.174 -60.192  1.00  0.00     0.035 C 
ENDBRANCH  16  17
ENDBRANCH  15  16
ENDBRANCH  12  15
ENDBRANCH  10  11
ENDBRANCH   5  10
BRANCH   6  24
HETATM   24  C   UNL     1     -41.898  56.441 -53.032  1.00  0.00    -0.024 C 
HETATM   25  C   UNL     1     -42.183  55.209 -52.382  1.00  0.00    -0.053 C 
HETATM   26  C   UNL     1     -43.169  55.035 -51.250  1.00  0.00     0.049 C 
HETATM   27  C   UNL     1     -41.564  54.018 -52.818  1.00  0.00     0.014 C 
HETATM   28  C   UNL     1     -40.739  53.987 -53.940  1.00  0.00    -0.061 C 
HETATM   29  C   UNL     1     -40.160  52.690 -54.422  1.00  0.00     0.048 C 
HETATM   30  C   UNL     1     -40.565  55.162 -54.662  1.00  0.00     0.007 C 
HETATM   31  C   UNL     1     -41.149  56.358 -54.226  1.00  0.00     0.011 C 
ENDBRANCH   6  24
BRANCH   9  32
HETATM   32  C   UNL     1     -40.396  58.904 -51.967  1.00  0.00     0.293 C 
HETATM   33  O   UNL     1     -39.977  59.318 -53.039  1.00  0.00    -0.259 OA
BRANCH  32  34
HETATM   34  O   UNL     1     -39.686  58.510 -50.898  1.00  0.00    -0.323 OA
HETATM   35  C   UNL     1     -38.665  59.432 -50.502  1.00  0.00     0.213 C 
ENDBRANCH  32  34
ENDBRANCH   9  32
BRANCH   1  36
HETATM   36  C   UNL     1     -42.057  60.893 -50.350  1.00  0.00     0.056 C 
HETATM   37  C   UNL     1     -42.922  62.142 -50.449  1.00  0.00     0.011 C 
ENDBRANCH   1  36
TORSDOF 9
ENDMDL
MODEL 2
REMARK VINA RESULT:      -7.6      3.199      7.131
REMARK  9 active torsions:
REMARK  status: ('A' for Active; 'I' for Inactive)
REMARK    1  A    between atoms: C_2  and  C_3 
REMARK    2  A    between atoms: C_7  and  C_8 
REMARK    3  A    between atoms: C_8  and  C_9 
REMARK       I    between atoms: C_9  and  N_10 
REMARK    4  A    between atoms: N_10  and  C_11 
REMARK    5  A    between atoms: C_11  and  C_12 
REMARK    6  A    between atoms: C_12  and  C_13 
REMARK    7  A    between atoms: C_21  and  C_22 
REMARK    8  A    between atoms: C_32  and  C_33 
REMARK    9  A    between atoms: C_33  and  O_34 
ROOT
HETATM    1  C   UNL     1     -42.085  57.480 -54.552  1.00  0.00     0.051 C 
HETATM    2  N   UNL     1     -41.188  58.388 -53.967  1.00  0.00    -0.228 NA
HETATM    3  C   UNL     1     -40.753  58.066 -52.792  1.00  0.00     0.170 C 
HETATM    4  N   UNL     1     -40.961  56.636 -52.187  1.00  0.00    -0.318 N 
HETATM    5  C   UNL     1     -41.415  56.779 -50.979  1.00  0.00     0.011 C 
HETATM    6  C   UNL     1     -40.944  55.699 -53.334  1.00  0.00     0.166 C 
HETATM    7  S   UNL     1     -40.223  59.167 -51.582  1.00  0.00    -0.086 SA
HETATM    8  C   UNL     1     -41.081  58.125 -50.339  1.00  0.00     0.135 C 
HETATM    9  C   UNL     1     -42.069  56.166 -54.206  1.00  0.00     0.069 C 
ENDROOT
BRANCH   5  10
HETATM   10  C   UNL     1     -42.435  55.820 -50.431  1.00  0.00     0.156 C 
BRANCH  10  11
HETATM   11  C   UNL     1     -43.897  56.165 -50.616  1.00  0.00     0.222 C 
HETATM   12  N   UNL     1     -44.099  57.418 -51.154  1.00  0.00    -0.361 N 
HETATM   13  H   UNL     1     -43.286  58.005 -51.342  1.00  0.00     0.162 HD
HETATM   14  O   UNL     1     -44.821  55.422 -50.296  1.00  0.00    -0.273 OA
BRANCH  12  15
HETATM   15  C   UNL     1     -45.371  58.114 -51.062  1.00  0.00     0.124 C 
BRANCH  15  16
HETATM   16  C   UNL     1     -45.303  59.631 -51.254  1.00  0.00     0.053 C 
BRANCH  16  17
HETATM   17  C   UNL     1     -45.500  60.471 -49.998  1.00  0.00     0.189 C 
HETATM   18  N   UNL     1     -44.234  60.881 -49.274  1.00  0.00    -0.071 N 
HETATM   19  H   UNL     1     -43.945  60.066 -48.702  1.00  0.00     0.279 HD
HETATM   20  C   UNL     1     -43.058  61.309 -50.112  1.00  0.00     0.270 C 
HETATM   21  C   UNL     1     -44.663  62.009 -48.341  1.00  0.00     0.235 C 
HETATM   22  C   UNL     1     -46.009  62.492 -48.872  1.00  0.00     0.030 C 
HETATM   23  C   UNL     1     -46.201  61.802 -50.213  1.00  0.00     0.035 C 
ENDBRANCH  16  17
ENDBRANCH  15  16
ENDBRANCH  12  15
ENDBRANCH  10  11
ENDBRANCH   5  10
BRANCH   6  24
HETATM   24  C   UNL     1     -40.632  54.217 -53.118  1.00  0.00    -0.024 C 
HETATM   25  C   UNL     1     -40.189  53.387 -54.184  1.00  0.00    -0.053 C 
HETATM   26  C   UNL     1     -39.933  53.855 -55.597  1.00  0.00     0.049 C 
HETATM   27  C   UNL     1     -39.902  52.026 -53.949  1.00  0.00     0.014 C 
HETATM   28  C   UNL     1     -39.951  51.474 -52.670  1.00  0.00    -0.061 C 
HETATM   29  C   UNL     1     -39.564  50.042 -52.445  1.00  0.00     0.048 C 
HETATM   30  C   UNL     1     -40.251  52.312 -51.603  1.00  0.00     0.007 C 
HETATM   31  C   UNL     1     -40.566  53.659 -51.822  1.00  0.00     0.011 C 
ENDBRANCH   6  24
BRANCH   9  32
HETATM   32  C   UNL     1     -43.267  55.320 -54.257  1.00  0.00     0.293 C 
HETATM   33  O   UNL     1     -44.191  55.538 -53.485  1.00  0.00    -0.259 OA
BRANCH  32  34
HETATM   34  O   UNL     1     -43.172  54.352 -55.182  1.00  0.00    -0.323 OA
HETATM   35  C   UNL     1     -43.185  54.830 -56.531  1.00  0.00     0.213 C 
ENDBRANCH  32  34
ENDBRANCH   9  32
BRANCH   1  36
HETATM   36  C   UNL     1     -43.155  58.153 -55.395  1.00  0.00     0.056 C 
HETATM   37  C   UNL     1     -42.621  58.626 -56.740  1.00  0.00     0.011 C 
ENDBRANCH   1  36
TORSDOF 9
ENDMDL
MODEL 3
REMARK VINA RESULT:      -7.4      3.405      6.359
REMARK  9 active torsions:
REMARK  status: ('A' for Active; 'I' for Inactive)
REMARK    1  A    between atoms: C_2  and  C_3 
REMARK    2  A    between atoms: C_7  and  C_8 
REMARK    3  A    between atoms: C_8  and  C_9 
REMARK       I    between atoms: C_9  and  N_10 
REMARK    4  A    between atoms: N_10  and  C_11 
REMARK    5  A    between atoms: C_11  and  C_12 
REMARK    6  A    between atoms: C_12  and  C_13 
REMARK    7  A    between atoms: C_21  and  C_22 
REMARK    8  A    between atoms: C_32  and  C_33 
REMARK    9  A    between atoms: C_33  and  O_34 
ROOT
HETATM    1  C   UNL     1     -43.812  60.890 -50.261  1.00  0.00     0.051 C 
HETATM    2  N   UNL     1     -42.408  60.872 -50.214  1.00  0.00    -0.228 NA
HETATM    3  C   UNL     1     -41.842  59.887 -50.832  1.00  0.00     0.170 C 
HETATM    4  N   UNL     1     -42.627  58.951 -51.813  1.00  0.00    -0.318 N 
HETATM    5  C   UNL     1     -42.347  57.724 -51.499  1.00  0.00     0.011 C 
HETATM    6  C   UNL     1     -43.669  59.798 -52.438  1.00  0.00     0.166 C 
HETATM    7  S   UNL     1     -40.306  59.213 -50.447  1.00  0.00    -0.086 SA
HETATM    8  C   UNL     1     -41.021  57.552 -50.759  1.00  0.00     0.135 C 
HETATM    9  C   UNL     1     -44.481  60.295 -51.281  1.00  0.00     0.069 C 
ENDROOT
BRANCH   5  10
HETATM   10  C   UNL     1     -43.402  56.655 -51.588  1.00  0.00     0.156 C 
BRANCH  10  11
HETATM   11  C   UNL     1     -42.987  55.299 -52.117  1.00  0.00     0.222 C 
HETATM   12  N   UNL     1     -42.063  55.370 -53.138  1.00  0.00    -0.361 N 
HETATM   13  H   UNL     1     -41.771  56.290 -53.470  1.00  0.00     0.162 HD
HETATM   14  O   UNL     1     -43.442  54.236 -51.705  1.00  0.00    -0.273 OA
BRANCH  12  15
HETATM   15  C   UNL     1     -41.815  54.264 -54.048  1.00  0.00     0.124 C 
BRANCH  15  16
HETATM   16  C   UNL     1     -40.342  53.904 -54.255  1.00  0.00     0.053 C 
BRANCH  16  17
HETATM   17  C   UNL     1     -40.021  52.415 -54.314  1.00  0.00     0.189 C 
HETATM   18  N   UNL     1     -39.369  51.832 -53.078  1.00  0.00    -0.071 N 
HETATM   19  H   UNL     1     -38.360  52.067 -53.138  1.00  0.00     0.279 HD
HETATM   20  C   UNL     1     -39.879  52.289 -51.736  1.00  0.00     0.270 C 
HETATM   21  C   UNL     1     -39.531  50.322 -53.224  1.00  0.00     0.235 C 
HETATM   22  C   UNL     1     -40.625  50.126 -54.267  1.00  0.00     0.030 C 
HETATM   23  C   UNL     1     -41.219  51.503 -54.514  1.00  0.00     0.035 C 
ENDBRANCH  16  17
ENDBRANCH  15  16
ENDBRANCH  12  15
ENDBRANCH  10  11
ENDBRANCH   5  10
BRANCH   6  24
HETATM   24  C   UNL     1     -44.301  59.388 -53.770  1.00  0.00    -0.024 C 
HETATM   25  C   UNL     1     -44.185  60.203 -54.930  1.00  0.00    -0.053 C 
HETATM   26  C   UNL     1     -43.415  61.501 -55.003  1.00  0.00     0.049 C 
HETATM   27  C   UNL     1     -44.773  59.793 -56.145  1.00  0.00     0.014 C 
HETATM   28  C   UNL     1     -45.396  58.554 -56.279  1.00  0.00    -0.061 C 
HETATM   29  C   UNL     1     -45.941  58.117 -57.606  1.00  0.00     0.048 C 
HETATM   30  C   UNL     1     -45.392  57.694 -55.187  1.00  0.00     0.007 C 
HETATM   31  C   UNL     1     -44.839  58.097 -53.965  1.00  0.00     0.011 C 
ENDBRANCH   6  24
BRANCH   9  32
HETATM   32  C   UNL     1     -45.828  59.733 -51.123  1.00  0.00     0.293 C 
HETATM   33  O   UNL     1     -46.010  58.818 -50.332  1.00  0.00    -0.259 OA
BRANCH  32  34
HETATM   34  O   UNL     1     -46.726  60.320 -51.931  1.00  0.00    -0.323 OA
HETATM   35  C   UNL     1     -46.926  61.713 -51.668  1.00  0.00     0.213 C 
ENDBRANCH  32  34
ENDBRANCH   9  32
BRANCH   1  36
HETATM   36  C   UNL     1     -44.446  61.425 -48.988  1.00  0.00     0.056 C 
HETATM   37  C   UNL     1     -44.455  62.947 -48.941  1.00  0.00     0.011 C 
ENDBRANCH   1  36
TORSDOF 9
ENDMDL
MODEL 4
REMARK VINA RESULT:      -7.2      2.195      3.863
REMARK  9 active torsions:
REMARK  status: ('A' for Active; 'I' for Inactive)
REMARK    1  A    between atoms: C_2  and  C_3 
REMARK    2  A    between atoms: C_7  and  C_8 
REMARK    3  A    between atoms: C_8  and  C_9 
REMARK       I    between atoms: C_9  and  N_10 
REMARK    4  A    between atoms: N_10  and  C_11 
REMARK    5  A    between atoms: C_11  and  C_12 
REMARK    6  A    between atoms: C_12  and  C_13 
REMARK    7  A    between atoms: C_21  and  C_22 
REMARK    8  A    between atoms: C_32  and  C_33 
REMARK    9  A    between atoms: C_33  and  O_34 
ROOT
HETATM    1  C   UNL     1     -43.861  58.986 -53.185  1.00  0.00     0.051 C 
HETATM    2  N   UNL     1     -45.095  58.828 -53.836  1.00  0.00    -0.228 NA
HETATM    3  C   UNL     1     -45.067  58.130 -54.925  1.00  0.00     0.170 C 
HETATM    4  N   UNL     1     -43.824  57.269 -55.335  1.00  0.00    -0.318 N 
HETATM    5  C   UNL     1     -43.550  57.533 -56.576  1.00  0.00     0.011 C 
HETATM    6  C   UNL     1     -43.212  56.805 -54.069  1.00  0.00     0.166 C 
HETATM    7  S   UNL     1     -46.160  58.285 -56.244  1.00  0.00    -0.086 SA
HETATM    8  C   UNL     1     -44.734  58.072 -57.378  1.00  0.00     0.135 C 
HETATM    9  C   UNL     1     -42.870  58.070 -53.342  1.00  0.00     0.069 C 
ENDROOT
BRANCH   5  10
HETATM   10  C   UNL     1     -42.123  57.593 -57.046  1.00  0.00     0.156 C 
BRANCH  10  11
HETATM   11  C   UNL     1     -41.812  58.461 -58.246  1.00  0.00     0.222 C 
HETATM   12  N   UNL     1     -41.561  59.777 -57.919  1.00  0.00    -0.361 N 
HETATM   13  H   UNL     1     -41.638  60.060 -56.942  1.00  0.00     0.162 HD
HETATM   14  O   UNL     1     -41.809  58.051 -59.404  1.00  0.00    -0.273 OA
BRANCH  12  15
HETATM   15  C   UNL     1     -41.627  60.851 -58.894  1.00  0.00     0.124 C 
BRANCH  15  16
HETATM   16  C   UNL     1     -42.384  62.102 -58.440  1.00  0.00     0.053 C 
BRANCH  16  17
HETATM   17  C   UNL     1     -42.996  62.041 -57.046  1.00  0.00     0.189 C 
HETATM   18  N   UNL     1     -42.766  63.257 -56.172  1.00  0.00    -0.071 N 
HETATM   19  H   UNL     1     -41.814  63.158 -55.774  1.00  0.00     0.279 HD
HETATM   20  C   UNL     1     -42.868  64.613 -56.820  1.00  0.00     0.270 C 
HETATM   21  C   UNL     1     -43.785  63.128 -55.043  1.00  0.00     0.235 C 
HETATM   22  C   UNL     1     -44.822  62.126 -55.540  1.00  0.00     0.030 C 
HETATM   23  C   UNL     1     -44.508  61.892 -57.009  1.00  0.00     0.035 C 
ENDBRANCH  16  17
ENDBRANCH  15  16
ENDBRANCH  12  15
ENDBRANCH  10  11
ENDBRANCH   5  10
BRANCH   6  24
HETATM   24  C   UNL     1     -42.300  55.577 -54.055  1.00  0.00    -0.024 C 
HETATM   25  C   UNL     1     -42.362  54.616 -53.009  1.00  0.00    -0.053 C 
HETATM   26  C   UNL     1     -43.331  54.658 -51.851  1.00  0.00     0.049 C 
HETATM   27  C   UNL     1     -41.513  53.490 -53.031  1.00  0.00     0.014 C 
HETATM   28  C   UNL     1     -40.662  53.231 -54.103  1.00  0.00    -0.061 C 
HETATM   29  C   UNL     1     -39.829  51.983 -54.129  1.00  0.00     0.048 C 
HETATM   30  C   UNL     1     -40.695  54.094 -55.192  1.00  0.00     0.007 C 
HETATM   31  C   UNL     1     -41.511  55.232 -55.174  1.00  0.00     0.011 C 
ENDBRANCH   6  24
BRANCH   9  32
HETATM   32  C   UNL     1     -41.448  58.419 -53.246  1.00  0.00     0.293 C 
HETATM   33  O   UNL     1     -40.911  59.019 -54.167  1.00  0.00    -0.259 OA
BRANCH  32  34
HETATM   34  O   UNL     1     -40.890  57.988 -52.103  1.00  0.00    -0.323 OA
HETATM   35  C   UNL     1     -40.254  59.018 -51.338  1.00  0.00     0.213 C 
ENDBRANCH  32  34
ENDBRANCH   9  32
BRANCH   1  36
HETATM   36  C   UNL     1     -43.707  60.340 -52.513  1.00  0.00     0.056 C 
HETATM   37  C   UNL     1     -43.878  60.258 -51.002  1.00  0.00     0.011 C 
ENDBRANCH   1  36
TORSDOF 9
ENDMDL
MODEL 5
REMARK VINA RESULT:      -7.2      3.038      7.308
REMARK  9 active torsions:
REMARK  status: ('A' for Active; 'I' for Inactive)
REMARK    1  A    between atoms: C_2  and  C_3 
REMARK    2  A    between atoms: C_7  and  C_8 
REMARK    3  A    between atoms: C_8  and  C_9 
REMARK       I    between atoms: C_9  and  N_10 
REMARK    4  A    between atoms: N_10  and  C_11 
REMARK    5  A    between atoms: C_11  and  C_12 
REMARK    6  A    between atoms: C_12  and  C_13 
REMARK    7  A    between atoms: C_21  and  C_22 
REMARK    8  A    between atoms: C_32  and  C_33 
REMARK    9  A    between atoms: C_33  and  O_34 
ROOT
HETATM    1  C   UNL     1     -43.824  59.514 -59.373  1.00  0.00     0.051 C 
HETATM    2  N   UNL     1     -44.585  58.504 -59.983  1.00  0.00    -0.228 NA
HETATM    3  C   UNL     1     -44.673  57.395 -59.323  1.00  0.00     0.170 C 
HETATM    4  N   UNL     1     -44.227  57.275 -57.826  1.00  0.00    -0.318 N 
HETATM    5  C   UNL     1     -43.478  56.221 -57.719  1.00  0.00     0.011 C 
HETATM    6  C   UNL     1     -44.493  58.597 -57.213  1.00  0.00     0.166 C 
HETATM    7  S   UNL     1     -44.927  55.838 -60.008  1.00  0.00    -0.086 SA
HETATM    8  C   UNL     1     -43.710  55.173 -58.807  1.00  0.00     0.135 C 
HETATM    9  C   UNL     1     -43.669  59.550 -58.025  1.00  0.00     0.069 C 
ENDROOT
BRANCH   5  10
HETATM   10  C   UNL     1     -42.294  56.219 -56.792  1.00  0.00     0.156 C 
BRANCH  10  11
HETATM   11  C   UNL     1     -42.093  55.006 -55.909  1.00  0.00     0.222 C 
HETATM   12  N   UNL     1     -40.792  54.852 -55.479  1.00  0.00    -0.361 N 
HETATM   13  H   UNL     1     -40.089  55.514 -55.805  1.00  0.00     0.162 HD
HETATM   14  O   UNL     1     -42.988  54.215 -55.619  1.00  0.00    -0.273 OA
BRANCH  12  15
HETATM   15  C   UNL     1     -40.283  53.591 -54.966  1.00  0.00     0.124 C 
BRANCH  15  16
HETATM   16  C   UNL     1     -40.862  53.150 -53.619  1.00  0.00     0.053 C 
BRANCH  16  17
HETATM   17  C   UNL     1     -40.627  54.098 -52.450  1.00  0.00     0.189 C 
HETATM   18  N   UNL     1     -41.820  54.931 -52.026  1.00  0.00    -0.071 N 
HETATM   19  H   UNL     1     -41.870  55.731 -52.684  1.00  0.00     0.279 HD
HETATM   20  C   UNL     1     -43.168  54.258 -52.000  1.00  0.00     0.270 C 
HETATM   21  C   UNL     1     -41.460  55.456 -50.640  1.00  0.00     0.235 C 
HETATM   22  C   UNL     1     -40.318  54.572 -50.150  1.00  0.00     0.030 C 
HETATM   23  C   UNL     1     -40.215  53.431 -51.149  1.00  0.00     0.035 C 
ENDBRANCH  16  17
ENDBRANCH  15  16
ENDBRANCH  12  15
ENDBRANCH  10  11
ENDBRANCH   5  10
BRANCH   6  24
HETATM   24  C   UNL     1     -44.647  58.729 -55.697  1.00  0.00    -0.024 C 
HETATM   25  C   UNL     1     -45.299  59.849 -55.110  1.00  0.00    -0.053 C 
HETATM   26  C   UNL     1     -45.937  60.980 -55.881  1.00  0.00     0.049 C 
HETATM   27  C   UNL     1     -45.432  59.936 -53.709  1.00  0.00     0.014 C 
HETATM   28  C   UNL     1     -45.022  58.906 -52.866  1.00  0.00    -0.061 C 
HETATM   29  C   UNL     1     -45.250  58.998 -51.385  1.00  0.00     0.048 C 
HETATM   30  C   UNL     1     -44.509  57.749 -53.441  1.00  0.00     0.007 C 
HETATM   31  C   UNL     1     -44.344  57.657 -54.829  1.00  0.00     0.011 C 
ENDBRANCH   6  24
BRANCH   9  32
HETATM   32  C   UNL     1     -42.479  60.117 -57.379  1.00  0.00     0.293 C 
HETATM   33  O   UNL     1     -41.473  59.432 -57.262  1.00  0.00    -0.259 OA
BRANCH  32  34
HETATM   34  O   UNL     1     -42.676  61.378 -56.961  1.00  0.00    -0.323 OA
HETATM   35  C   UNL     1     -41.908  62.356 -57.671  1.00  0.00     0.213 C 
ENDBRANCH  32  34
ENDBRANCH   9  32
BRANCH   1  36
HETATM   36  C   UNL     1     -43.057  60.370 -60.368  1.00  0.00     0.056 C 
HETATM   37  C   UNL     1     -41.923  59.604 -61.037  1.00  0.00     0.011 C 
ENDBRANCH   1  36
TORSDOF 9
ENDMDL
MODEL 6
REMARK VINA RESULT:      -7.1      2.800      4.229
REMARK  9 active torsions:
REMARK  status: ('A' for Active; 'I' for Inactive)
REMARK    1  A    between atoms: C_2  and  C_3 
REMARK    2  A    between atoms: C_7  and  C_8 
REMARK    3  A    between atoms: C_8  and  C_9 
REMARK       I    between atoms: C_9  and  N_10 
REMARK    4  A    between atoms: N_10  and  C_11 
REMARK    5  A    between atoms: C_11  and  C_12 
REMARK    6  A    between atoms: C_12  and  C_13 
REMARK    7  A    between atoms: C_21  and  C_22 
REMARK    8  A    between atoms: C_32  and  C_33 
REMARK    9  A    between atoms: C_33  and  O_34 
ROOT
HETATM    1  C   UNL     1     -43.879  59.085 -53.319  1.00  0.00     0.051 C 
HETATM    2  N   UNL     1     -45.125  58.906 -53.942  1.00  0.00    -0.228 NA
HETATM    3  C   UNL     1     -45.117  58.173 -55.007  1.00  0.00     0.170 C 
HETATM    4  N   UNL     1     -43.881  57.300 -55.413  1.00  0.00    -0.318 N 
HETATM    5  C   UNL     1     -43.631  57.523 -56.667  1.00  0.00     0.011 C 
HETATM    6  C   UNL     1     -43.245  56.877 -54.143  1.00  0.00     0.166 C 
HETATM    7  S   UNL     1     -46.235  58.284 -56.310  1.00  0.00    -0.086 SA
HETATM    8  C   UNL     1     -44.830  58.035 -57.463  1.00  0.00     0.135 C 
HETATM    9  C   UNL     1     -42.890  58.165 -53.465  1.00  0.00     0.069 C 
ENDROOT
BRANCH   5  10
HETATM   10  C   UNL     1     -42.213  57.568 -57.165  1.00  0.00     0.156 C 
BRANCH  10  11
HETATM   11  C   UNL     1     -41.981  58.028 -58.588  1.00  0.00     0.222 C 
HETATM   12  N   UNL     1     -41.813  59.392 -58.701  1.00  0.00    -0.361 N 
HETATM   13  H   UNL     1     -41.892  59.965 -57.861  1.00  0.00     0.162 HD
HETATM   14  O   UNL     1     -41.970  57.273 -59.557  1.00  0.00    -0.273 OA
BRANCH  12  15
HETATM   15  C   UNL     1     -41.966  60.097 -59.962  1.00  0.00     0.124 C 
BRANCH  15  16
HETATM   16  C   UNL     1     -42.098  61.618 -59.850  1.00  0.00     0.053 C 
BRANCH  16  17
HETATM   17  C   UNL     1     -40.846  62.422 -60.182  1.00  0.00     0.189 C 
HETATM   18  N   UNL     1     -41.079  63.852 -60.623  1.00  0.00    -0.071 N 
HETATM   19  H   UNL     1     -41.338  63.813 -61.627  1.00  0.00     0.279 HD
HETATM   20  C   UNL     1     -42.133  64.645 -59.895  1.00  0.00     0.270 C 
HETATM   21  C   UNL     1     -39.718  64.530 -60.493  1.00  0.00     0.235 C 
HETATM   22  C   UNL     1     -38.893  63.622 -59.588  1.00  0.00     0.030 C 
HETATM   23  C   UNL     1     -39.861  62.588 -59.037  1.00  0.00     0.035 C 
ENDBRANCH  16  17
ENDBRANCH  15  16
ENDBRANCH  12  15
ENDBRANCH  10  11
ENDBRANCH   5  10
BRANCH   6  24
HETATM   24  C   UNL     1     -42.331  55.651 -54.107  1.00  0.00    -0.024 C 
HETATM   25  C   UNL     1     -42.396  54.706 -53.046  1.00  0.00    -0.053 C 
HETATM   26  C   UNL     1     -43.369  54.766 -51.892  1.00  0.00     0.049 C 
HETATM   27  C   UNL     1     -41.545  53.581 -53.047  1.00  0.00     0.014 C 
HETATM   28  C   UNL     1     -40.690  53.307 -54.112  1.00  0.00    -0.061 C 
HETATM   29  C   UNL     1     -39.856  52.059 -54.116  1.00  0.00     0.048 C 
HETATM   30  C   UNL     1     -40.721  54.151 -55.215  1.00  0.00     0.007 C 
HETATM   31  C   UNL     1     -41.539  55.288 -55.219  1.00  0.00     0.011 C 
ENDBRANCH   6  24
BRANCH   9  32
HETATM   32  C   UNL     1     -41.467  58.518 -53.407  1.00  0.00     0.293 C 
HETATM   33  O   UNL     1     -40.965  59.149 -54.327  1.00  0.00    -0.259 OA
BRANCH  32  34
HETATM   34  O   UNL     1     -40.869  58.054 -52.298  1.00  0.00    -0.323 OA
HETATM   35  C   UNL     1     -40.257  59.070 -51.496  1.00  0.00     0.213 C 
ENDBRANCH  32  34
ENDBRANCH   9  32
BRANCH   1  36
HETATM   36  C   UNL     1     -43.715  60.460 -52.694  1.00  0.00     0.056 C 
HETATM   37  C   UNL     1     -44.274  60.524 -51.279  1.00  0.00     0.011 C 
ENDBRANCH   1  36
TORSDOF 9
ENDMDL
MODEL 7
REMARK VINA RESULT:      -7.1      1.259      2.270
REMARK  9 active torsions:
REMARK  status: ('A' for Active; 'I' for Inactive)
REMARK    1  A    between atoms: C_2  and  C_3 
REMARK    2  A    between atoms: C_7  and  C_8 
REMARK    3  A    between atoms: C_8  and  C_9 
REMARK       I    between atoms: C_9  and  N_10 
REMARK    4  A    between atoms: N_10  and  C_11 
REMARK    5  A    between atoms: C_11  and  C_12 
REMARK    6  A    between atoms: C_12  and  C_13 
REMARK    7  A    between atoms: C_21  and  C_22 
REMARK    8  A    between atoms: C_32  and  C_33 
REMARK    9  A    between atoms: C_33  and  O_34 
ROOT
HETATM    1  C   UNL     1     -42.751  59.785 -51.136  1.00  0.00     0.051 C 
HETATM    2  N   UNL     1     -44.088  59.946 -51.531  1.00  0.00    -0.228 NA
HETATM    3  C   UNL     1     -44.369  59.547 -52.729  1.00  0.00     0.170 C 
HETATM    4  N   UNL     1     -43.379  58.674 -53.573  1.00  0.00    -0.318 N 
HETATM    5  C   UNL     1     -43.286  59.206 -54.753  1.00  0.00     0.011 C 
HETATM    6  C   UNL     1     -42.641  57.835 -52.599  1.00  0.00     0.166 C 
HETATM    7  S   UNL     1     -45.635  60.159 -53.720  1.00  0.00    -0.086 SA
HETATM    8  C   UNL     1     -44.485  60.068 -55.147  1.00  0.00     0.135 C 
HETATM    9  C   UNL     1     -41.970  58.826 -51.697  1.00  0.00     0.069 C 
ENDROOT
BRANCH   5  10
HETATM   10  C   UNL     1     -41.974  59.210 -55.486  1.00  0.00     0.156 C 
BRANCH  10  11
HETATM   11  C   UNL     1     -42.013  59.270 -56.998  1.00  0.00     0.222 C 
HETATM   12  N   UNL     1     -42.743  58.247 -57.567  1.00  0.00    -0.361 N 
HETATM   13  H   UNL     1     -43.149  57.539 -56.956  1.00  0.00     0.162 HD
HETATM   14  O   UNL     1     -41.433  60.124 -57.664  1.00  0.00    -0.273 OA
BRANCH  12  15
HETATM   15  C   UNL     1     -42.604  57.870 -58.964  1.00  0.00     0.124 C 
BRANCH  15  16
HETATM   16  C   UNL     1     -43.802  58.210 -59.855  1.00  0.00     0.053 C 
BRANCH  16  17
HETATM   17  C   UNL     1     -43.572  59.300 -60.894  1.00  0.00     0.189 C 
HETATM   18  N   UNL     1     -44.352  60.582 -60.688  1.00  0.00    -0.071 N 
HETATM   19  H   UNL     1     -45.306  60.410 -61.058  1.00  0.00     0.279 HD
HETATM   20  C   UNL     1     -44.480  61.103 -59.281  1.00  0.00     0.270 C 
HETATM   21  C   UNL     1     -43.659  61.611 -61.577  1.00  0.00     0.235 C 
HETATM   22  C   UNL     1     -42.290  61.021 -61.895  1.00  0.00     0.030 C 
HETATM   23  C   UNL     1     -42.142  59.800 -61.002  1.00  0.00     0.035 C 
ENDBRANCH  16  17
ENDBRANCH  15  16
ENDBRANCH  12  15
ENDBRANCH  10  11
ENDBRANCH   5  10
BRANCH   6  24
HETATM   24  C   UNL     1     -41.959  56.543 -53.052  1.00  0.00    -0.024 C 
HETATM   25  C   UNL     1     -42.100  55.332 -52.320  1.00  0.00    -0.053 C 
HETATM   26  C   UNL     1     -42.945  55.164 -51.079  1.00  0.00     0.049 C 
HETATM   27  C   UNL     1     -41.465  54.155 -52.769  1.00  0.00     0.014 C 
HETATM   28  C   UNL     1     -40.766  54.111 -53.974  1.00  0.00    -0.061 C 
HETATM   29  C   UNL     1     -40.169  52.823 -54.459  1.00  0.00     0.048 C 
HETATM   30  C   UNL     1     -40.740  55.255 -54.762  1.00  0.00     0.007 C 
HETATM   31  C   UNL     1     -41.341  56.440 -54.317  1.00  0.00     0.011 C 
ENDBRANCH   6  24
BRANCH   9  32
HETATM   32  C   UNL     1     -40.515  58.966 -51.827  1.00  0.00     0.293 C 
HETATM   33  O   UNL     1     -40.037  59.332 -52.892  1.00  0.00    -0.259 OA
BRANCH  32  34
HETATM   34  O   UNL     1     -39.865  58.633 -50.700  1.00  0.00    -0.323 OA
HETATM   35  C   UNL     1     -38.717  59.443 -50.426  1.00  0.00     0.213 C 
ENDBRANCH  32  34
ENDBRANCH   9  32
BRANCH   1  36
HETATM   36  C   UNL     1     -42.257  60.898 -50.226  1.00  0.00     0.056 C 
HETATM   37  C   UNL     1     -42.912  62.236 -50.540  1.00  0.00     0.011 C 
ENDBRANCH   1  36
TORSDOF 9
ENDMDL
MODEL 8
REMARK VINA RESULT:      -7.1      2.890      6.355
REMARK  9 active torsions:
REMARK  status: ('A' for Active; 'I' for Inactive)
REMARK    1  A    between atoms: C_2  and  C_3 
REMARK    2  A    between atoms: C_7  and  C_8 
REMARK    3  A    between atoms: C_8  and  C_9 
REMARK       I    between atoms: C_9  and  N_10 
REMARK    4  A    between atoms: N_10  and  C_11 
REMARK    5  A    between atoms: C_11  and  C_12 
REMARK    6  A    between atoms: C_12  and  C_13 
REMARK    7  A    between atoms: C_21  and  C_22 
REMARK    8  A    between atoms: C_32  and  C_33 
REMARK    9  A    between atoms: C_33  and  O_34 
ROOT
HETATM    1  C   UNL     1     -42.895  60.935 -53.354  1.00  0.00     0.051 C 
HETATM    2  N   UNL     1     -41.742  60.630 -52.613  1.00  0.00    -0.228 NA
HETATM    3  C   UNL     1     -41.391  59.385 -52.613  1.00  0.00     0.170 C 
HETATM    4  N   UNL     1     -42.013  58.340 -53.601  1.00  0.00    -0.318 N 
HETATM    5  C   UNL     1     -42.362  57.299 -52.910  1.00  0.00     0.011 C 
HETATM    6  C   UNL     1     -42.325  59.086 -54.842  1.00  0.00     0.166 C 
HETATM    7  S   UNL     1     -40.507  58.592 -51.368  1.00  0.00    -0.086 SA
HETATM    8  C   UNL     1     -41.605  57.139 -51.592  1.00  0.00     0.135 C 
HETATM    9  C   UNL     1     -43.277  60.155 -54.399  1.00  0.00     0.069 C 
ENDROOT
BRANCH   5  10
HETATM   10  C   UNL     1     -43.611  56.537 -53.256  1.00  0.00     0.156 C 
BRANCH  10  11
HETATM   11  C   UNL     1     -43.453  55.125 -53.777  1.00  0.00     0.222 C 
HETATM   12  N   UNL     1     -42.217  54.577 -53.506  1.00  0.00    -0.361 N 
HETATM   13  H   UNL     1     -41.522  55.153 -53.031  1.00  0.00     0.162 HD
HETATM   14  O   UNL     1     -44.323  54.526 -54.405  1.00  0.00    -0.273 OA
BRANCH  12  15
HETATM   15  C   UNL     1     -41.698  53.424 -54.222  1.00  0.00     0.124 C 
BRANCH  15  16
HETATM   16  C   UNL     1     -40.174  53.286 -54.223  1.00  0.00     0.053 C 
BRANCH  16  17
HETATM   17  C   UNL     1     -39.629  51.914 -53.845  1.00  0.00     0.189 C 
HETATM   18  N   UNL     1     -39.317  51.710 -52.376  1.00  0.00    -0.071 N 
HETATM   19  H   UNL     1     -38.389  52.141 -52.209  1.00  0.00     0.279 HD
HETATM   20  C   UNL     1     -40.286  52.275 -51.371  1.00  0.00     0.270 C 
HETATM   21  C   UNL     1     -39.194  50.199 -52.207  1.00  0.00     0.235 C 
HETATM   22  C   UNL     1     -39.861  49.592 -53.437  1.00  0.00     0.030 C 
HETATM   23  C   UNL     1     -40.550  50.745 -54.150  1.00  0.00     0.035 C 
ENDBRANCH  16  17
ENDBRANCH  15  16
ENDBRANCH  12  15
ENDBRANCH  10  11
ENDBRANCH   5  10
BRANCH   6  24
HETATM   24  C   UNL     1     -42.482  58.345 -56.171  1.00  0.00    -0.024 C 
HETATM   25  C   UNL     1     -42.212  58.981 -57.414  1.00  0.00    -0.053 C 
HETATM   26  C   UNL     1     -41.709  60.397 -57.571  1.00  0.00     0.049 C 
HETATM   27  C   UNL     1     -42.359  58.266 -58.621  1.00  0.00     0.014 C 
HETATM   28  C   UNL     1     -42.679  56.910 -58.639  1.00  0.00    -0.061 C 
HETATM   29  C   UNL     1     -42.750  56.163 -59.938  1.00  0.00     0.048 C 
HETATM   30  C   UNL     1     -42.809  56.249 -57.424  1.00  0.00     0.007 C 
HETATM   31  C   UNL     1     -42.695  56.950 -56.216  1.00  0.00     0.011 C 
ENDBRANCH   6  24
BRANCH   9  32
HETATM   32  C   UNL     1     -44.680  60.007 -54.804  1.00  0.00     0.293 C 
HETATM   33  O   UNL     1     -45.409  59.247 -54.183  1.00  0.00    -0.259 OA
BRANCH  32  34
HETATM   34  O   UNL     1     -44.983  60.753 -55.879  1.00  0.00    -0.323 OA
HETATM   35  C   UNL     1     -46.074  61.658 -55.673  1.00  0.00     0.213 C 
ENDBRANCH  32  34
ENDBRANCH   9  32
BRANCH   1  36
HETATM   36  C   UNL     1     -43.729  62.043 -52.734  1.00  0.00     0.056 C 
HETATM   37  C   UNL     1     -44.133  61.731 -51.300  1.00  0.00     0.011 C 
ENDBRANCH   1  36
TORSDOF 9
ENDMDL
MODEL 9
REMARK VINA RESULT:      -7.0      2.805      5.372
REMARK  9 active torsions:
REMARK  status: ('A' for Active; 'I' for Inactive)
REMARK    1  A    between atoms: C_2  and  C_3 
REMARK    2  A    between atoms: C_7  and  C_8 
REMARK    3  A    between atoms: C_8  and  C_9 
REMARK       I    between atoms: C_9  and  N_10 
REMARK    4  A    between atoms: N_10  and  C_11 
REMARK    5  A    between atoms: C_11  and  C_12 
REMARK    6  A    between atoms: C_12  and  C_13 
REMARK    7  A    between atoms: C_21  and  C_22 
REMARK    8  A    between atoms: C_32  and  C_33 
REMARK    9  A    between atoms: C_33  and  O_34 
ROOT
HETATM    1  C   UNL     1     -40.595  53.847 -51.836  1.00  0.00     0.051 C 
HETATM    2  N   UNL     1     -40.078  53.793 -53.140  1.00  0.00    -0.228 NA
HETATM    3  C   UNL     1     -40.657  54.565 -54.003  1.00  0.00     0.170 C 
HETATM    4  N   UNL     1     -41.653  55.697 -53.577  1.00  0.00    -0.318 N 
HETATM    5  C   UNL     1     -42.711  55.594 -54.321  1.00  0.00     0.011 C 
HETATM    6  C   UNL     1     -41.185  56.178 -52.256  1.00  0.00     0.166 C 
HETATM    7  S   UNL     1     -40.740  54.289 -55.699  1.00  0.00    -0.086 SA
HETATM    8  C   UNL     1     -42.475  54.884 -55.653  1.00  0.00     0.135 C 
HETATM    9  C   UNL     1     -41.231  54.959 -51.385  1.00  0.00     0.069 C 
ENDROOT
BRANCH   5  10
HETATM   10  C   UNL     1     -44.074  55.872 -53.750  1.00  0.00     0.156 C 
BRANCH  10  11
HETATM   11  C   UNL     1     -44.807  57.101 -54.244  1.00  0.00     0.222 C 
HETATM   12  N   UNL     1     -45.004  57.108 -55.608  1.00  0.00    -0.361 N 
HETATM   13  H   UNL     1     -44.625  56.339 -56.160  1.00  0.00     0.162 HD
HETATM   14  O   UNL     1     -45.171  58.020 -53.514  1.00  0.00    -0.273 OA
BRANCH  12  15
HETATM   15  C   UNL     1     -45.319  58.319 -56.347  1.00  0.00     0.124 C 
BRANCH  15  16
HETATM   16  C   UNL     1     -45.028  58.264 -57.849  1.00  0.00     0.053 C 
BRANCH  16  17
HETATM   17  C   UNL     1     -44.175  57.093 -58.320  1.00  0.00     0.189 C 
HETATM   18  N   UNL     1     -44.922  55.972 -59.015  1.00  0.00    -0.071 N 
HETATM   19  H   UNL     1     -45.338  55.387 -58.266  1.00  0.00     0.279 HD
HETATM   20  C   UNL     1     -46.015  56.353 -59.978  1.00  0.00     0.270 C 
HETATM   21  C   UNL     1     -43.841  55.163 -59.726  1.00  0.00     0.235 C 
HETATM   22  C   UNL     1     -42.619  56.073 -59.786  1.00  0.00     0.030 C 
HETATM   23  C   UNL     1     -43.095  57.443 -59.330  1.00  0.00     0.035 C 
ENDBRANCH  16  17
ENDBRANCH  15  16
ENDBRANCH  12  15
ENDBRANCH  10  11
ENDBRANCH   5  10
BRANCH   6  24
HETATM   24  C   UNL     1     -41.587  57.564 -51.752  1.00  0.00    -0.024 C 
HETATM   25  C   UNL     1     -40.746  58.696 -51.935  1.00  0.00    -0.053 C 
HETATM   26  C   UNL     1     -39.423  58.682 -52.665  1.00  0.00     0.049 C 
HETATM   27  C   UNL     1     -41.150  59.963 -51.465  1.00  0.00     0.014 C 
HETATM   28  C   UNL     1     -42.405  60.170 -50.897  1.00  0.00    -0.061 C 
HETATM   29  C   UNL     1     -42.833  61.546 -50.480  1.00  0.00     0.048 C 
HETATM   30  C   UNL     1     -43.287  59.097 -50.840  1.00  0.00     0.007 C 
HETATM   31  C   UNL     1     -42.891  57.827 -51.275  1.00  0.00     0.011 C 
ENDBRANCH   6  24
BRANCH   9  32
HETATM   32  C   UNL     1     -42.285  54.909 -50.365  1.00  0.00     0.293 C 
HETATM   33  O   UNL     1     -43.384  54.456 -50.656  1.00  0.00    -0.259 OA
BRANCH  32  34
HETATM   34  O   UNL     1     -41.885  55.419 -49.189  1.00  0.00    -0.323 OA
HETATM   35  C   UNL     1     -40.911  54.620 -48.508  1.00  0.00     0.213 C 
ENDBRANCH  32  34
ENDBRANCH   9  32
BRANCH   1  36
HETATM   36  C   UNL     1     -40.557  52.507 -51.121  1.00  0.00     0.056 C 
HETATM   37  C   UNL     1     -39.566  51.540 -51.755  1.00  0.00     0.011 C 
ENDBRANCH   1  36
TORSDOF 9
ENDMDL
MODEL 10
REMARK VINA RESULT:      -6.9      3.292      7.515
REMARK  9 active torsions:
REMARK  status: ('A' for Active; 'I' for Inactive)
REMARK    1  A    between atoms: C_2  and  C_3 
REMARK    2  A    between atoms: C_7  and  C_8 
REMARK    3  A    between atoms: C_8  and  C_9 
REMARK       I    between atoms: C_9  and  N_10 
REMARK    4  A    between atoms: N_10  and  C_11 
REMARK    5  A    between atoms: C_11  and  C_12 
REMARK    6  A    between atoms: C_12  and  C_13 
REMARK    7  A    between atoms: C_21  and  C_22 
REMARK    8  A    between atoms: C_32  and  C_33 
REMARK    9  A    between atoms: C_33  and  O_34 
ROOT
HETATM    1  C   UNL     1     -43.263  59.160 -59.937  1.00  0.00     0.051 C 
HETATM    2  N   UNL     1     -44.120  58.233 -60.552  1.00  0.00    -0.228 NA
HETATM    3  C   UNL     1     -44.473  57.227 -59.819  1.00  0.00     0.170 C 
HETATM    4  N   UNL     1     -44.219  57.188 -58.274  1.00  0.00    -0.318 N 
HETATM    5  C   UNL     1     -43.683  56.041 -57.988  1.00  0.00     0.011 C 
HETATM    6  C   UNL     1     -44.312  58.591 -57.808  1.00  0.00     0.166 C 
HETATM    7  S   UNL     1     -44.921  55.671 -60.400  1.00  0.00    -0.086 SA
HETATM    8  C   UNL     1     -43.977  54.941 -59.007  1.00  0.00     0.135 C 
HETATM    9  C   UNL     1     -43.251  59.307 -58.587  1.00  0.00     0.069 C 
ENDROOT
BRANCH   5  10
HETATM   10  C   UNL     1     -42.625  55.938 -56.925  1.00  0.00     0.156 C 
BRANCH  10  11
HETATM   11  C   UNL     1     -42.808  54.890 -55.848  1.00  0.00     0.222 C 
HETATM   12  N   UNL     1     -42.106  55.163 -54.694  1.00  0.00    -0.361 N 
HETATM   13  H   UNL     1     -41.513  55.993 -54.668  1.00  0.00     0.162 HD
HETATM   14  O   UNL     1     -43.491  53.878 -55.988  1.00  0.00    -0.273 OA
BRANCH  12  15
HETATM   15  C   UNL     1     -41.812  54.147 -53.697  1.00  0.00     0.124 C 
BRANCH  15  16
HETATM   16  C   UNL     1     -40.332  53.786 -53.547  1.00  0.00     0.053 C 
BRANCH  16  17
HETATM   17  C   UNL     1     -39.951  52.362 -53.932  1.00  0.00     0.189 C 
HETATM   18  N   UNL     1     -39.311  51.533 -52.838  1.00  0.00    -0.071 N 
HETATM   19  H   UNL     1     -38.311  51.808 -52.806  1.00  0.00     0.279 HD
HETATM   20  C   UNL     1     -39.878  51.653 -51.448  1.00  0.00     0.270 C 
HETATM   21  C   UNL     1     -39.408  50.092 -53.330  1.00  0.00     0.235 C 
HETATM   22  C   UNL     1     -40.463  50.105 -54.431  1.00  0.00     0.030 C 
HETATM   23  C   UNL     1     -41.105  51.481 -54.379  1.00  0.00     0.035 C 
ENDBRANCH  16  17
ENDBRANCH  15  16
ENDBRANCH  12  15
ENDBRANCH  10  11
ENDBRANCH   5  10
BRANCH   6  24
HETATM   24  C   UNL     1     -44.603  58.901 -56.339  1.00  0.00    -0.024 C 
HETATM   25  C   UNL     1     -45.191  60.133 -55.941  1.00  0.00    -0.053 C 
HETATM   26  C   UNL     1     -45.629  61.228 -56.884  1.00  0.00     0.049 C 
HETATM   27  C   UNL     1     -45.454  60.384 -54.578  1.00  0.00     0.014 C 
HETATM   28  C   UNL     1     -45.240  59.418 -53.597  1.00  0.00    -0.061 C 
HETATM   29  C   UNL     1     -45.604  59.691 -52.168  1.00  0.00     0.048 C 
HETATM   30  C   UNL     1     -44.795  58.163 -53.996  1.00  0.00     0.007 C 
HETATM   31  C   UNL     1     -44.502  57.906 -55.342  1.00  0.00     0.011 C 
ENDBRANCH   6  24
BRANCH   9  32
HETATM   32  C   UNL     1     -42.057  59.733 -57.849  1.00  0.00     0.293 C 
HETATM   33  O   UNL     1     -41.183  58.916 -57.593  1.00  0.00    -0.259 OA
BRANCH  32  34
HETATM   34  O   UNL     1     -42.097  61.033 -57.514  1.00  0.00    -0.323 OA
HETATM   35  C   UNL     1     -41.183  61.854 -58.249  1.00  0.00     0.213 C 
ENDBRANCH  32  34
ENDBRANCH   9  32
BRANCH   1  36
HETATM   36  C   UNL     1     -42.256  59.771 -60.896  1.00  0.00     0.056 C 
HETATM   37  C   UNL     1     -42.894  60.781 -61.841  1.00  0.00     0.011 C 
ENDBRANCH   1  36
TORSDOF 9
ENDMDL
