MODEL 1
REMARK VINA RESULT:      -7.9      0.000      0.000
REMARK  8 active torsions:
REMARK  status: ('A' for Active; 'I' for Inactive)
REMARK    1  A    between atoms: C_2  and  C_3 
REMARK    2  A    between atoms: C_3  and  N_4 
REMARK    3  A    between atoms: N_4  and  C_5 
REMARK    4  A    between atoms: C_7  and  N_8 
REMARK    5  A    between atoms: N_8  and  C_9 
REMARK    6  A    between atoms: C_9  and  C_10 
REMARK    7  A    between atoms: C_10  and  C_11 
REMARK    8  A    between atoms: C_13  and  O_14 
ROOT
HETATM    1  C   UNL     1     -40.237  53.496 -52.227  1.00  0.00     0.119 A 
HETATM    2  N   UNL     1     -40.563  54.324 -53.238  1.00  0.00    -0.207 NA
HETATM    3  C   UNL     1     -40.626  53.807 -54.469  1.00  0.00     0.181 A 
HETATM    4  N   UNL     1     -40.357  52.535 -54.745  1.00  0.00    -0.330 N 
HETATM    5  H   UNL     1     -40.361  52.262 -55.719  1.00  0.00     0.168 HD
HETATM    6  C   UNL     1     -40.057  51.665 -53.776  1.00  0.00     0.048 A 
HETATM    7  C   UNL     1     -39.997  52.120 -52.444  1.00  0.00     0.031 A 
HETATM    8  C   UNL     1     -39.817  50.319 -54.088  1.00  0.00     0.030 A 
HETATM    9  C   UNL     1     -39.530  49.406 -53.075  1.00  0.00     0.002 A 
HETATM   10  C   UNL     1     -39.482  49.831 -51.751  1.00  0.00     0.001 A 
HETATM   11  C   UNL     1     -39.713  51.172 -51.434  1.00  0.00     0.017 A 
ENDROOT
BRANCH   3  12
HETATM   12  N   UNL     1     -40.931  54.672 -55.512  1.00  0.00    -0.262 NA
HETATM   13  H   UNL     1     -40.031  54.848 -55.970  1.00  0.00     0.130 HD
BRANCH  12  14
HETATM   14  C   UNL     1     -41.567  55.928 -55.103  1.00  0.00     0.100 C 
BRANCH  14  15
HETATM   15  C   UNL     1     -42.956  56.059 -55.741  1.00  0.00     0.053 C 
BRANCH  15  16
HETATM   16  C   UNL     1     -42.858  56.556 -57.162  1.00  0.00    -0.054 A 
HETATM   17  C   UNL     1     -43.321  55.770 -58.232  1.00  0.00     0.044 A 
HETATM   18  C   UNL     1     -43.185  56.215 -59.549  1.00  0.00     0.068 A 
HETATM   19  C   UNL     1     -42.590  57.454 -59.795  1.00  0.00     0.037 A 
HETATM   20  C   UNL     1     -42.139  58.247 -58.742  1.00  0.00     0.003 A 
HETATM   21  C   UNL     1     -42.270  57.800 -57.429  1.00  0.00     0.007 A 
BRANCH  18  22
HETATM   22  O   UNL     1     -43.575  55.541 -60.672  1.00  0.00    -0.356 OA
HETATM   23  C   UNL     1     -44.953  55.216 -60.794  1.00  0.00     0.210 C 
ENDBRANCH  18  22
ENDBRANCH  15  16
ENDBRANCH  14  15
ENDBRANCH  12  14
ENDBRANCH   3  12
BRANCH   1  24
HETATM   24  N   UNL     1     -40.189  54.005 -50.922  1.00  0.00    -0.277 NA
HETATM   25  H   UNL     1     -39.231  54.225 -50.655  1.00  0.00     0.129 HD
BRANCH  24  26
HETATM   26  C   UNL     1     -41.093  55.114 -50.615  1.00  0.00     0.093 C 
BRANCH  26  27
HETATM   27  C   UNL     1     -41.276  55.239 -49.101  1.00  0.00     0.010 C 
HETATM   28  C   UNL     1     -40.482  54.198 -48.324  1.00  0.00     0.006 C 
ENDBRANCH  26  27
ENDBRANCH  24  26
ENDBRANCH   1  24
TORSDOF 8
ENDMDL
MODEL 2
REMARK VINA RESULT:      -7.9      2.808      4.340
REMARK  8 active torsions:
REMARK  status: ('A' for Active; 'I' for Inactive)
REMARK    1  A    between atoms: C_2  and  C_3 
REMARK    2  A    between atoms: C_3  and  N_4 
REMARK    3  A    between atoms: N_4  and  C_5 
REMARK    4  A    between atoms: C_7  and  N_8 
REMARK    5  A    between atoms: N_8  and  C_9 
REMARK    6  A    between atoms: C_9  and  C_10 
REMARK    7  A    between atoms: C_10  and  C_11 
REMARK    8  A    between atoms: C_13  and  O_14 
ROOT
HETATM    1  C   UNL     1     -40.186  53.499 -52.194  1.00  0.00     0.119 A 
HETATM    2  N   UNL     1     -40.480  54.328 -53.215  1.00  0.00    -0.207 NA
HETATM    3  C   UNL     1     -40.536  53.803 -54.444  1.00  0.00     0.181 A 
HETATM    4  N   UNL     1     -40.294  52.524 -54.708  1.00  0.00    -0.330 N 
HETATM    5  H   UNL     1     -40.290  52.245 -55.680  1.00  0.00     0.168 HD
HETATM    6  C   UNL     1     -40.027  51.654 -53.729  1.00  0.00     0.048 A 
HETATM    7  C   UNL     1     -39.975  52.117 -52.399  1.00  0.00     0.031 A 
HETATM    8  C   UNL     1     -39.814  50.301 -54.030  1.00  0.00     0.030 A 
HETATM    9  C   UNL     1     -39.562  49.388 -53.006  1.00  0.00     0.002 A 
HETATM   10  C   UNL     1     -39.522  49.820 -51.685  1.00  0.00     0.001 A 
HETATM   11  C   UNL     1     -39.727  51.169 -51.379  1.00  0.00     0.017 A 
ENDROOT
BRANCH   3  12
HETATM   12  N   UNL     1     -40.808  54.669 -55.497  1.00  0.00    -0.262 NA
HETATM   13  H   UNL     1     -40.224  55.490 -55.309  1.00  0.00     0.130 HD
BRANCH  12  14
HETATM   14  C   UNL     1     -42.218  55.046 -55.635  1.00  0.00     0.100 C 
BRANCH  14  15
HETATM   15  C   UNL     1     -42.364  56.573 -55.662  1.00  0.00     0.053 C 
BRANCH  15  16
HETATM   16  C   UNL     1     -42.283  57.153 -54.273  1.00  0.00    -0.054 A 
HETATM   17  C   UNL     1     -41.267  58.064 -53.932  1.00  0.00     0.044 A 
HETATM   18  C   UNL     1     -41.168  58.562 -52.631  1.00  0.00     0.068 A 
HETATM   19  C   UNL     1     -42.093  58.152 -51.669  1.00  0.00     0.037 A 
HETATM   20  C   UNL     1     -43.112  57.260 -51.998  1.00  0.00     0.003 A 
HETATM   21  C   UNL     1     -43.206  56.759 -53.294  1.00  0.00     0.007 A 
BRANCH  18  22
HETATM   22  O   UNL     1     -40.221  59.434 -52.172  1.00  0.00    -0.356 OA
HETATM   23  C   UNL     1     -39.626  59.149 -50.913  1.00  0.00     0.210 C 
ENDBRANCH  18  22
ENDBRANCH  15  16
ENDBRANCH  14  15
ENDBRANCH  12  14
ENDBRANCH   3  12
BRANCH   1  24
HETATM   24  N   UNL     1     -40.144  54.015 -50.892  1.00  0.00    -0.277 NA
HETATM   25  H   UNL     1     -39.426  54.732 -50.810  1.00  0.00     0.129 HD
BRANCH  24  26
HETATM   26  C   UNL     1     -41.415  54.471 -50.324  1.00  0.00     0.093 C 
BRANCH  26  27
HETATM   27  C   UNL     1     -41.204  54.953 -48.888  1.00  0.00     0.010 C 
HETATM   28  C   UNL     1     -40.317  54.020 -48.076  1.00  0.00     0.006 C 
ENDBRANCH  26  27
ENDBRANCH  24  26
ENDBRANCH   1  24
TORSDOF 8
ENDMDL
MODEL 3
REMARK VINA RESULT:      -7.8      1.257      3.586
REMARK  8 active torsions:
REMARK  status: ('A' for Active; 'I' for Inactive)
REMARK    1  A    between atoms: C_2  and  C_3 
REMARK    2  A    between atoms: C_3  and  N_4 
REMARK    3  A    between atoms: N_4  and  C_5 
REMARK    4  A    between atoms: C_7  and  N_8 
REMARK    5  A    between atoms: N_8  and  C_9 
REMARK    6  A    between atoms: C_9  and  C_10 
REMARK    7  A    between atoms: C_10  and  C_11 
REMARK    8  A    between atoms: C_13  and  O_14 
ROOT
HETATM    1  C   UNL     1     -40.897  53.069 -52.925  1.00  0.00     0.119 A 
HETATM    2  N   UNL     1     -41.776  53.414 -53.886  1.00  0.00    -0.207 NA
HETATM    3  C   UNL     1     -42.701  54.330 -53.579  1.00  0.00     0.181 A 
HETATM    4  N   UNL     1     -42.811  54.890 -52.379  1.00  0.00    -0.330 N 
HETATM    5  H   UNL     1     -43.591  55.516 -52.230  1.00  0.00     0.168 HD
HETATM    6  C   UNL     1     -41.946  54.604 -51.401  1.00  0.00     0.048 A 
HETATM    7  C   UNL     1     -40.921  53.668 -51.647  1.00  0.00     0.031 A 
HETATM    8  C   UNL     1     -42.059  55.238 -50.155  1.00  0.00     0.030 A 
HETATM    9  C   UNL     1     -41.142  54.959 -49.142  1.00  0.00     0.002 A 
HETATM   10  C   UNL     1     -40.113  54.051 -49.369  1.00  0.00     0.001 A 
HETATM   11  C   UNL     1     -39.999  53.411 -50.606  1.00  0.00     0.017 A 
ENDROOT
BRANCH   3  12
HETATM   12  N   UNL     1     -43.625  54.660 -54.563  1.00  0.00    -0.262 NA
HETATM   13  H   UNL     1     -44.210  53.823 -54.654  1.00  0.00     0.130 HD
BRANCH  12  14
HETATM   14  C   UNL     1     -43.041  55.036 -55.854  1.00  0.00     0.100 C 
BRANCH  14  15
HETATM   15  C   UNL     1     -43.183  56.546 -56.087  1.00  0.00     0.053 C 
BRANCH  15  16
HETATM   16  C   UNL     1     -42.994  56.893 -57.542  1.00  0.00    -0.054 A 
HETATM   17  C   UNL     1     -43.627  56.142 -58.548  1.00  0.00     0.044 A 
HETATM   18  C   UNL     1     -43.412  56.439 -59.896  1.00  0.00     0.068 A 
HETATM   19  C   UNL     1     -42.565  57.494 -60.238  1.00  0.00     0.037 A 
HETATM   20  C   UNL     1     -41.942  58.254 -59.249  1.00  0.00     0.003 A 
HETATM   21  C   UNL     1     -42.153  57.955 -57.906  1.00  0.00     0.007 A 
BRANCH  18  22
HETATM   22  O   UNL     1     -43.951  55.776 -60.963  1.00  0.00    -0.356 OA
HETATM   23  C   UNL     1     -44.923  54.777 -60.689  1.00  0.00     0.210 C 
ENDBRANCH  18  22
ENDBRANCH  15  16
ENDBRANCH  14  15
ENDBRANCH  12  14
ENDBRANCH   3  12
BRANCH   1  24
HETATM   24  N   UNL     1     -39.900  52.129 -53.225  1.00  0.00    -0.277 NA
HETATM   25  H   UNL     1     -39.630  51.611 -52.392  1.00  0.00     0.129 HD
BRANCH  24  26
HETATM   26  C   UNL     1     -40.164  51.227 -54.348  1.00  0.00     0.093 C 
BRANCH  26  27
HETATM   27  C   UNL     1     -39.612  49.834 -54.042  1.00  0.00     0.010 C 
HETATM   28  C   UNL     1     -39.637  49.503 -52.557  1.00  0.00     0.006 C 
ENDBRANCH  26  27
ENDBRANCH  24  26
ENDBRANCH   1  24
TORSDOF 8
ENDMDL
MODEL 4
REMARK VINA RESULT:      -7.7      2.709      4.937
REMARK  8 active torsions:
REMARK  status: ('A' for Active; 'I' for Inactive)
REMARK    1  A    between atoms: C_2  and  C_3 
REMARK    2  A    between atoms: C_3  and  N_4 
REMARK    3  A    between atoms: N_4  and  C_5 
REMARK    4  A    between atoms: C_7  and  N_8 
REMARK    5  A    between atoms: N_8  and  C_9 
REMARK    6  A    between atoms: C_9  and  C_10 
REMARK    7  A    between atoms: C_10  and  C_11 
REMARK    8  A    between atoms: C_13  and  O_14 
ROOT
HETATM    1  C   UNL     1     -40.504  53.481 -53.450  1.00  0.00     0.119 A 
HETATM    2  N   UNL     1     -40.557  54.324 -52.401  1.00  0.00    -0.207 NA
HETATM    3  C   UNL     1     -40.284  53.827 -51.190  1.00  0.00     0.181 A 
HETATM    4  N   UNL     1     -39.993  52.549 -50.970  1.00  0.00    -0.330 N 
HETATM    5  H   UNL     1     -39.875  52.260 -50.009  1.00  0.00     0.168 HD
HETATM    6  C   UNL     1     -39.897  51.678 -51.980  1.00  0.00     0.048 A 
HETATM    7  C   UNL     1     -40.143  52.124 -53.293  1.00  0.00     0.031 A 
HETATM    8  C   UNL     1     -39.549  50.343 -51.726  1.00  0.00     0.030 A 
HETATM    9  C   UNL     1     -39.424  49.440 -52.780  1.00  0.00     0.002 A 
HETATM   10  C   UNL     1     -39.645  49.863 -54.087  1.00  0.00     0.001 A 
HETATM   11  C   UNL     1     -40.000  51.190 -54.346  1.00  0.00     0.017 A 
ENDROOT
BRANCH   3  12
HETATM   12  N   UNL     1     -40.372  54.693 -50.108  1.00  0.00    -0.262 NA
HETATM   13  H   UNL     1     -40.390  54.077 -49.289  1.00  0.00     0.130 HD
BRANCH  12  14
HETATM   14  C   UNL     1     -41.539  55.580 -50.123  1.00  0.00     0.100 C 
BRANCH  14  15
HETATM   15  C   UNL     1     -41.110  57.027 -50.400  1.00  0.00     0.053 C 
BRANCH  15  16
HETATM   16  C   UNL     1     -41.864  57.605 -51.571  1.00  0.00    -0.054 A 
HETATM   17  C   UNL     1     -41.192  58.319 -52.578  1.00  0.00     0.044 A 
HETATM   18  C   UNL     1     -41.901  58.893 -53.636  1.00  0.00     0.068 A 
HETATM   19  C   UNL     1     -43.288  58.745 -53.689  1.00  0.00     0.037 A 
HETATM   20  C   UNL     1     -43.965  58.028 -52.703  1.00  0.00     0.003 A 
HETATM   21  C   UNL     1     -43.257  57.461 -51.646  1.00  0.00     0.007 A 
BRANCH  18  22
HETATM   22  O   UNL     1     -41.370  59.622 -54.661  1.00  0.00    -0.356 OA
HETATM   23  C   UNL     1     -42.230  59.955 -55.742  1.00  0.00     0.210 C 
ENDBRANCH  18  22
ENDBRANCH  15  16
ENDBRANCH  14  15
ENDBRANCH  12  14
ENDBRANCH   3  12
BRANCH   1  24
HETATM   24  N   UNL     1     -40.761  53.980 -54.735  1.00  0.00    -0.277 NA
HETATM   25  H   UNL     1     -41.348  53.337 -55.262  1.00  0.00     0.129 HD
BRANCH  24  26
HETATM   26  C   UNL     1     -41.269  55.351 -54.818  1.00  0.00     0.093 C 
BRANCH  26  27
HETATM   27  C   UNL     1     -42.667  55.355 -55.440  1.00  0.00     0.010 C 
HETATM   28  C   UNL     1     -43.744  54.888 -54.472  1.00  0.00     0.006 C 
ENDBRANCH  26  27
ENDBRANCH  24  26
ENDBRANCH   1  24
TORSDOF 8
ENDMDL
MODEL 5
REMARK VINA RESULT:      -7.6      1.096      1.749
REMARK  8 active torsions:
REMARK  status: ('A' for Active; 'I' for Inactive)
REMARK    1  A    between atoms: C_2  and  C_3 
REMARK    2  A    between atoms: C_3  and  N_4 
REMARK    3  A    between atoms: N_4  and  C_5 
REMARK    4  A    between atoms: C_7  and  N_8 
REMARK    5  A    between atoms: N_8  and  C_9 
REMARK    6  A    between atoms: C_9  and  C_10 
REMARK    7  A    between atoms: C_10  and  C_11 
REMARK    8  A    between atoms: C_13  and  O_14 
ROOT
HETATM    1  C   UNL     1     -40.218  53.502 -52.171  1.00  0.00     0.119 A 
HETATM    2  N   UNL     1     -40.553  54.366 -53.150  1.00  0.00    -0.207 NA
HETATM    3  C   UNL     1     -40.640  53.888 -54.396  1.00  0.00     0.181 A 
HETATM    4  N   UNL     1     -40.389  52.624 -54.716  1.00  0.00    -0.330 N 
HETATM    5  H   UNL     1     -40.412  52.382 -55.698  1.00  0.00     0.168 HD
HETATM    6  C   UNL     1     -40.082  51.720 -53.780  1.00  0.00     0.048 A 
HETATM    7  C   UNL     1     -39.995  52.132 -52.436  1.00  0.00     0.031 A 
HETATM    8  C   UNL     1     -39.861  50.383 -54.140  1.00  0.00     0.030 A 
HETATM    9  C   UNL     1     -39.566  49.435 -53.161  1.00  0.00     0.002 A 
HETATM   10  C   UNL     1     -39.492  49.817 -51.825  1.00  0.00     0.001 A 
HETATM   11  C   UNL     1     -39.704  51.149 -51.461  1.00  0.00     0.017 A 
ENDROOT
BRANCH   3  12
HETATM   12  N   UNL     1     -40.955  54.789 -55.405  1.00  0.00    -0.262 NA
HETATM   13  H   UNL     1     -40.657  55.699 -55.038  1.00  0.00     0.130 HD
BRANCH  12  14
HETATM   14  C   UNL     1     -42.369  54.815 -55.788  1.00  0.00     0.100 C 
BRANCH  14  15
HETATM   15  C   UNL     1     -42.838  56.258 -56.016  1.00  0.00     0.053 C 
BRANCH  15  16
HETATM   16  C   UNL     1     -42.732  56.643 -57.470  1.00  0.00    -0.054 A 
HETATM   17  C   UNL     1     -42.315  57.932 -57.845  1.00  0.00     0.044 A 
HETATM   18  C   UNL     1     -42.263  58.298 -59.192  1.00  0.00     0.068 A 
HETATM   19  C   UNL     1     -42.625  57.367 -60.167  1.00  0.00     0.037 A 
HETATM   20  C   UNL     1     -43.029  56.082 -59.809  1.00  0.00     0.003 A 
HETATM   21  C   UNL     1     -43.084  55.720 -58.465  1.00  0.00     0.007 A 
BRANCH  18  22
HETATM   22  O   UNL     1     -41.894  59.519 -59.682  1.00  0.00    -0.356 OA
HETATM   23  C   UNL     1     -42.885  60.277 -60.361  1.00  0.00     0.210 C 
ENDBRANCH  18  22
ENDBRANCH  15  16
ENDBRANCH  14  15
ENDBRANCH  12  14
ENDBRANCH   3  12
BRANCH   1  24
HETATM   24  N   UNL     1     -40.143  53.969 -50.852  1.00  0.00    -0.277 NA
HETATM   25  H   UNL     1     -39.181  54.183 -50.598  1.00  0.00     0.129 HD
BRANCH  24  26
HETATM   26  C   UNL     1     -41.043  55.065 -50.490  1.00  0.00     0.093 C 
BRANCH  26  27
HETATM   27  C   UNL     1     -41.226  55.114 -48.972  1.00  0.00     0.010 C 
HETATM   28  C   UNL     1     -40.397  54.066 -48.243  1.00  0.00     0.006 C 
ENDBRANCH  26  27
ENDBRANCH  24  26
ENDBRANCH   1  24
TORSDOF 8
ENDMDL
MODEL 6
REMARK VINA RESULT:      -7.6      2.762      4.082
REMARK  8 active torsions:
REMARK  status: ('A' for Active; 'I' for Inactive)
REMARK    1  A    between atoms: C_2  and  C_3 
REMARK    2  A    between atoms: C_3  and  N_4 
REMARK    3  A    between atoms: N_4  and  C_5 
REMARK    4  A    between atoms: C_7  and  N_8 
REMARK    5  A    between atoms: N_8  and  C_9 
REMARK    6  A    between atoms: C_9  and  C_10 
REMARK    7  A    between atoms: C_10  and  C_11 
REMARK    8  A    between atoms: C_13  and  O_14 
ROOT
HETATM    1  C   UNL     1     -40.281  53.499 -52.115  1.00  0.00     0.119 A 
HETATM    2  N   UNL     1     -40.502  54.272 -53.197  1.00  0.00    -0.207 NA
HETATM    3  C   UNL     1     -40.442  53.689 -54.399  1.00  0.00     0.181 A 
HETATM    4  N   UNL     1     -40.152  52.405 -54.579  1.00  0.00    -0.330 N 
HETATM    5  H   UNL     1     -40.060  52.081 -55.532  1.00  0.00     0.168 HD
HETATM    6  C   UNL     1     -39.954  51.589 -53.539  1.00  0.00     0.048 A 
HETATM    7  C   UNL     1     -40.025  52.114 -52.234  1.00  0.00     0.031 A 
HETATM    8  C   UNL     1     -39.688  50.228 -53.754  1.00  0.00     0.030 A 
HETATM    9  C   UNL     1     -39.507  49.371 -52.670  1.00  0.00     0.002 A 
HETATM   10  C   UNL     1     -39.590  49.866 -51.372  1.00  0.00     0.001 A 
HETATM   11  C   UNL     1     -39.847  51.221 -51.152  1.00  0.00     0.017 A 
ENDROOT
BRANCH   3  12
HETATM   12  N   UNL     1     -40.639  54.497 -55.512  1.00  0.00    -0.262 NA
HETATM   13  H   UNL     1     -40.039  55.312 -55.345  1.00  0.00     0.130 HD
BRANCH  12  14
HETATM   14  C   UNL     1     -42.029  54.906 -55.736  1.00  0.00     0.100 C 
BRANCH  14  15
HETATM   15  C   UNL     1     -42.139  56.436 -55.777  1.00  0.00     0.053 C 
BRANCH  15  16
HETATM   16  C   UNL     1     -42.331  57.005 -54.394  1.00  0.00    -0.054 A 
HETATM   17  C   UNL     1     -43.585  56.946 -53.760  1.00  0.00     0.044 A 
HETATM   18  C   UNL     1     -43.770  57.516 -52.498  1.00  0.00     0.068 A 
HETATM   19  C   UNL     1     -42.694  58.142 -51.866  1.00  0.00     0.037 A 
HETATM   20  C   UNL     1     -41.443  58.196 -52.479  1.00  0.00     0.003 A 
HETATM   21  C   UNL     1     -41.262  57.632 -53.739  1.00  0.00     0.007 A 
BRANCH  18  22
HETATM   22  O   UNL     1     -44.937  57.541 -51.789  1.00  0.00    -0.356 OA
HETATM   23  C   UNL     1     -45.342  58.788 -51.239  1.00  0.00     0.210 C 
ENDBRANCH  18  22
ENDBRANCH  15  16
ENDBRANCH  14  15
ENDBRANCH  12  14
ENDBRANCH   3  12
BRANCH   1  24
HETATM   24  N   UNL     1     -40.362  54.076 -50.841  1.00  0.00    -0.277 NA
HETATM   25  H   UNL     1     -39.524  54.617 -50.635  1.00  0.00     0.129 HD
BRANCH  24  26
HETATM   26  C   UNL     1     -41.573  54.843 -50.542  1.00  0.00     0.093 C 
BRANCH  26  27
HETATM   27  C   UNL     1     -42.802  54.118 -51.094  1.00  0.00     0.010 C 
HETATM   28  C   UNL     1     -44.085  54.493 -50.367  1.00  0.00     0.006 C 
ENDBRANCH  26  27
ENDBRANCH  24  26
ENDBRANCH   1  24
TORSDOF 8
ENDMDL
MODEL 7
REMARK VINA RESULT:      -7.5      3.270      5.759
REMARK  8 active torsions:
REMARK  status: ('A' for Active; 'I' for Inactive)
REMARK    1  A    between atoms: C_2  and  C_3 
REMARK    2  A    between atoms: C_3  and  N_4 
REMARK    3  A    between atoms: N_4  and  C_5 
REMARK    4  A    between atoms: C_7  and  N_8 
REMARK    5  A    between atoms: N_8  and  C_9 
REMARK    6  A    between atoms: C_9  and  C_10 
REMARK    7  A    between atoms: C_10  and  C_11 
REMARK    8  A    between atoms: C_13  and  O_14 
ROOT
HETATM    1  C   UNL     1     -41.079  53.216 -53.119  1.00  0.00     0.119 A 
HETATM    2  N   UNL     1     -42.061  53.635 -53.941  1.00  0.00    -0.207 NA
HETATM    3  C   UNL     1     -42.985  54.458 -53.434  1.00  0.00     0.181 A 
HETATM    4  N   UNL     1     -42.998  54.856 -52.167  1.00  0.00    -0.330 N 
HETATM    5  H   UNL     1     -43.783  55.418 -51.866  1.00  0.00     0.168 HD
HETATM    6  C   UNL     1     -42.032  54.493 -51.318  1.00  0.00     0.048 A 
HETATM    7  C   UNL     1     -41.001  53.649 -51.776  1.00  0.00     0.031 A 
HETATM    8  C   UNL     1     -42.046  54.959 -49.995  1.00  0.00     0.030 A 
HETATM    9  C   UNL     1     -41.025  54.602 -49.116  1.00  0.00     0.002 A 
HETATM   10  C   UNL     1     -39.989  53.783 -49.552  1.00  0.00     0.001 A 
HETATM   11  C   UNL     1     -39.972  53.309 -50.867  1.00  0.00     0.017 A 
ENDROOT
BRANCH   3  12
HETATM   12  N   UNL     1     -44.013  54.861 -54.277  1.00  0.00    -0.262 NA
HETATM   13  H   UNL     1     -44.096  54.101 -54.960  1.00  0.00     0.130 HD
BRANCH  12  14
HETATM   14  C   UNL     1     -43.791  56.147 -54.946  1.00  0.00     0.100 C 
BRANCH  14  15
HETATM   15  C   UNL     1     -44.737  57.215 -54.381  1.00  0.00     0.053 C 
BRANCH  15  16
HETATM   16  C   UNL     1     -44.054  58.040 -53.318  1.00  0.00    -0.054 A 
HETATM   17  C   UNL     1     -42.701  58.398 -53.444  1.00  0.00     0.044 A 
HETATM   18  C   UNL     1     -42.061  59.122 -52.435  1.00  0.00     0.068 A 
HETATM   19  C   UNL     1     -42.781  59.493 -51.299  1.00  0.00     0.037 A 
HETATM   20  C   UNL     1     -44.126  59.155 -51.168  1.00  0.00     0.003 A 
HETATM   21  C   UNL     1     -44.762  58.429 -52.172  1.00  0.00     0.007 A 
BRANCH  18  22
HETATM   22  O   UNL     1     -40.752  59.513 -52.431  1.00  0.00    -0.356 OA
HETATM   23  C   UNL     1     -39.979  59.196 -51.281  1.00  0.00     0.210 C 
ENDBRANCH  18  22
ENDBRANCH  15  16
ENDBRANCH  14  15
ENDBRANCH  12  14
ENDBRANCH   3  12
BRANCH   1  24
HETATM   24  N   UNL     1     -40.081  52.374 -53.629  1.00  0.00    -0.277 NA
HETATM   25  H   UNL     1     -39.424  52.108 -52.898  1.00  0.00     0.129 HD
BRANCH  24  26
HETATM   26  C   UNL     1     -40.532  51.204 -54.386  1.00  0.00     0.093 C 
BRANCH  26  27
HETATM   27  C   UNL     1     -39.615  50.012 -54.105  1.00  0.00     0.010 C 
HETATM   28  C   UNL     1     -39.659  49.563 -52.652  1.00  0.00     0.006 C 
ENDBRANCH  26  27
ENDBRANCH  24  26
ENDBRANCH   1  24
TORSDOF 8
ENDMDL
MODEL 8
REMARK VINA RESULT:      -7.3      1.860      2.604
REMARK  8 active torsions:
REMARK  status: ('A' for Active; 'I' for Inactive)
REMARK    1  A    between atoms: C_2  and  C_3 
REMARK    2  A    between atoms: C_3  and  N_4 
REMARK    3  A    between atoms: N_4  and  C_5 
REMARK    4  A    between atoms: C_7  and  N_8 
REMARK    5  A    between atoms: N_8  and  C_9 
REMARK    6  A    between atoms: C_9  and  C_10 
REMARK    7  A    between atoms: C_10  and  C_11 
REMARK    8  A    between atoms: C_13  and  O_14 
ROOT
HETATM    1  C   UNL     1     -41.526  54.885 -52.861  1.00  0.00     0.119 A 
HETATM    2  N   UNL     1     -42.394  55.328 -53.792  1.00  0.00    -0.207 NA
HETATM    3  C   UNL     1     -42.633  54.537 -54.844  1.00  0.00     0.181 A 
HETATM    4  N   UNL     1     -42.042  53.361 -55.027  1.00  0.00    -0.330 N 
HETATM    5  H   UNL     1     -42.237  52.875 -55.892  1.00  0.00     0.168 HD
HETATM    6  C   UNL     1     -41.196  52.863 -54.120  1.00  0.00     0.048 A 
HETATM    7  C   UNL     1     -40.908  53.619 -52.966  1.00  0.00     0.031 A 
HETATM    8  C   UNL     1     -40.616  51.601 -54.318  1.00  0.00     0.030 A 
HETATM    9  C   UNL     1     -39.754  51.069 -53.360  1.00  0.00     0.002 A 
HETATM   10  C   UNL     1     -39.469  51.792 -52.205  1.00  0.00     0.001 A 
HETATM   11  C   UNL     1     -40.038  53.052 -52.006  1.00  0.00     0.017 A 
ENDROOT
BRANCH   3  12
HETATM   12  N   UNL     1     -43.504  55.012 -55.816  1.00  0.00    -0.262 NA
HETATM   13  H   UNL     1     -43.556  54.254 -56.504  1.00  0.00     0.130 HD
BRANCH  12  14
HETATM   14  C   UNL     1     -43.092  56.268 -56.450  1.00  0.00     0.100 C 
BRANCH  14  15
HETATM   15  C   UNL     1     -42.674  56.023 -57.906  1.00  0.00     0.053 C 
BRANCH  15  16
HETATM   16  C   UNL     1     -43.873  56.011 -58.822  1.00  0.00    -0.054 A 
HETATM   17  C   UNL     1     -44.851  57.017 -58.739  1.00  0.00     0.044 A 
HETATM   18  C   UNL     1     -45.982  56.976 -59.557  1.00  0.00     0.068 A 
HETATM   19  C   UNL     1     -46.131  55.928 -60.466  1.00  0.00     0.037 A 
HETATM   20  C   UNL     1     -45.161  54.931 -60.567  1.00  0.00     0.003 A 
HETATM   21  C   UNL     1     -44.036  54.971 -59.746  1.00  0.00     0.007 A 
BRANCH  18  22
HETATM   22  O   UNL     1     -47.008  57.879 -59.559  1.00  0.00    -0.356 OA
HETATM   23  C   UNL     1     -47.085  58.779 -60.656  1.00  0.00     0.210 C 
ENDBRANCH  18  22
ENDBRANCH  15  16
ENDBRANCH  14  15
ENDBRANCH  12  14
ENDBRANCH   3  12
BRANCH   1  24
HETATM   24  N   UNL     1     -41.275  55.681 -51.736  1.00  0.00    -0.277 NA
HETATM   25  H   UNL     1     -40.881  56.579 -52.008  1.00  0.00     0.129 HD
BRANCH  24  26
HETATM   26  C   UNL     1     -42.381  55.852 -50.791  1.00  0.00     0.093 C 
BRANCH  26  27
HETATM   27  C   UNL     1     -42.327  54.764 -49.717  1.00  0.00     0.010 C 
HETATM   28  C   UNL     1     -41.040  54.800 -48.906  1.00  0.00     0.006 C 
ENDBRANCH  26  27
ENDBRANCH  24  26
ENDBRANCH   1  24
TORSDOF 8
ENDMDL
MODEL 9
REMARK VINA RESULT:      -7.2      1.461      3.964
REMARK  8 active torsions:
REMARK  status: ('A' for Active; 'I' for Inactive)
REMARK    1  A    between atoms: C_2  and  C_3 
REMARK    2  A    between atoms: C_3  and  N_4 
REMARK    3  A    between atoms: N_4  and  C_5 
REMARK    4  A    between atoms: C_7  and  N_8 
REMARK    5  A    between atoms: N_8  and  C_9 
REMARK    6  A    between atoms: C_9  and  C_10 
REMARK    7  A    between atoms: C_10  and  C_11 
REMARK    8  A    between atoms: C_13  and  O_14 
ROOT
HETATM    1  C   UNL     1     -40.402  53.374 -52.974  1.00  0.00     0.119 A 
HETATM    2  N   UNL     1     -40.643  54.176 -54.029  1.00  0.00    -0.207 NA
HETATM    3  C   UNL     1     -41.121  55.400 -53.781  1.00  0.00     0.181 A 
HETATM    4  N   UNL     1     -41.393  55.849 -52.560  1.00  0.00    -0.330 N 
HETATM    5  H   UNL     1     -41.821  56.762 -52.488  1.00  0.00     0.168 HD
HETATM    6  C   UNL     1     -41.145  55.104 -51.478  1.00  0.00     0.048 A 
HETATM    7  C   UNL     1     -40.614  53.810 -51.647  1.00  0.00     0.031 A 
HETATM    8  C   UNL     1     -41.404  55.616 -50.198  1.00  0.00     0.030 A 
HETATM    9  C   UNL     1     -41.121  54.850 -49.068  1.00  0.00     0.002 A 
HETATM   10  C   UNL     1     -40.581  53.576 -49.211  1.00  0.00     0.001 A 
HETATM   11  C   UNL     1     -40.328  53.057 -50.484  1.00  0.00     0.017 A 
ENDROOT
BRANCH   3  12
HETATM   12  N   UNL     1     -41.398  56.212 -54.874  1.00  0.00    -0.262 NA
HETATM   13  H   UNL     1     -41.221  57.164 -54.537  1.00  0.00     0.130 HD
BRANCH  12  14
HETATM   14  C   UNL     1     -42.759  56.087 -55.404  1.00  0.00     0.100 C 
BRANCH  14  15
HETATM   15  C   UNL     1     -42.777  55.157 -56.624  1.00  0.00     0.053 C 
BRANCH  15  16
HETATM   16  C   UNL     1     -43.089  55.920 -57.886  1.00  0.00    -0.054 A 
HETATM   17  C   UNL     1     -42.829  57.299 -57.976  1.00  0.00     0.044 A 
HETATM   18  C   UNL     1     -43.163  58.010 -59.131  1.00  0.00     0.068 A 
HETATM   19  C   UNL     1     -43.753  57.337 -60.202  1.00  0.00     0.037 A 
HETATM   20  C   UNL     1     -44.003  55.968 -60.130  1.00  0.00     0.003 A 
HETATM   21  C   UNL     1     -43.675  55.261 -58.976  1.00  0.00     0.007 A 
BRANCH  18  22
HETATM   22  O   UNL     1     -42.981  59.349 -59.334  1.00  0.00    -0.356 OA
HETATM   23  C   UNL     1     -41.916  59.977 -58.633  1.00  0.00     0.210 C 
ENDBRANCH  18  22
ENDBRANCH  15  16
ENDBRANCH  14  15
ENDBRANCH  12  14
ENDBRANCH   3  12
BRANCH   1  24
HETATM   24  N   UNL     1     -39.877  52.094 -53.201  1.00  0.00    -0.277 NA
HETATM   25  H   UNL     1     -39.910  51.534 -52.352  1.00  0.00     0.129 HD
BRANCH  24  26
HETATM   26  C   UNL     1     -40.417  51.356 -54.345  1.00  0.00     0.093 C 
BRANCH  26  27
HETATM   27  C   UNL     1     -39.919  49.909 -54.317  1.00  0.00     0.010 C 
HETATM   28  C   UNL     1     -39.585  49.427 -52.913  1.00  0.00     0.006 C 
ENDBRANCH  26  27
ENDBRANCH  24  26
ENDBRANCH   1  24
TORSDOF 8
ENDMDL
MODEL 10
REMARK VINA RESULT:      -7.2      3.253      7.980
REMARK  8 active torsions:
REMARK  status: ('A' for Active; 'I' for Inactive)
REMARK    1  A    between atoms: C_2  and  C_3 
REMARK    2  A    between atoms: C_3  and  N_4 
REMARK    3  A    between atoms: N_4  and  C_5 
REMARK    4  A    between atoms: C_7  and  N_8 
REMARK    5  A    between atoms: N_8  and  C_9 
REMARK    6  A    between atoms: C_9  and  C_10 
REMARK    7  A    between atoms: C_10  and  C_11 
REMARK    8  A    between atoms: C_13  and  O_14 
ROOT
HETATM    1  C   UNL     1     -42.442  58.318 -56.211  1.00  0.00     0.119 A 
HETATM    2  N   UNL     1     -42.929  57.462 -55.291  1.00  0.00    -0.207 NA
HETATM    3  C   UNL     1     -43.424  56.299 -55.727  1.00  0.00     0.181 A 
HETATM    4  N   UNL     1     -43.484  55.961 -57.011  1.00  0.00    -0.330 N 
HETATM    5  H   UNL     1     -43.945  55.091 -57.239  1.00  0.00     0.168 HD
HETATM    6  C   UNL     1     -42.989  56.761 -57.960  1.00  0.00     0.048 A 
HETATM    7  C   UNL     1     -42.423  57.996 -57.587  1.00  0.00     0.031 A 
HETATM    8  C   UNL     1     -43.029  56.365 -59.305  1.00  0.00     0.030 A 
HETATM    9  C   UNL     1     -42.490  57.187 -60.294  1.00  0.00     0.002 A 
HETATM   10  C   UNL     1     -41.911  58.403 -59.945  1.00  0.00     0.001 A 
HETATM   11  C   UNL     1     -41.875  58.807 -58.608  1.00  0.00     0.017 A 
ENDROOT
BRANCH   3  12
HETATM   12  N   UNL     1     -43.953  55.433 -54.778  1.00  0.00    -0.262 NA
HETATM   13  H   UNL     1     -44.615  56.010 -54.248  1.00  0.00     0.130 HD
BRANCH  12  14
HETATM   14  C   UNL     1     -42.964  54.817 -53.889  1.00  0.00     0.100 C 
BRANCH  14  15
HETATM   15  C   UNL     1     -42.198  53.709 -54.625  1.00  0.00     0.053 C 
BRANCH  15  16
HETATM   16  C   UNL     1     -41.202  53.037 -53.714  1.00  0.00    -0.054 A 
HETATM   17  C   UNL     1     -40.936  53.554 -52.433  1.00  0.00     0.044 A 
HETATM   18  C   UNL     1     -39.978  52.955 -51.611  1.00  0.00     0.068 A 
HETATM   19  C   UNL     1     -39.290  51.831 -52.071  1.00  0.00     0.037 A 
HETATM   20  C   UNL     1     -39.553  51.302 -53.333  1.00  0.00     0.003 A 
HETATM   21  C   UNL     1     -40.505  51.903 -54.153  1.00  0.00     0.007 A 
BRANCH  18  22
HETATM   22  O   UNL     1     -39.617  53.370 -50.361  1.00  0.00    -0.356 OA
HETATM   23  C   UNL     1     -40.594  53.278 -49.334  1.00  0.00     0.210 C 
ENDBRANCH  18  22
ENDBRANCH  15  16
ENDBRANCH  14  15
ENDBRANCH  12  14
ENDBRANCH   3  12
BRANCH   1  24
HETATM   24  N   UNL     1     -41.894  59.535 -55.782  1.00  0.00    -0.277 NA
HETATM   25  H   UNL     1     -42.423  60.321 -56.153  1.00  0.00     0.129 HD
BRANCH  24  26
HETATM   26  C   UNL     1     -41.666  59.682 -54.343  1.00  0.00     0.093 C 
BRANCH  26  27
HETATM   27  C   UNL     1     -42.516  60.827 -53.792  1.00  0.00     0.010 C 
HETATM   28  C   UNL     1     -43.748  60.340 -53.043  1.00  0.00     0.006 C 
ENDBRANCH  26  27
ENDBRANCH  24  26
ENDBRANCH   1  24
TORSDOF 8
ENDMDL
