MODEL 1
REMARK VINA RESULT:      -7.6      0.000      0.000
REMARK  6 active torsions:
REMARK  status: ('A' for Active; 'I' for Inactive)
REMARK    1  A    between atoms: C_2  and  C_3 
REMARK    2  A    between atoms: C_3  and  N_4 
REMARK    3  A    between atoms: C_3  and  C_15 
REMARK       I    between atoms: N_4  and  C_5 
REMARK       I    between atoms: C_5  and  N_6 
REMARK    4  A    between atoms: N_6  and  C_7 
REMARK    5  A    between atoms: C_16  and  O_17 
REMARK    6  A    between atoms: O_17  and  C_18 
ROOT
HETATM    1  N   UNL     1     -41.277  54.671 -52.841  1.00  0.00    -0.334 N 
HETATM    2  C   UNL     1     -41.233  56.041 -52.751  1.00  0.00     0.321 C 
HETATM    3  N   UNL     1     -41.873  56.471 -51.611  1.00  0.00    -0.307 N 
HETATM    4  O   UNL     1     -40.647  56.745 -53.562  1.00  0.00    -0.247 OA
HETATM    5  H   UNL     1     -42.069  54.196 -52.432  1.00  0.00     0.165 HD
HETATM    6  H   UNL     1     -42.024  55.749 -50.924  1.00  0.00     0.170 HD
ENDROOT
BRANCH   1   7
HETATM    7  C   UNL     1     -40.588  53.933 -53.886  1.00  0.00     0.122 C 
BRANCH   7   8
HETATM    8  C   UNL     1     -41.291  53.993 -55.259  1.00  0.00     0.026 C 
HETATM    9  C   UNL     1     -42.809  54.096 -55.225  1.00  0.00     0.007 C 
ENDBRANCH   7   8
BRANCH   7  10
HETATM   10  C   UNL     1     -40.255  52.513 -53.440  1.00  0.00    -0.002 A 
HETATM   11  C   UNL     1     -39.829  52.177 -52.137  1.00  0.00     0.077 A 
HETATM   12  C   UNL     1     -39.524  50.845 -51.825  1.00  0.00     0.037 A 
HETATM   13  C   UNL     1     -39.662  49.841 -52.784  1.00  0.00     0.003 A 
HETATM   14  C   UNL     1     -40.101  50.156 -54.065  1.00  0.00     0.001 A 
HETATM   15  C   UNL     1     -40.395  51.480 -54.389  1.00  0.00     0.012 A 
BRANCH  11  16
HETATM   16  O   UNL     1     -39.696  53.209 -51.238  1.00  0.00    -0.351 OA
BRANCH  16  17
HETATM   17  C   UNL     1     -40.310  53.028 -49.960  1.00  0.00     0.171 C 
HETATM   18  C   UNL     1     -40.023  54.260 -49.122  1.00  0.00     0.034 C 
ENDBRANCH  16  17
ENDBRANCH  11  16
ENDBRANCH   7  10
ENDBRANCH   1   7
BRANCH   3  19
HETATM   19  C   UNL     1     -42.079  57.810 -51.208  1.00  0.00     0.059 A 
HETATM   20  C   UNL     1     -43.321  58.423 -51.452  1.00  0.00    -0.032 A 
HETATM   21  C   UNL     1     -44.470  57.697 -52.094  1.00  0.00     0.050 C 
HETATM   22  C   UNL     1     -43.503  59.757 -51.058  1.00  0.00     0.028 A 
HETATM   23  C   UNL     1     -42.455  60.430 -50.452  1.00  0.00     0.117 A 
HETATM   24  N   UNL     1     -41.253  59.877 -50.212  1.00  0.00    -0.271 NA
HETATM   25  C   UNL     1     -41.093  58.582 -50.591  1.00  0.00     0.146 A 
ENDBRANCH   3  19
TORSDOF 6
ENDMDL
MODEL 2
REMARK VINA RESULT:      -7.3      1.663      3.509
REMARK  6 active torsions:
REMARK  status: ('A' for Active; 'I' for Inactive)
REMARK    1  A    between atoms: C_2  and  C_3 
REMARK    2  A    between atoms: C_3  and  N_4 
REMARK    3  A    between atoms: C_3  and  C_15 
REMARK       I    between atoms: N_4  and  C_5 
REMARK       I    between atoms: C_5  and  N_6 
REMARK    4  A    between atoms: N_6  and  C_7 
REMARK    5  A    between atoms: C_16  and  O_17 
REMARK    6  A    between atoms: O_17  and  C_18 
ROOT
HETATM    1  N   UNL     1     -40.858  55.443 -51.520  1.00  0.00    -0.334 N 
HETATM    2  C   UNL     1     -41.790  56.365 -51.110  1.00  0.00     0.321 C 
HETATM    3  N   UNL     1     -41.612  57.558 -51.773  1.00  0.00    -0.307 N 
HETATM    4  O   UNL     1     -42.676  56.107 -50.308  1.00  0.00    -0.247 OA
HETATM    5  H   UNL     1     -39.957  55.785 -51.824  1.00  0.00     0.165 HD
HETATM    6  H   UNL     1     -41.041  57.490 -52.600  1.00  0.00     0.170 HD
ENDROOT
BRANCH   1   7
HETATM    7  C   UNL     1     -40.872  54.062 -51.068  1.00  0.00     0.122 C 
BRANCH   7   8
HETATM    8  C   UNL     1     -39.936  53.787 -49.872  1.00  0.00     0.026 C 
HETATM    9  C   UNL     1     -40.565  53.918 -48.492  1.00  0.00     0.007 C 
ENDBRANCH   7   8
BRANCH   7  10
HETATM   10  C   UNL     1     -40.669  53.093 -52.229  1.00  0.00    -0.002 A 
HETATM   11  C   UNL     1     -41.390  53.154 -53.440  1.00  0.00     0.077 A 
HETATM   12  C   UNL     1     -41.149  52.204 -54.443  1.00  0.00     0.037 A 
HETATM   13  C   UNL     1     -40.184  51.213 -54.266  1.00  0.00     0.003 A 
HETATM   14  C   UNL     1     -39.452  51.156 -53.086  1.00  0.00     0.001 A 
HETATM   15  C   UNL     1     -39.692  52.088 -52.077  1.00  0.00     0.012 A 
BRANCH  11  16
HETATM   16  O   UNL     1     -42.339  54.141 -53.552  1.00  0.00    -0.351 OA
BRANCH  16  17
HETATM   17  C   UNL     1     -42.510  54.722 -54.848  1.00  0.00     0.171 C 
HETATM   18  C   UNL     1     -41.420  55.758 -55.045  1.00  0.00     0.034 C 
ENDBRANCH  16  17
ENDBRANCH  11  16
ENDBRANCH   7  10
ENDBRANCH   1   7
BRANCH   3  19
HETATM   19  C   UNL     1     -42.342  58.752 -51.578  1.00  0.00     0.059 A 
HETATM   20  C   UNL     1     -41.786  59.785 -50.802  1.00  0.00    -0.032 A 
HETATM   21  C   UNL     1     -40.415  59.692 -50.194  1.00  0.00     0.050 C 
HETATM   22  C   UNL     1     -42.531  60.958 -50.608  1.00  0.00     0.028 A 
HETATM   23  C   UNL     1     -43.790  61.059 -51.176  1.00  0.00     0.117 A 
HETATM   24  N   UNL     1     -44.354  60.088 -51.915  1.00  0.00    -0.271 NA
HETATM   25  C   UNL     1     -43.619  58.962 -52.103  1.00  0.00     0.146 A 
ENDBRANCH   3  19
TORSDOF 6
ENDMDL
MODEL 3
REMARK VINA RESULT:      -6.9      3.682      5.793
REMARK  6 active torsions:
REMARK  status: ('A' for Active; 'I' for Inactive)
REMARK    1  A    between atoms: C_2  and  C_3 
REMARK    2  A    between atoms: C_3  and  N_4 
REMARK    3  A    between atoms: C_3  and  C_15 
REMARK       I    between atoms: N_4  and  C_5 
REMARK       I    between atoms: C_5  and  N_6 
REMARK    4  A    between atoms: N_6  and  C_7 
REMARK    5  A    between atoms: C_16  and  O_17 
REMARK    6  A    between atoms: O_17  and  C_18 
ROOT
HETATM    1  N   UNL     1     -41.434  55.322 -55.618  1.00  0.00    -0.334 N 
HETATM    2  C   UNL     1     -42.536  55.724 -56.333  1.00  0.00     0.321 C 
HETATM    3  N   UNL     1     -42.374  55.438 -57.670  1.00  0.00    -0.307 N 
HETATM    4  O   UNL     1     -43.529  56.211 -55.812  1.00  0.00    -0.247 OA
HETATM    5  H   UNL     1     -40.539  55.328 -56.086  1.00  0.00     0.165 HD
HETATM    6  H   UNL     1     -41.642  54.774 -57.865  1.00  0.00     0.170 HD
ENDROOT
BRANCH   1   7
HETATM    7  C   UNL     1     -41.372  55.400 -54.168  1.00  0.00     0.122 C 
BRANCH   7   8
HETATM    8  C   UNL     1     -40.684  56.677 -53.640  1.00  0.00     0.026 C 
HETATM    9  C   UNL     1     -41.614  57.802 -53.209  1.00  0.00     0.007 C 
ENDBRANCH   7   8
BRANCH   7  10
HETATM   10  C   UNL     1     -40.807  54.117 -53.564  1.00  0.00    -0.002 A 
HETATM   11  C   UNL     1     -40.751  53.859 -52.178  1.00  0.00     0.077 A 
HETATM   12  C   UNL     1     -40.195  52.658 -51.716  1.00  0.00     0.037 A 
HETATM   13  C   UNL     1     -39.717  51.703 -52.614  1.00  0.00     0.003 A 
HETATM   14  C   UNL     1     -39.786  51.938 -53.982  1.00  0.00     0.001 A 
HETATM   15  C   UNL     1     -40.327  53.134 -54.452  1.00  0.00     0.012 A 
BRANCH  11  16
HETATM   16  O   UNL     1     -41.222  54.841 -51.340  1.00  0.00    -0.351 OA
BRANCH  16  17
HETATM   17  C   UNL     1     -41.897  54.406 -50.157  1.00  0.00     0.171 C 
HETATM   18  C   UNL     1     -41.128  54.929 -48.958  1.00  0.00     0.034 C 
ENDBRANCH  16  17
ENDBRANCH  11  16
ENDBRANCH   7  10
ENDBRANCH   1   7
BRANCH   3  19
HETATM   19  C   UNL     1     -43.269  55.751 -58.717  1.00  0.00     0.059 A 
HETATM   20  C   UNL     1     -43.201  57.015 -59.332  1.00  0.00    -0.032 A 
HETATM   21  C   UNL     1     -42.179  58.048 -58.946  1.00  0.00     0.050 C 
HETATM   22  C   UNL     1     -44.106  57.314 -60.361  1.00  0.00     0.028 A 
HETATM   23  C   UNL     1     -45.042  56.363 -60.733  1.00  0.00     0.117 A 
HETATM   24  N   UNL     1     -45.140  55.150 -60.161  1.00  0.00    -0.271 NA
HETATM   25  C   UNL     1     -44.252  54.870 -59.173  1.00  0.00     0.146 A 
ENDBRANCH   3  19
TORSDOF 6
ENDMDL
MODEL 4
REMARK VINA RESULT:      -6.8      3.415      5.790
REMARK  6 active torsions:
REMARK  status: ('A' for Active; 'I' for Inactive)
REMARK    1  A    between atoms: C_2  and  C_3 
REMARK    2  A    between atoms: C_3  and  N_4 
REMARK    3  A    between atoms: C_3  and  C_15 
REMARK       I    between atoms: N_4  and  C_5 
REMARK       I    between atoms: C_5  and  N_6 
REMARK    4  A    between atoms: N_6  and  C_7 
REMARK    5  A    between atoms: C_16  and  O_17 
REMARK    6  A    between atoms: O_17  and  C_18 
ROOT
HETATM    1  N   UNL     1     -42.080  56.484 -53.878  1.00  0.00    -0.334 N 
HETATM    2  C   UNL     1     -42.878  56.504 -54.997  1.00  0.00     0.321 C 
HETATM    3  N   UNL     1     -42.120  56.710 -56.126  1.00  0.00    -0.307 N 
HETATM    4  O   UNL     1     -44.084  56.304 -54.960  1.00  0.00    -0.247 OA
HETATM    5  H   UNL     1     -41.236  57.038 -53.891  1.00  0.00     0.165 HD
HETATM    6  H   UNL     1     -41.133  56.550 -55.997  1.00  0.00     0.170 HD
ENDROOT
BRANCH   1   7
HETATM    7  C   UNL     1     -42.596  56.178 -52.555  1.00  0.00     0.122 C 
BRANCH   7   8
HETATM    8  C   UNL     1     -43.020  57.422 -51.746  1.00  0.00     0.026 C 
HETATM    9  C   UNL     1     -44.500  57.521 -51.406  1.00  0.00     0.007 C 
ENDBRANCH   7   8
BRANCH   7  10
HETATM   10  C   UNL     1     -41.655  55.252 -51.790  1.00  0.00    -0.002 A 
HETATM   11  C   UNL     1     -41.296  53.959 -52.226  1.00  0.00     0.077 A 
HETATM   12  C   UNL     1     -40.440  53.172 -51.444  1.00  0.00     0.037 A 
HETATM   13  C   UNL     1     -39.917  53.664 -50.248  1.00  0.00     0.003 A 
HETATM   14  C   UNL     1     -40.246  54.944 -49.818  1.00  0.00     0.001 A 
HETATM   15  C   UNL     1     -41.106  55.731 -50.583  1.00  0.00     0.012 A 
BRANCH  11  16
HETATM   16  O   UNL     1     -41.854  53.521 -53.404  1.00  0.00    -0.351 OA
BRANCH  16  17
HETATM   17  C   UNL     1     -40.998  52.791 -54.286  1.00  0.00     0.171 C 
HETATM   18  C   UNL     1     -40.167  53.792 -55.068  1.00  0.00     0.034 C 
ENDBRANCH  16  17
ENDBRANCH  11  16
ENDBRANCH   7  10
ENDBRANCH   1   7
BRANCH   3  19
HETATM   19  C   UNL     1     -42.593  56.845 -57.451  1.00  0.00     0.059 A 
HETATM   20  C   UNL     1     -42.582  58.110 -58.066  1.00  0.00    -0.032 A 
HETATM   21  C   UNL     1     -42.046  59.337 -57.382  1.00  0.00     0.050 C 
HETATM   22  C   UNL     1     -43.068  58.227 -59.376  1.00  0.00     0.028 A 
HETATM   23  C   UNL     1     -43.551  57.100 -60.020  1.00  0.00     0.117 A 
HETATM   24  N   UNL     1     -43.584  55.878 -59.459  1.00  0.00    -0.271 NA
HETATM   25  C   UNL     1     -43.102  55.777 -58.193  1.00  0.00     0.146 A 
ENDBRANCH   3  19
TORSDOF 6
ENDMDL
MODEL 5
REMARK VINA RESULT:      -6.7      3.561      6.140
REMARK  6 active torsions:
REMARK  status: ('A' for Active; 'I' for Inactive)
REMARK    1  A    between atoms: C_2  and  C_3 
REMARK    2  A    between atoms: C_3  and  N_4 
REMARK    3  A    between atoms: C_3  and  C_15 
REMARK       I    between atoms: N_4  and  C_5 
REMARK       I    between atoms: C_5  and  N_6 
REMARK    4  A    between atoms: N_6  and  C_7 
REMARK    5  A    between atoms: C_16  and  O_17 
REMARK    6  A    between atoms: O_17  and  C_18 
ROOT
HETATM    1  N   UNL     1     -41.203  55.226 -55.140  1.00  0.00    -0.334 N 
HETATM    2  C   UNL     1     -42.284  55.183 -55.986  1.00  0.00     0.321 C 
HETATM    3  N   UNL     1     -42.106  56.050 -57.040  1.00  0.00    -0.307 N 
HETATM    4  O   UNL     1     -43.230  54.425 -55.824  1.00  0.00    -0.247 OA
HETATM    5  H   UNL     1     -40.693  56.095 -55.069  1.00  0.00     0.165 HD
HETATM    6  H   UNL     1     -41.155  56.356 -57.167  1.00  0.00     0.170 HD
ENDROOT
BRANCH   1   7
HETATM    7  C   UNL     1     -41.068  54.337 -53.998  1.00  0.00     0.122 C 
BRANCH   7   8
HETATM    8  C   UNL     1     -41.289  52.848 -54.336  1.00  0.00     0.026 C 
HETATM    9  C   UNL     1     -40.130  51.915 -54.013  1.00  0.00     0.007 C 
ENDBRANCH   7   8
BRANCH   7  10
HETATM   10  C   UNL     1     -41.904  54.818 -52.815  1.00  0.00    -0.002 A 
HETATM   11  C   UNL     1     -41.821  56.116 -52.269  1.00  0.00     0.077 A 
HETATM   12  C   UNL     1     -42.615  56.460 -51.166  1.00  0.00     0.037 A 
HETATM   13  C   UNL     1     -43.507  55.539 -50.617  1.00  0.00     0.003 A 
HETATM   14  C   UNL     1     -43.613  54.264 -51.160  1.00  0.00     0.001 A 
HETATM   15  C   UNL     1     -42.819  53.907 -52.250  1.00  0.00     0.012 A 
BRANCH  11  16
HETATM   16  O   UNL     1     -40.913  56.977 -52.840  1.00  0.00    -0.351 OA
BRANCH  16  17
HETATM   17  C   UNL     1     -41.123  58.372 -52.612  1.00  0.00     0.171 C 
HETATM   18  C   UNL     1     -41.533  59.006 -53.929  1.00  0.00     0.034 C 
ENDBRANCH  16  17
ENDBRANCH  11  16
ENDBRANCH   7  10
ENDBRANCH   1   7
BRANCH   3  19
HETATM   19  C   UNL     1     -43.024  56.319 -58.080  1.00  0.00     0.059 A 
HETATM   20  C   UNL     1     -44.021  57.294 -57.890  1.00  0.00    -0.032 A 
HETATM   21  C   UNL     1     -44.131  58.102 -56.627  1.00  0.00     0.050 C 
HETATM   22  C   UNL     1     -44.932  57.538 -58.928  1.00  0.00     0.028 A 
HETATM   23  C   UNL     1     -44.830  56.808 -60.101  1.00  0.00     0.117 A 
HETATM   24  N   UNL     1     -43.896  55.864 -60.312  1.00  0.00    -0.271 NA
HETATM   25  C   UNL     1     -43.014  55.644 -59.303  1.00  0.00     0.146 A 
ENDBRANCH   3  19
TORSDOF 6
ENDMDL
MODEL 6
REMARK VINA RESULT:      -6.6      4.589      8.175
REMARK  6 active torsions:
REMARK  status: ('A' for Active; 'I' for Inactive)
REMARK    1  A    between atoms: C_2  and  C_3 
REMARK    2  A    between atoms: C_3  and  N_4 
REMARK    3  A    between atoms: C_3  and  C_15 
REMARK       I    between atoms: N_4  and  C_5 
REMARK       I    between atoms: C_5  and  N_6 
REMARK    4  A    between atoms: N_6  and  C_7 
REMARK    5  A    between atoms: C_16  and  O_17 
REMARK    6  A    between atoms: O_17  and  C_18 
ROOT
HETATM    1  N   UNL     1     -42.157  55.973 -57.192  1.00  0.00    -0.334 N 
HETATM    2  C   UNL     1     -42.240  55.045 -56.182  1.00  0.00     0.321 C 
HETATM    3  N   UNL     1     -41.073  55.018 -55.454  1.00  0.00    -0.307 N 
HETATM    4  O   UNL     1     -43.250  54.394 -55.956  1.00  0.00    -0.247 OA
HETATM    5  H   UNL     1     -41.246  56.158 -57.589  1.00  0.00     0.165 HD
HETATM    6  H   UNL     1     -40.480  55.822 -55.592  1.00  0.00     0.170 HD
ENDROOT
BRANCH   1   7
HETATM    7  C   UNL     1     -43.281  56.293 -58.054  1.00  0.00     0.122 C 
BRANCH   7   8
HETATM    8  C   UNL     1     -43.290  55.514 -59.387  1.00  0.00     0.026 C 
HETATM    9  C   UNL     1     -44.370  54.451 -59.528  1.00  0.00     0.007 C 
ENDBRANCH   7   8
BRANCH   7  10
HETATM   10  C   UNL     1     -43.433  57.801 -58.236  1.00  0.00    -0.002 A 
HETATM   11  C   UNL     1     -44.671  58.477 -58.202  1.00  0.00     0.077 A 
HETATM   12  C   UNL     1     -44.713  59.864 -58.401  1.00  0.00     0.037 A 
HETATM   13  C   UNL     1     -43.539  60.588 -58.607  1.00  0.00     0.003 A 
HETATM   14  C   UNL     1     -42.312  59.937 -58.620  1.00  0.00     0.001 A 
HETATM   15  C   UNL     1     -42.260  58.555 -58.436  1.00  0.00     0.012 A 
BRANCH  11  16
HETATM   16  O   UNL     1     -45.796  57.710 -58.012  1.00  0.00    -0.351 OA
BRANCH  16  17
HETATM   17  C   UNL     1     -46.902  57.970 -58.880  1.00  0.00     0.171 C 
HETATM   18  C   UNL     1     -46.938  56.879 -59.934  1.00  0.00     0.034 C 
ENDBRANCH  16  17
ENDBRANCH  11  16
ENDBRANCH   7  10
ENDBRANCH   1   7
BRANCH   3  19
HETATM   19  C   UNL     1     -40.766  54.158 -54.376  1.00  0.00     0.059 A 
HETATM   20  C   UNL     1     -40.917  54.621 -53.056  1.00  0.00    -0.032 A 
HETATM   21  C   UNL     1     -41.434  55.995 -52.735  1.00  0.00     0.050 C 
HETATM   22  C   UNL     1     -40.594  53.758 -51.998  1.00  0.00     0.028 A 
HETATM   23  C   UNL     1     -40.131  52.484 -52.284  1.00  0.00     0.117 A 
HETATM   24  N   UNL     1     -39.967  52.014 -53.533  1.00  0.00    -0.271 NA
HETATM   25  C   UNL     1     -40.292  52.856 -54.548  1.00  0.00     0.146 A 
ENDBRANCH   3  19
TORSDOF 6
ENDMDL
MODEL 7
REMARK VINA RESULT:      -6.5     15.133     17.237
REMARK  6 active torsions:
REMARK  status: ('A' for Active; 'I' for Inactive)
REMARK    1  A    between atoms: C_2  and  C_3 
REMARK    2  A    between atoms: C_3  and  N_4 
REMARK    3  A    between atoms: C_3  and  C_15 
REMARK       I    between atoms: N_4  and  C_5 
REMARK       I    between atoms: C_5  and  N_6 
REMARK    4  A    between atoms: N_6  and  C_7 
REMARK    5  A    between atoms: C_16  and  O_17 
REMARK    6  A    between atoms: O_17  and  C_18 
ROOT
HETATM    1  N   UNL     1     -33.864  39.601 -55.070  1.00  0.00    -0.334 N 
HETATM    2  C   UNL     1     -34.201  40.150 -56.284  1.00  0.00     0.321 C 
HETATM    3  N   UNL     1     -35.447  39.721 -56.677  1.00  0.00    -0.307 N 
HETATM    4  O   UNL     1     -33.490  40.950 -56.875  1.00  0.00    -0.247 OA
HETATM    5  H   UNL     1     -34.240  38.692 -54.842  1.00  0.00     0.165 HD
HETATM    6  H   UNL     1     -35.999  39.318 -55.936  1.00  0.00     0.170 HD
ENDROOT
BRANCH   1   7
HETATM    7  C   UNL     1     -32.648  39.961 -54.359  1.00  0.00     0.122 C 
BRANCH   7   8
HETATM    8  C   UNL     1     -31.453  39.030 -54.654  1.00  0.00     0.026 C 
HETATM    9  C   UNL     1     -30.614  39.391 -55.872  1.00  0.00     0.007 C 
ENDBRANCH   7   8
BRANCH   7  10
HETATM   10  C   UNL     1     -32.910  40.154 -52.868  1.00  0.00    -0.002 A 
HETATM   11  C   UNL     1     -33.990  40.900 -52.349  1.00  0.00     0.077 A 
HETATM   12  C   UNL     1     -34.137  41.039 -50.962  1.00  0.00     0.037 A 
HETATM   13  C   UNL     1     -33.239  40.427 -50.087  1.00  0.00     0.003 A 
HETATM   14  C   UNL     1     -32.184  39.672 -50.586  1.00  0.00     0.001 A 
HETATM   15  C   UNL     1     -32.022  39.537 -51.965  1.00  0.00     0.012 A 
BRANCH  11  16
HETATM   16  O   UNL     1     -34.833  41.494 -53.258  1.00  0.00    -0.351 OA
BRANCH  16  17
HETATM   17  C   UNL     1     -36.196  41.655 -52.858  1.00  0.00     0.171 C 
HETATM   18  C   UNL     1     -36.974  40.447 -53.345  1.00  0.00     0.034 C 
ENDBRANCH  16  17
ENDBRANCH  11  16
ENDBRANCH   7  10
ENDBRANCH   1   7
BRANCH   3  19
HETATM   19  C   UNL     1     -36.105  40.028 -57.889  1.00  0.00     0.059 A 
HETATM   20  C   UNL     1     -36.936  41.162 -57.959  1.00  0.00    -0.032 A 
HETATM   21  C   UNL     1     -37.127  42.097 -56.798  1.00  0.00     0.050 C 
HETATM   22  C   UNL     1     -37.592  41.444 -59.166  1.00  0.00     0.028 A 
HETATM   23  C   UNL     1     -37.411  40.596 -60.247  1.00  0.00     0.117 A 
HETATM   24  N   UNL     1     -36.631  39.501 -60.211  1.00  0.00    -0.271 NA
HETATM   25  C   UNL     1     -35.995  39.244 -59.039  1.00  0.00     0.146 A 
ENDBRANCH   3  19
TORSDOF 6
ENDMDL
MODEL 8
REMARK VINA RESULT:      -6.4     14.542     16.957
REMARK  6 active torsions:
REMARK  status: ('A' for Active; 'I' for Inactive)
REMARK    1  A    between atoms: C_2  and  C_3 
REMARK    2  A    between atoms: C_3  and  N_4 
REMARK    3  A    between atoms: C_3  and  C_15 
REMARK       I    between atoms: N_4  and  C_5 
REMARK       I    between atoms: C_5  and  N_6 
REMARK    4  A    between atoms: N_6  and  C_7 
REMARK    5  A    between atoms: C_16  and  O_17 
REMARK    6  A    between atoms: O_17  and  C_18 
ROOT
HETATM    1  N   UNL     1     -35.381  40.664 -52.845  1.00  0.00    -0.334 N 
HETATM    2  C   UNL     1     -34.679  40.812 -51.673  1.00  0.00     0.321 C 
HETATM    3  N   UNL     1     -33.963  39.671 -51.392  1.00  0.00    -0.307 N 
HETATM    4  O   UNL     1     -34.671  41.851 -51.027  1.00  0.00    -0.247 OA
HETATM    5  H   UNL     1     -35.688  39.735 -53.097  1.00  0.00     0.165 HD
HETATM    6  H   UNL     1     -33.853  39.048 -52.176  1.00  0.00     0.170 HD
ENDROOT
BRANCH   1   7
HETATM    7  C   UNL     1     -36.141  41.748 -53.444  1.00  0.00     0.122 C 
BRANCH   7   8
HETATM    8  C   UNL     1     -37.590  41.856 -52.925  1.00  0.00     0.026 C 
HETATM    9  C   UNL     1     -38.181  40.585 -52.334  1.00  0.00     0.007 C 
ENDBRANCH   7   8
BRANCH   7  10
HETATM   10  C   UNL     1     -36.045  41.721 -54.967  1.00  0.00    -0.002 A 
HETATM   11  C   UNL     1     -34.847  41.492 -55.676  1.00  0.00     0.077 A 
HETATM   12  C   UNL     1     -34.853  41.508 -57.078  1.00  0.00     0.037 A 
HETATM   13  C   UNL     1     -36.039  41.721 -57.781  1.00  0.00     0.003 A 
HETATM   14  C   UNL     1     -37.229  41.926 -57.094  1.00  0.00     0.001 A 
HETATM   15  C   UNL     1     -37.232  41.925 -55.699  1.00  0.00     0.012 A 
BRANCH  11  16
HETATM   16  O   UNL     1     -33.707  41.303 -54.931  1.00  0.00    -0.351 OA
BRANCH  16  17
HETATM   17  C   UNL     1     -32.727  40.416 -55.474  1.00  0.00     0.171 C 
HETATM   18  C   UNL     1     -33.004  39.024 -54.936  1.00  0.00     0.034 C 
ENDBRANCH  16  17
ENDBRANCH  11  16
ENDBRANCH   7  10
ENDBRANCH   1   7
BRANCH   3  19
HETATM   19  C   UNL     1     -33.169  39.430 -50.248  1.00  0.00     0.059 A 
HETATM   20  C   UNL     1     -33.732  38.772 -49.140  1.00  0.00    -0.032 A 
HETATM   21  C   UNL     1     -35.149  38.271 -49.130  1.00  0.00     0.050 C 
HETATM   22  C   UNL     1     -32.932  38.553 -48.008  1.00  0.00     0.028 A 
HETATM   23  C   UNL     1     -31.621  38.999 -48.012  1.00  0.00     0.117 A 
HETATM   24  N   UNL     1     -31.055  39.638 -49.051  1.00  0.00    -0.271 NA
HETATM   25  C   UNL     1     -31.837  39.835 -50.144  1.00  0.00     0.146 A 
ENDBRANCH   3  19
TORSDOF 6
ENDMDL
MODEL 9
REMARK VINA RESULT:      -6.3      4.317      6.588
REMARK  6 active torsions:
REMARK  status: ('A' for Active; 'I' for Inactive)
REMARK    1  A    between atoms: C_2  and  C_3 
REMARK    2  A    between atoms: C_3  and  N_4 
REMARK    3  A    between atoms: C_3  and  C_15 
REMARK       I    between atoms: N_4  and  C_5 
REMARK       I    between atoms: C_5  and  N_6 
REMARK    4  A    between atoms: N_6  and  C_7 
REMARK    5  A    between atoms: C_16  and  O_17 
REMARK    6  A    between atoms: O_17  and  C_18 
ROOT
HETATM    1  N   UNL     1     -43.357  55.643 -55.553  1.00  0.00    -0.334 N 
HETATM    2  C   UNL     1     -43.186  56.677 -56.441  1.00  0.00     0.321 C 
HETATM    3  N   UNL     1     -44.333  56.878 -57.174  1.00  0.00    -0.307 N 
HETATM    4  O   UNL     1     -42.161  57.342 -56.502  1.00  0.00    -0.247 OA
HETATM    5  H   UNL     1     -43.994  54.902 -55.808  1.00  0.00     0.165 HD
HETATM    6  H   UNL     1     -45.155  56.448 -56.782  1.00  0.00     0.170 HD
ENDROOT
BRANCH   1   7
HETATM    7  C   UNL     1     -42.348  55.278 -54.574  1.00  0.00     0.122 C 
BRANCH   7   8
HETATM    8  C   UNL     1     -41.629  53.948 -54.884  1.00  0.00     0.026 C 
HETATM    9  C   UNL     1     -40.117  54.030 -55.039  1.00  0.00     0.007 C 
ENDBRANCH   7   8
BRANCH   7  10
HETATM   10  C   UNL     1     -42.898  55.349 -53.152  1.00  0.00    -0.002 A 
HETATM   11  C   UNL     1     -43.216  56.555 -52.491  1.00  0.00     0.077 A 
HETATM   12  C   UNL     1     -43.696  56.522 -51.175  1.00  0.00     0.037 A 
HETATM   13  C   UNL     1     -43.887  55.306 -50.518  1.00  0.00     0.003 A 
HETATM   14  C   UNL     1     -43.597  54.111 -51.166  1.00  0.00     0.001 A 
HETATM   15  C   UNL     1     -43.107  54.133 -52.471  1.00  0.00     0.012 A 
BRANCH  11  16
HETATM   16  O   UNL     1     -42.993  57.723 -53.182  1.00  0.00    -0.351 OA
BRANCH  16  17
HETATM   17  C   UNL     1     -43.925  58.784 -52.962  1.00  0.00     0.171 C 
HETATM   18  C   UNL     1     -44.988  58.708 -54.042  1.00  0.00     0.034 C 
ENDBRANCH  16  17
ENDBRANCH  11  16
ENDBRANCH   7  10
ENDBRANCH   1   7
BRANCH   3  19
HETATM   19  C   UNL     1     -44.518  57.813 -58.218  1.00  0.00     0.059 A 
HETATM   20  C   UNL     1     -44.138  57.472 -59.529  1.00  0.00    -0.032 A 
HETATM   21  C   UNL     1     -43.573  56.125 -59.883  1.00  0.00     0.050 C 
HETATM   22  C   UNL     1     -44.317  58.417 -60.550  1.00  0.00     0.028 A 
HETATM   23  C   UNL     1     -44.851  59.656 -60.236  1.00  0.00     0.117 A 
HETATM   24  N   UNL     1     -45.216  60.017 -58.993  1.00  0.00    -0.271 NA
HETATM   25  C   UNL     1     -45.046  59.089 -58.016  1.00  0.00     0.146 A 
ENDBRANCH   3  19
TORSDOF 6
ENDMDL
MODEL 10
REMARK VINA RESULT:      -6.3      4.627      7.722
REMARK  6 active torsions:
REMARK  status: ('A' for Active; 'I' for Inactive)
REMARK    1  A    between atoms: C_2  and  C_3 
REMARK    2  A    between atoms: C_3  and  N_4 
REMARK    3  A    between atoms: C_3  and  C_15 
REMARK       I    between atoms: N_4  and  C_5 
REMARK       I    between atoms: C_5  and  N_6 
REMARK    4  A    between atoms: N_6  and  C_7 
REMARK    5  A    between atoms: C_16  and  O_17 
REMARK    6  A    between atoms: O_17  and  C_18 
ROOT
HETATM    1  N   UNL     1     -42.067  56.364 -57.492  1.00  0.00    -0.334 N 
HETATM    2  C   UNL     1     -42.416  56.073 -56.196  1.00  0.00     0.321 C 
HETATM    3  N   UNL     1     -41.292  55.897 -55.422  1.00  0.00    -0.307 N 
HETATM    4  O   UNL     1     -43.575  56.042 -55.807  1.00  0.00    -0.247 OA
HETATM    5  H   UNL     1     -41.200  55.984 -57.845  1.00  0.00     0.165 HD
HETATM    6  H   UNL     1     -40.445  56.256 -55.834  1.00  0.00     0.170 HD
ENDROOT
BRANCH   1   7
HETATM    7  C   UNL     1     -43.048  56.704 -58.509  1.00  0.00     0.122 C 
BRANCH   7   8
HETATM    8  C   UNL     1     -43.188  55.645 -59.622  1.00  0.00     0.026 C 
HETATM    9  C   UNL     1     -44.417  54.752 -59.539  1.00  0.00     0.007 C 
ENDBRANCH   7   8
BRANCH   7  10
HETATM   10  C   UNL     1     -42.831  58.117 -59.043  1.00  0.00    -0.002 A 
HETATM   11  C   UNL     1     -43.213  59.287 -58.352  1.00  0.00     0.077 A 
HETATM   12  C   UNL     1     -42.991  60.543 -58.933  1.00  0.00     0.037 A 
HETATM   13  C   UNL     1     -42.372  60.650 -60.179  1.00  0.00     0.003 A 
HETATM   14  C   UNL     1     -41.973  59.506 -60.860  1.00  0.00     0.001 A 
HETATM   15  C   UNL     1     -42.199  58.251 -60.295  1.00  0.00     0.012 A 
BRANCH  11  16
HETATM   16  O   UNL     1     -43.832  59.120 -57.136  1.00  0.00    -0.351 OA
BRANCH  16  17
HETATM   17  C   UNL     1     -44.981  59.933 -56.886  1.00  0.00     0.171 C 
HETATM   18  C   UNL     1     -45.192  59.997 -55.384  1.00  0.00     0.034 C 
ENDBRANCH  16  17
ENDBRANCH  11  16
ENDBRANCH   7  10
ENDBRANCH   1   7
BRANCH   3  19
HETATM   19  C   UNL     1     -41.252  55.535 -54.056  1.00  0.00     0.059 A 
HETATM   20  C   UNL     1     -40.792  54.256 -53.692  1.00  0.00    -0.032 A 
HETATM   21  C   UNL     1     -40.298  53.257 -54.700  1.00  0.00     0.050 C 
HETATM   22  C   UNL     1     -40.772  53.909 -52.333  1.00  0.00     0.028 A 
HETATM   23  C   UNL     1     -41.212  54.829 -51.395  1.00  0.00     0.117 A 
HETATM   24  N   UNL     1     -41.665  56.055 -51.710  1.00  0.00    -0.271 NA
HETATM   25  C   UNL     1     -41.670  56.382 -53.028  1.00  0.00     0.146 A 
ENDBRANCH   3  19
TORSDOF 6
ENDMDL
