MODEL 1
REMARK VINA RESULT:      -9.0      0.000      0.000
REMARK  6 active torsions:
REMARK  status: ('A' for Active; 'I' for Inactive)
REMARK    1  A    between atoms: O_2  and  C_3 
REMARK    2  A    between atoms: C_4  and  C_5 
REMARK    3  A    between atoms: N_7  and  C_8 
REMARK    4  A    between atoms: C_15  and  C_16 
REMARK       I    between atoms: C_16  and  N_17 
REMARK    5  A    between atoms: N_17  and  N_18 
REMARK       I    between atoms: N_18  and  C_19 
REMARK    6  A    between atoms: C_19  and  C_20 
ROOT
HETATM    1  C   UNL     1     -41.488  55.403 -53.245  1.00  0.00     0.107 A 
HETATM    2  N   UNL     1     -40.773  54.376 -52.761  1.00  0.00    -0.166 NA
HETATM    3  N   UNL     1     -41.129  53.302 -53.493  1.00  0.00    -0.244 N 
HETATM    4  C   UNL     1     -42.140  53.613 -54.373  1.00  0.00     0.138 A 
HETATM    5  C   UNL     1     -42.400  54.968 -54.254  1.00  0.00     0.082 A 
ENDROOT
BRANCH   5   6
HETATM    6  C   UNL     1     -43.368  55.755 -55.007  1.00  0.00     0.274 C 
HETATM    7  N   UNL     1     -43.138  55.831 -56.368  1.00  0.00    -0.263 N 
HETATM    8  H   UNL     1     -42.409  55.315 -56.852  1.00  0.00     0.190 HD
HETATM    9  O   UNL     1     -44.342  56.307 -54.498  1.00  0.00    -0.266 OA
BRANCH   7  10
HETATM   10  N   UNL     1     -44.086  56.468 -57.179  1.00  0.00    -0.262 N 
HETATM   11  C   UNL     1     -44.077  56.211 -58.534  1.00  0.00     0.286 C 
HETATM   12  O   UNL     1     -43.220  55.489 -59.045  1.00  0.00    -0.264 OA
HETATM   13  H   UNL     1     -44.811  57.003 -56.708  1.00  0.00     0.190 HD
BRANCH  11  14
HETATM   14  C   UNL     1     -45.130  56.838 -59.300  1.00  0.00     0.102 A 
HETATM   15  N   UNL     1     -46.275  56.147 -59.642  1.00  0.00    -0.361 N 
HETATM   16  H   UNL     1     -46.447  55.182 -59.385  1.00  0.00     0.165 HD
HETATM   17  C   UNL     1     -47.116  56.948 -60.364  1.00  0.00     0.088 A 
HETATM   18  C   UNL     1     -46.517  58.178 -60.495  1.00  0.00     0.019 A 
HETATM   19  C   UNL     1     -45.268  58.112 -59.828  1.00  0.00     0.036 A 
ENDBRANCH  11  14
ENDBRANCH   7  10
ENDBRANCH   5   6
BRANCH   1  20
HETATM   20  C   UNL     1     -41.285  56.747 -52.703  1.00  0.00     0.029 A 
HETATM   21  C   UNL     1     -41.709  57.088 -51.408  1.00  0.00     0.080 A 
HETATM   22  C   UNL     1     -41.489  58.374 -50.901  1.00  0.00     0.037 A 
HETATM   23  C   UNL     1     -40.878  59.341 -51.697  1.00  0.00     0.003 A 
HETATM   24  C   UNL     1     -40.477  59.023 -52.992  1.00  0.00     0.001 A 
HETATM   25  C   UNL     1     -40.679  57.734 -53.494  1.00  0.00     0.017 A 
BRANCH  21  26
HETATM   26  O   UNL     1     -42.274  56.147 -50.583  1.00  0.00    -0.355 OA
HETATM   27  C   UNL     1     -41.357  55.791 -49.547  1.00  0.00     0.210 C 
ENDBRANCH  21  26
ENDBRANCH   1  20
BRANCH   3  28
HETATM   28  C   UNL     1     -40.482  52.047 -53.307  1.00  0.00     0.058 A 
HETATM   29  C   UNL     1     -40.385  51.156 -54.389  1.00  0.00     0.031 A 
HETATM   30  C   UNL     1     -39.771  49.913 -54.227  1.00  0.00     0.002 A 
HETATM   31  C   UNL     1     -39.248  49.549 -52.988  1.00  0.00     0.000 A 
HETATM   32  C   UNL     1     -39.338  50.427 -51.910  1.00  0.00     0.002 A 
HETATM   33  C   UNL     1     -39.952  51.673 -52.063  1.00  0.00     0.031 A 
ENDBRANCH   3  28
TORSDOF 6
ENDMDL
MODEL 2
REMARK VINA RESULT:      -8.3      1.959      2.272
REMARK  6 active torsions:
REMARK  status: ('A' for Active; 'I' for Inactive)
REMARK    1  A    between atoms: O_2  and  C_3 
REMARK    2  A    between atoms: C_4  and  C_5 
REMARK    3  A    between atoms: N_7  and  C_8 
REMARK    4  A    between atoms: C_15  and  C_16 
REMARK       I    between atoms: C_16  and  N_17 
REMARK    5  A    between atoms: N_17  and  N_18 
REMARK       I    between atoms: N_18  and  C_19 
REMARK    6  A    between atoms: C_19  and  C_20 
ROOT
HETATM    1  C   UNL     1     -41.620  55.792 -53.562  1.00  0.00     0.107 A 
HETATM    2  N   UNL     1     -41.076  54.760 -52.901  1.00  0.00    -0.166 NA
HETATM    3  N   UNL     1     -41.147  53.707 -53.738  1.00  0.00    -0.244 N 
HETATM    4  C   UNL     1     -41.826  54.032 -54.890  1.00  0.00     0.138 A 
HETATM    5  C   UNL     1     -42.145  55.379 -54.824  1.00  0.00     0.082 A 
ENDROOT
BRANCH   5   6
HETATM    6  C   UNL     1     -42.837  56.176 -55.828  1.00  0.00     0.274 C 
HETATM    7  N   UNL     1     -44.173  56.422 -55.570  1.00  0.00    -0.263 N 
HETATM    8  H   UNL     1     -44.645  56.158 -54.710  1.00  0.00     0.190 HD
HETATM    9  O   UNL     1     -42.294  56.627 -56.834  1.00  0.00    -0.266 OA
BRANCH   7  10
HETATM   10  N   UNL     1     -44.880  57.277 -56.424  1.00  0.00    -0.262 N 
HETATM   11  C   UNL     1     -45.386  58.454 -55.912  1.00  0.00     0.286 C 
HETATM   12  O   UNL     1     -45.281  58.731 -54.717  1.00  0.00    -0.264 OA
HETATM   13  H   UNL     1     -44.887  57.040 -57.412  1.00  0.00     0.190 HD
BRANCH  11  14
HETATM   14  C   UNL     1     -46.034  59.327 -56.864  1.00  0.00     0.102 A 
HETATM   15  N   UNL     1     -47.327  59.093 -57.286  1.00  0.00    -0.361 N 
HETATM   16  H   UNL     1     -47.891  58.313 -56.965  1.00  0.00     0.165 HD
HETATM   17  C   UNL     1     -47.715  60.049 -58.184  1.00  0.00     0.088 A 
HETATM   18  C   UNL     1     -46.666  60.922 -58.349  1.00  0.00     0.019 A 
HETATM   19  C   UNL     1     -45.607  60.470 -57.522  1.00  0.00     0.036 A 
ENDBRANCH  11  14
ENDBRANCH   7  10
ENDBRANCH   5   6
BRANCH   1  20
HETATM   20  C   UNL     1     -41.639  57.119 -52.946  1.00  0.00     0.029 A 
HETATM   21  C   UNL     1     -42.803  57.639 -52.356  1.00  0.00     0.080 A 
HETATM   22  C   UNL     1     -42.795  58.903 -51.756  1.00  0.00     0.037 A 
HETATM   23  C   UNL     1     -41.635  59.675 -51.774  1.00  0.00     0.003 A 
HETATM   24  C   UNL     1     -40.482  59.182 -52.380  1.00  0.00     0.001 A 
HETATM   25  C   UNL     1     -40.482  57.912 -52.964  1.00  0.00     0.017 A 
BRANCH  21  26
HETATM   26  O   UNL     1     -43.949  56.887 -52.282  1.00  0.00    -0.355 OA
HETATM   27  C   UNL     1     -44.185  56.484 -50.932  1.00  0.00     0.210 C 
ENDBRANCH  21  26
ENDBRANCH   1  20
BRANCH   3  28
HETATM   28  C   UNL     1     -40.563  52.455 -53.388  1.00  0.00     0.058 A 
HETATM   29  C   UNL     1     -40.522  51.424 -54.340  1.00  0.00     0.031 A 
HETATM   30  C   UNL     1     -39.971  50.184 -54.015  1.00  0.00     0.002 A 
HETATM   31  C   UNL     1     -39.455  49.962 -52.740  1.00  0.00     0.000 A 
HETATM   32  C   UNL     1     -39.489  50.981 -51.789  1.00  0.00     0.002 A 
HETATM   33  C   UNL     1     -40.041  52.225 -52.106  1.00  0.00     0.031 A 
ENDBRANCH   3  28
TORSDOF 6
ENDMDL
MODEL 3
REMARK VINA RESULT:      -8.2      1.990      2.343
REMARK  6 active torsions:
REMARK  status: ('A' for Active; 'I' for Inactive)
REMARK    1  A    between atoms: O_2  and  C_3 
REMARK    2  A    between atoms: C_4  and  C_5 
REMARK    3  A    between atoms: N_7  and  C_8 
REMARK    4  A    between atoms: C_15  and  C_16 
REMARK       I    between atoms: C_16  and  N_17 
REMARK    5  A    between atoms: N_17  and  N_18 
REMARK       I    between atoms: N_18  and  C_19 
REMARK    6  A    between atoms: C_19  and  C_20 
ROOT
HETATM    1  C   UNL     1     -41.631  55.856 -53.520  1.00  0.00     0.107 A 
HETATM    2  N   UNL     1     -41.135  54.791 -52.872  1.00  0.00    -0.166 NA
HETATM    3  N   UNL     1     -41.146  53.780 -53.763  1.00  0.00    -0.244 N 
HETATM    4  C   UNL     1     -41.739  54.164 -54.944  1.00  0.00     0.138 A 
HETATM    5  C   UNL     1     -42.062  55.507 -54.836  1.00  0.00     0.082 A 
ENDROOT
BRANCH   5   6
HETATM    6  C   UNL     1     -42.680  56.354 -55.848  1.00  0.00     0.274 C 
HETATM    7  N   UNL     1     -41.904  56.601 -56.966  1.00  0.00    -0.263 N 
HETATM    8  H   UNL     1     -41.003  56.166 -57.141  1.00  0.00     0.190 HD
HETATM    9  O   UNL     1     -43.815  56.815 -55.751  1.00  0.00    -0.266 OA
BRANCH   7  10
HETATM   10  N   UNL     1     -42.468  57.307 -58.036  1.00  0.00    -0.262 N 
HETATM   11  C   UNL     1     -42.175  58.648 -58.170  1.00  0.00     0.286 C 
HETATM   12  O   UNL     1     -41.484  59.241 -57.341  1.00  0.00    -0.264 OA
HETATM   13  H   UNL     1     -42.977  56.766 -58.729  1.00  0.00     0.190 HD
BRANCH  11  14
HETATM   14  C   UNL     1     -42.723  59.298 -59.339  1.00  0.00     0.102 A 
HETATM   15  N   UNL     1     -44.061  59.633 -59.411  1.00  0.00    -0.361 N 
HETATM   16  H   UNL     1     -44.727  59.450 -58.669  1.00  0.00     0.165 HD
HETATM   17  C   UNL     1     -44.337  60.231 -60.609  1.00  0.00     0.088 A 
HETATM   18  C   UNL     1     -43.168  60.291 -61.330  1.00  0.00     0.019 A 
HETATM   19  C   UNL     1     -42.152  59.704 -60.535  1.00  0.00     0.036 A 
ENDBRANCH  11  14
ENDBRANCH   7  10
ENDBRANCH   5   6
BRANCH   1  20
HETATM   20  C   UNL     1     -41.694  57.152 -52.844  1.00  0.00     0.029 A 
HETATM   21  C   UNL     1     -42.851  57.571 -52.167  1.00  0.00     0.080 A 
HETATM   22  C   UNL     1     -42.885  58.806 -51.510  1.00  0.00     0.037 A 
HETATM   23  C   UNL     1     -41.777  59.650 -51.556  1.00  0.00     0.003 A 
HETATM   24  C   UNL     1     -40.633  59.258 -52.247  1.00  0.00     0.001 A 
HETATM   25  C   UNL     1     -40.591  58.016 -52.888  1.00  0.00     0.017 A 
BRANCH  21  26
HETATM   26  O   UNL     1     -43.943  56.746 -52.065  1.00  0.00    -0.355 OA
HETATM   27  C   UNL     1     -43.968  56.121 -50.780  1.00  0.00     0.210 C 
ENDBRANCH  21  26
ENDBRANCH   1  20
BRANCH   3  28
HETATM   28  C   UNL     1     -40.589  52.511 -53.433  1.00  0.00     0.058 A 
HETATM   29  C   UNL     1     -40.064  52.305 -52.146  1.00  0.00     0.031 A 
HETATM   30  C   UNL     1     -39.497  51.076 -51.805  1.00  0.00     0.002 A 
HETATM   31  C   UNL     1     -39.450  50.044 -52.740  1.00  0.00     0.000 A 
HETATM   32  C   UNL     1     -39.971  50.239 -54.018  1.00  0.00     0.002 A 
HETATM   33  C   UNL     1     -40.539  51.468 -54.368  1.00  0.00     0.031 A 
ENDBRANCH   3  28
TORSDOF 6
ENDMDL
MODEL 4
REMARK VINA RESULT:      -8.2      1.417      2.068
REMARK  6 active torsions:
REMARK  status: ('A' for Active; 'I' for Inactive)
REMARK    1  A    between atoms: O_2  and  C_3 
REMARK    2  A    between atoms: C_4  and  C_5 
REMARK    3  A    between atoms: N_7  and  C_8 
REMARK    4  A    between atoms: C_15  and  C_16 
REMARK       I    between atoms: C_16  and  N_17 
REMARK    5  A    between atoms: N_17  and  N_18 
REMARK       I    between atoms: N_18  and  C_19 
REMARK    6  A    between atoms: C_19  and  C_20 
ROOT
HETATM    1  C   UNL     1     -41.602  55.691 -52.800  1.00  0.00     0.107 A 
HETATM    2  N   UNL     1     -40.850  54.631 -52.469  1.00  0.00    -0.166 NA
HETATM    3  N   UNL     1     -41.289  53.614 -53.237  1.00  0.00    -0.244 N 
HETATM    4  C   UNL     1     -42.383  53.990 -53.982  1.00  0.00     0.138 A 
HETATM    5  C   UNL     1     -42.617  55.334 -53.738  1.00  0.00     0.082 A 
ENDROOT
BRANCH   5   6
HETATM    6  C   UNL     1     -43.652  56.174 -54.326  1.00  0.00     0.274 C 
HETATM    7  N   UNL     1     -43.575  56.335 -55.697  1.00  0.00    -0.263 N 
HETATM    8  H   UNL     1     -42.913  55.844 -56.292  1.00  0.00     0.190 HD
HETATM    9  O   UNL     1     -44.553  56.701 -53.677  1.00  0.00    -0.266 OA
BRANCH   7  10
HETATM   10  N   UNL     1     -44.597  57.030 -56.354  1.00  0.00    -0.262 N 
HETATM   11  C   UNL     1     -44.322  57.616 -57.572  1.00  0.00     0.286 C 
HETATM   12  O   UNL     1     -43.190  57.591 -58.056  1.00  0.00    -0.264 OA
HETATM   13  H   UNL     1     -45.528  56.971 -55.951  1.00  0.00     0.190 HD
BRANCH  11  14
HETATM   14  C   UNL     1     -45.442  58.248 -58.233  1.00  0.00     0.102 A 
HETATM   15  N   UNL     1     -45.263  59.026 -59.359  1.00  0.00    -0.361 N 
HETATM   16  H   UNL     1     -44.359  59.199 -59.785  1.00  0.00     0.165 HD
HETATM   17  C   UNL     1     -46.463  59.514 -59.796  1.00  0.00     0.088 A 
HETATM   18  C   UNL     1     -47.441  59.049 -58.949  1.00  0.00     0.019 A 
HETATM   19  C   UNL     1     -46.802  58.254 -57.964  1.00  0.00     0.036 A 
ENDBRANCH  11  14
ENDBRANCH   7  10
ENDBRANCH   5   6
BRANCH   1  20
HETATM   20  C   UNL     1     -41.332  56.991 -52.185  1.00  0.00     0.029 A 
HETATM   21  C   UNL     1     -41.133  58.144 -52.962  1.00  0.00     0.080 A 
HETATM   22  C   UNL     1     -40.895  59.382 -52.355  1.00  0.00     0.037 A 
HETATM   23  C   UNL     1     -40.814  59.472 -50.966  1.00  0.00     0.003 A 
HETATM   24  C   UNL     1     -40.981  58.331 -50.185  1.00  0.00     0.001 A 
HETATM   25  C   UNL     1     -41.238  57.097 -50.790  1.00  0.00     0.017 A 
BRANCH  21  26
HETATM   26  O   UNL     1     -41.250  58.098 -54.329  1.00  0.00    -0.355 OA
HETATM   27  C   UNL     1     -41.811  59.319 -54.815  1.00  0.00     0.210 C 
ENDBRANCH  21  26
ENDBRANCH   1  20
BRANCH   3  28
HETATM   28  C   UNL     1     -40.637  52.347 -53.213  1.00  0.00     0.058 A 
HETATM   29  C   UNL     1     -40.604  51.568 -54.381  1.00  0.00     0.031 A 
HETATM   30  C   UNL     1     -39.987  50.317 -54.377  1.00  0.00     0.002 A 
HETATM   31  C   UNL     1     -39.397  49.833 -53.211  1.00  0.00     0.000 A 
HETATM   32  C   UNL     1     -39.423  50.600 -52.048  1.00  0.00     0.002 A 
HETATM   33  C   UNL     1     -40.041  51.854 -52.043  1.00  0.00     0.031 A 
ENDBRANCH   3  28
TORSDOF 6
ENDMDL
MODEL 5
REMARK VINA RESULT:      -8.1      1.592      2.240
REMARK  6 active torsions:
REMARK  status: ('A' for Active; 'I' for Inactive)
REMARK    1  A    between atoms: O_2  and  C_3 
REMARK    2  A    between atoms: C_4  and  C_5 
REMARK    3  A    between atoms: N_7  and  C_8 
REMARK    4  A    between atoms: C_15  and  C_16 
REMARK       I    between atoms: C_16  and  N_17 
REMARK    5  A    between atoms: N_17  and  N_18 
REMARK       I    between atoms: N_18  and  C_19 
REMARK    6  A    between atoms: C_19  and  C_20 
ROOT
HETATM    1  C   UNL     1     -42.493  55.972 -53.434  1.00  0.00     0.107 A 
HETATM    2  N   UNL     1     -42.008  54.884 -52.818  1.00  0.00    -0.166 NA
HETATM    3  N   UNL     1     -41.531  54.088 -53.795  1.00  0.00    -0.244 N 
HETATM    4  C   UNL     1     -41.800  54.613 -55.038  1.00  0.00     0.138 A 
HETATM    5  C   UNL     1     -42.415  55.840 -54.854  1.00  0.00     0.082 A 
ENDROOT
BRANCH   5   6
HETATM    6  C   UNL     1     -42.856  56.775 -55.881  1.00  0.00     0.274 C 
HETATM    7  N   UNL     1     -44.073  56.479 -56.466  1.00  0.00    -0.263 N 
HETATM    8  H   UNL     1     -44.683  55.725 -56.163  1.00  0.00     0.190 HD
HETATM    9  O   UNL     1     -42.221  57.773 -56.212  1.00  0.00    -0.266 OA
BRANCH   7  10
HETATM   10  N   UNL     1     -44.623  57.389 -57.377  1.00  0.00    -0.262 N 
HETATM   11  C   UNL     1     -44.655  57.050 -58.714  1.00  0.00     0.286 C 
HETATM   12  O   UNL     1     -44.159  56.000 -59.122  1.00  0.00    -0.264 OA
HETATM   13  H   UNL     1     -45.078  58.212 -56.991  1.00  0.00     0.190 HD
BRANCH  11  14
HETATM   14  C   UNL     1     -45.308  57.998 -59.588  1.00  0.00     0.102 A 
HETATM   15  N   UNL     1     -46.621  57.829 -59.977  1.00  0.00    -0.361 N 
HETATM   16  H   UNL     1     -47.198  57.049 -59.683  1.00  0.00     0.165 HD
HETATM   17  C   UNL     1     -47.009  58.849 -60.801  1.00  0.00     0.088 A 
HETATM   18  C   UNL     1     -45.939  59.698 -60.952  1.00  0.00     0.019 A 
HETATM   19  C   UNL     1     -44.868  59.166 -60.192  1.00  0.00     0.036 A 
ENDBRANCH  11  14
ENDBRANCH   7  10
ENDBRANCH   5   6
BRANCH   1  20
HETATM   20  C   UNL     1     -43.032  57.076 -52.639  1.00  0.00     0.029 A 
HETATM   21  C   UNL     1     -42.189  58.000 -52.000  1.00  0.00     0.080 A 
HETATM   22  C   UNL     1     -42.723  59.060 -51.260  1.00  0.00     0.037 A 
HETATM   23  C   UNL     1     -44.105  59.184 -51.119  1.00  0.00     0.003 A 
HETATM   24  C   UNL     1     -44.951  58.258 -51.724  1.00  0.00     0.001 A 
HETATM   25  C   UNL     1     -44.419  57.209 -52.480  1.00  0.00     0.017 A 
BRANCH  21  26
HETATM   26  O   UNL     1     -40.826  57.933 -52.156  1.00  0.00    -0.355 OA
HETATM   27  C   UNL     1     -40.399  58.866 -53.149  1.00  0.00     0.210 C 
ENDBRANCH  21  26
ENDBRANCH   1  20
BRANCH   3  28
HETATM   28  C   UNL     1     -40.849  52.878 -53.482  1.00  0.00     0.058 A 
HETATM   29  C   UNL     1     -40.271  52.722 -52.211  1.00  0.00     0.031 A 
HETATM   30  C   UNL     1     -39.582  51.553 -51.888  1.00  0.00     0.002 A 
HETATM   31  C   UNL     1     -39.465  50.529 -52.825  1.00  0.00     0.000 A 
HETATM   32  C   UNL     1     -40.037  50.673 -54.088  1.00  0.00     0.002 A 
HETATM   33  C   UNL     1     -40.728  51.842 -54.421  1.00  0.00     0.031 A 
ENDBRANCH   3  28
TORSDOF 6
ENDMDL
MODEL 6
REMARK VINA RESULT:      -8.1      2.812      3.308
REMARK  6 active torsions:
REMARK  status: ('A' for Active; 'I' for Inactive)
REMARK    1  A    between atoms: O_2  and  C_3 
REMARK    2  A    between atoms: C_4  and  C_5 
REMARK    3  A    between atoms: N_7  and  C_8 
REMARK    4  A    between atoms: C_15  and  C_16 
REMARK       I    between atoms: C_16  and  N_17 
REMARK    5  A    between atoms: N_17  and  N_18 
REMARK       I    between atoms: N_18  and  C_19 
REMARK    6  A    between atoms: C_19  and  C_20 
ROOT
HETATM    1  C   UNL     1     -42.465  56.250 -53.866  1.00  0.00     0.107 A 
HETATM    2  N   UNL     1     -41.998  55.248 -53.106  1.00  0.00    -0.166 NA
HETATM    3  N   UNL     1     -41.474  54.349 -53.963  1.00  0.00    -0.244 N 
HETATM    4  C   UNL     1     -41.694  54.720 -55.269  1.00  0.00     0.138 A 
HETATM    5  C   UNL     1     -42.326  55.952 -55.256  1.00  0.00     0.082 A 
ENDROOT
BRANCH   5   6
HETATM    6  C   UNL     1     -42.731  56.753 -56.404  1.00  0.00     0.274 C 
HETATM    7  N   UNL     1     -41.694  57.303 -57.136  1.00  0.00    -0.263 N 
HETATM    8  H   UNL     1     -40.712  57.108 -56.967  1.00  0.00     0.190 HD
HETATM    9  O   UNL     1     -43.901  56.930 -56.735  1.00  0.00    -0.266 OA
BRANCH   7  10
HETATM   10  N   UNL     1     -41.993  57.987 -58.321  1.00  0.00    -0.262 N 
HETATM   11  C   UNL     1     -41.824  59.356 -58.355  1.00  0.00     0.286 C 
HETATM   12  O   UNL     1     -41.478  59.985 -57.355  1.00  0.00    -0.264 OA
HETATM   13  H   UNL     1     -42.213  57.423 -59.137  1.00  0.00     0.190 HD
BRANCH  11  14
HETATM   14  C   UNL     1     -42.073  59.988 -59.630  1.00  0.00     0.102 A 
HETATM   15  N   UNL     1     -42.522  61.291 -59.708  1.00  0.00    -0.361 N 
HETATM   16  H   UNL     1     -42.701  61.873 -58.898  1.00  0.00     0.165 HD
HETATM   17  C   UNL     1     -42.685  61.662 -61.015  1.00  0.00     0.088 A 
HETATM   18  C   UNL     1     -42.336  60.590 -61.803  1.00  0.00     0.019 A 
HETATM   19  C   UNL     1     -41.952  59.537 -60.936  1.00  0.00     0.036 A 
ENDBRANCH  11  14
ENDBRANCH   7  10
ENDBRANCH   5   6
BRANCH   1  20
HETATM   20  C   UNL     1     -43.045  57.432 -53.231  1.00  0.00     0.029 A 
HETATM   21  C   UNL     1     -42.366  58.662 -53.208  1.00  0.00     0.080 A 
HETATM   22  C   UNL     1     -42.946  59.787 -52.611  1.00  0.00     0.037 A 
HETATM   23  C   UNL     1     -44.193  59.684 -51.997  1.00  0.00     0.003 A 
HETATM   24  C   UNL     1     -44.865  58.464 -51.989  1.00  0.00     0.001 A 
HETATM   25  C   UNL     1     -44.295  57.344 -52.601  1.00  0.00     0.017 A 
BRANCH  21  26
HETATM   26  O   UNL     1     -41.157  58.808 -53.841  1.00  0.00    -0.355 OA
HETATM   27  C   UNL     1     -40.097  58.803 -52.883  1.00  0.00     0.210 C 
ENDBRANCH  21  26
ENDBRANCH   1  20
BRANCH   3  28
HETATM   28  C   UNL     1     -40.796  53.192 -53.481  1.00  0.00     0.058 A 
HETATM   29  C   UNL     1     -40.515  52.140 -54.368  1.00  0.00     0.031 A 
HETATM   30  C   UNL     1     -39.868  50.990 -53.915  1.00  0.00     0.002 A 
HETATM   31  C   UNL     1     -39.494  50.879 -52.578  1.00  0.00     0.000 A 
HETATM   32  C   UNL     1     -39.766  51.920 -51.691  1.00  0.00     0.002 A 
HETATM   33  C   UNL     1     -40.415  53.075 -52.136  1.00  0.00     0.031 A 
ENDBRANCH   3  28
TORSDOF 6
ENDMDL
MODEL 7
REMARK VINA RESULT:      -7.9      2.345      7.918
REMARK  6 active torsions:
REMARK  status: ('A' for Active; 'I' for Inactive)
REMARK    1  A    between atoms: O_2  and  C_3 
REMARK    2  A    between atoms: C_4  and  C_5 
REMARK    3  A    between atoms: N_7  and  C_8 
REMARK    4  A    between atoms: C_15  and  C_16 
REMARK       I    between atoms: C_16  and  N_17 
REMARK    5  A    between atoms: N_17  and  N_18 
REMARK       I    between atoms: N_18  and  C_19 
REMARK    6  A    between atoms: C_19  and  C_20 
ROOT
HETATM    1  C   UNL     1     -42.986  57.490 -55.338  1.00  0.00     0.107 A 
HETATM    2  N   UNL     1     -43.168  58.642 -56.000  1.00  0.00    -0.166 NA
HETATM    3  N   UNL     1     -42.968  58.355 -57.302  1.00  0.00    -0.244 N 
HETATM    4  C   UNL     1     -42.559  57.052 -57.466  1.00  0.00     0.138 A 
HETATM    5  C   UNL     1     -42.565  56.448 -56.219  1.00  0.00     0.082 A 
ENDROOT
BRANCH   5   6
HETATM    6  C   UNL     1     -42.234  55.065 -55.902  1.00  0.00     0.274 C 
HETATM    7  N   UNL     1     -40.910  54.833 -55.576  1.00  0.00    -0.263 N 
HETATM    8  H   UNL     1     -40.214  55.564 -55.467  1.00  0.00     0.190 HD
HETATM    9  O   UNL     1     -43.056  54.151 -55.898  1.00  0.00    -0.266 OA
BRANCH   7  10
HETATM   10  N   UNL     1     -40.535  53.555 -55.144  1.00  0.00    -0.262 N 
HETATM   11  C   UNL     1     -40.384  53.331 -53.792  1.00  0.00     0.286 C 
HETATM   12  O   UNL     1     -40.512  54.241 -52.972  1.00  0.00    -0.264 OA
HETATM   13  H   UNL     1     -40.503  52.821 -55.847  1.00  0.00     0.190 HD
BRANCH  11  14
HETATM   14  C   UNL     1     -40.074  51.972 -53.410  1.00  0.00     0.102 A 
HETATM   15  N   UNL     1     -39.732  51.653 -52.111  1.00  0.00    -0.361 N 
HETATM   16  H   UNL     1     -39.678  52.333 -51.361  1.00  0.00     0.165 HD
HETATM   17  C   UNL     1     -39.483  50.313 -52.000  1.00  0.00     0.088 A 
HETATM   18  C   UNL     1     -39.666  49.746 -53.239  1.00  0.00     0.019 A 
HETATM   19  C   UNL     1     -40.037  50.787 -54.128  1.00  0.00     0.036 A 
ENDBRANCH  11  14
ENDBRANCH   7  10
ENDBRANCH   5   6
BRANCH   1  20
HETATM   20  C   UNL     1     -43.197  57.444 -53.891  1.00  0.00     0.029 A 
HETATM   21  C   UNL     1     -42.118  57.402 -52.992  1.00  0.00     0.080 A 
HETATM   22  C   UNL     1     -42.341  57.377 -51.611  1.00  0.00     0.037 A 
HETATM   23  C   UNL     1     -43.644  57.356 -51.116  1.00  0.00     0.003 A 
HETATM   24  C   UNL     1     -44.722  57.369 -51.997  1.00  0.00     0.001 A 
HETATM   25  C   UNL     1     -44.502  57.413 -53.377  1.00  0.00     0.017 A 
BRANCH  21  26
HETATM   26  O   UNL     1     -40.824  57.467 -53.445  1.00  0.00    -0.355 OA
HETATM   27  C   UNL     1     -40.231  58.709 -53.060  1.00  0.00     0.210 C 
ENDBRANCH  21  26
ENDBRANCH   1  20
BRANCH   3  28
HETATM   28  C   UNL     1     -43.179  59.342 -58.307  1.00  0.00     0.058 A 
HETATM   29  C   UNL     1     -44.484  59.797 -58.560  1.00  0.00     0.031 A 
HETATM   30  C   UNL     1     -44.718  60.750 -59.552  1.00  0.00     0.002 A 
HETATM   31  C   UNL     1     -43.657  61.258 -60.297  1.00  0.00     0.000 A 
HETATM   32  C   UNL     1     -42.358  60.814 -60.052  1.00  0.00     0.002 A 
HETATM   33  C   UNL     1     -42.115  59.858 -59.061  1.00  0.00     0.031 A 
ENDBRANCH   3  28
TORSDOF 6
ENDMDL
MODEL 8
REMARK VINA RESULT:      -7.9      1.553      1.992
REMARK  6 active torsions:
REMARK  status: ('A' for Active; 'I' for Inactive)
REMARK    1  A    between atoms: O_2  and  C_3 
REMARK    2  A    between atoms: C_4  and  C_5 
REMARK    3  A    between atoms: N_7  and  C_8 
REMARK    4  A    between atoms: C_15  and  C_16 
REMARK       I    between atoms: C_16  and  N_17 
REMARK    5  A    between atoms: N_17  and  N_18 
REMARK       I    between atoms: N_18  and  C_19 
REMARK    6  A    between atoms: C_19  and  C_20 
ROOT
HETATM    1  C   UNL     1     -42.491  56.631 -53.414  1.00  0.00     0.107 A 
HETATM    2  N   UNL     1     -41.703  55.734 -52.804  1.00  0.00    -0.166 NA
HETATM    3  N   UNL     1     -41.795  54.605 -53.535  1.00  0.00    -0.244 N 
HETATM    4  C   UNL     1     -42.714  54.744 -54.549  1.00  0.00     0.138 A 
HETATM    5  C   UNL     1     -43.186  56.046 -54.516  1.00  0.00     0.082 A 
ENDROOT
BRANCH   5   6
HETATM    6  C   UNL     1     -44.152  56.662 -55.415  1.00  0.00     0.274 C 
HETATM    7  N   UNL     1     -43.856  56.559 -56.762  1.00  0.00    -0.263 N 
HETATM    8  H   UNL     1     -43.078  56.022 -57.134  1.00  0.00     0.190 HD
HETATM    9  O   UNL     1     -45.177  57.224 -55.035  1.00  0.00    -0.266 OA
BRANCH   7  10
HETATM   10  N   UNL     1     -44.791  57.021 -57.697  1.00  0.00    -0.262 N 
HETATM   11  C   UNL     1     -44.899  56.363 -58.904  1.00  0.00     0.286 C 
HETATM   12  O   UNL     1     -44.154  55.427 -59.194  1.00  0.00    -0.264 OA
HETATM   13  H   UNL     1     -45.426  57.753 -57.391  1.00  0.00     0.190 HD
BRANCH  11  14
HETATM   14  C   UNL     1     -45.937  56.841 -59.789  1.00  0.00     0.102 A 
HETATM   15  N   UNL     1     -46.829  55.971 -60.384  1.00  0.00    -0.361 N 
HETATM   16  H   UNL     1     -46.814  54.967 -60.241  1.00  0.00     0.165 HD
HETATM   17  C   UNL     1     -47.708  56.657 -61.175  1.00  0.00     0.088 A 
HETATM   18  C   UNL     1     -47.392  57.992 -61.096  1.00  0.00     0.019 A 
HETATM   19  C   UNL     1     -46.278  58.111 -60.227  1.00  0.00     0.036 A 
ENDBRANCH  11  14
ENDBRANCH   7  10
ENDBRANCH   5   6
BRANCH   1  20
HETATM   20  C   UNL     1     -42.564  57.999 -52.901  1.00  0.00     0.029 A 
HETATM   21  C   UNL     1     -43.513  58.371 -51.934  1.00  0.00     0.080 A 
HETATM   22  C   UNL     1     -43.555  59.680 -51.441  1.00  0.00     0.037 A 
HETATM   23  C   UNL     1     -42.674  60.640 -51.939  1.00  0.00     0.003 A 
HETATM   24  C   UNL     1     -41.748  60.291 -52.918  1.00  0.00     0.001 A 
HETATM   25  C   UNL     1     -41.692  58.978 -53.398  1.00  0.00     0.017 A 
BRANCH  21  26
HETATM   26  O   UNL     1     -44.364  57.441 -51.391  1.00  0.00    -0.355 OA
HETATM   27  C   UNL     1     -45.503  58.091 -50.822  1.00  0.00     0.210 C 
ENDBRANCH  21  26
ENDBRANCH   1  20
BRANCH   3  28
HETATM   28  C   UNL     1     -40.999  53.466 -53.222  1.00  0.00     0.058 A 
HETATM   29  C   UNL     1     -40.580  53.264 -51.897  1.00  0.00     0.031 A 
HETATM   30  C   UNL     1     -39.785  52.165 -51.568  1.00  0.00     0.002 A 
HETATM   31  C   UNL     1     -39.403  51.260 -52.555  1.00  0.00     0.000 A 
HETATM   32  C   UNL     1     -39.816  51.451 -53.872  1.00  0.00     0.002 A 
HETATM   33  C   UNL     1     -40.611  52.550 -54.210  1.00  0.00     0.031 A 
ENDBRANCH   3  28
TORSDOF 6
ENDMDL
MODEL 9
REMARK VINA RESULT:      -7.9      3.561      5.903
REMARK  6 active torsions:
REMARK  status: ('A' for Active; 'I' for Inactive)
REMARK    1  A    between atoms: O_2  and  C_3 
REMARK    2  A    between atoms: C_4  and  C_5 
REMARK    3  A    between atoms: N_7  and  C_8 
REMARK    4  A    between atoms: C_15  and  C_16 
REMARK       I    between atoms: C_16  and  N_17 
REMARK    5  A    between atoms: N_17  and  N_18 
REMARK       I    between atoms: N_18  and  C_19 
REMARK    6  A    between atoms: C_19  and  C_20 
ROOT
HETATM    1  C   UNL     1     -42.558  55.877 -55.656  1.00  0.00     0.107 A 
HETATM    2  N   UNL     1     -41.646  54.926 -55.406  1.00  0.00    -0.166 NA
HETATM    3  N   UNL     1     -41.748  54.653 -54.090  1.00  0.00    -0.244 N 
HETATM    4  C   UNL     1     -42.647  55.494 -53.477  1.00  0.00     0.138 A 
HETATM    5  C   UNL     1     -43.205  56.301 -54.455  1.00  0.00     0.082 A 
ENDROOT
BRANCH   5   6
HETATM    6  C   UNL     1     -44.228  57.324 -54.283  1.00  0.00     0.274 C 
HETATM    7  N   UNL     1     -43.912  58.331 -53.389  1.00  0.00    -0.263 N 
HETATM    8  H   UNL     1     -43.008  58.428 -52.937  1.00  0.00     0.190 HD
HETATM    9  O   UNL     1     -45.296  57.330 -54.890  1.00  0.00    -0.266 OA
BRANCH   7  10
HETATM   10  N   UNL     1     -44.789  59.414 -53.255  1.00  0.00    -0.262 N 
HETATM   11  C   UNL     1     -45.465  59.575 -52.063  1.00  0.00     0.286 C 
HETATM   12  O   UNL     1     -45.357  58.757 -51.149  1.00  0.00    -0.264 OA
HETATM   13  H   UNL     1     -44.799  60.097 -54.008  1.00  0.00     0.190 HD
BRANCH  11  14
HETATM   14  C   UNL     1     -46.292  60.756 -51.963  1.00  0.00     0.102 A 
HETATM   15  N   UNL     1     -47.196  61.083 -52.953  1.00  0.00    -0.361 N 
HETATM   16  H   UNL     1     -47.336  60.532 -53.792  1.00  0.00     0.165 HD
HETATM   17  C   UNL     1     -47.854  62.239 -52.633  1.00  0.00     0.088 A 
HETATM   18  C   UNL     1     -47.378  62.673 -51.419  1.00  0.00     0.019 A 
HETATM   19  C   UNL     1     -46.395  61.744 -50.995  1.00  0.00     0.036 A 
ENDBRANCH  11  14
ENDBRANCH   7  10
ENDBRANCH   5   6
BRANCH   1  20
HETATM   20  C   UNL     1     -42.752  56.355 -57.024  1.00  0.00     0.029 A 
HETATM   21  C   UNL     1     -42.469  57.683 -57.385  1.00  0.00     0.080 A 
HETATM   22  C   UNL     1     -42.642  58.117 -58.704  1.00  0.00     0.037 A 
HETATM   23  C   UNL     1     -43.137  57.238 -59.667  1.00  0.00     0.003 A 
HETATM   24  C   UNL     1     -43.448  55.927 -59.316  1.00  0.00     0.001 A 
HETATM   25  C   UNL     1     -43.257  55.487 -58.002  1.00  0.00     0.017 A 
BRANCH  21  26
HETATM   26  O   UNL     1     -41.938  58.561 -56.472  1.00  0.00    -0.355 OA
HETATM   27  C   UNL     1     -42.050  59.900 -56.958  1.00  0.00     0.210 C 
ENDBRANCH  21  26
ENDBRANCH   1  20
BRANCH   3  28
HETATM   28  C   UNL     1     -40.982  53.606 -53.501  1.00  0.00     0.058 A 
HETATM   29  C   UNL     1     -40.537  52.544 -54.305  1.00  0.00     0.031 A 
HETATM   30  C   UNL     1     -39.800  51.498 -53.747  1.00  0.00     0.002 A 
HETATM   31  C   UNL     1     -39.499  51.503 -52.387  1.00  0.00     0.000 A 
HETATM   32  C   UNL     1     -39.934  52.555 -51.582  1.00  0.00     0.002 A 
HETATM   33  C   UNL     1     -40.674  53.606 -52.133  1.00  0.00     0.031 A 
ENDBRANCH   3  28
TORSDOF 6
ENDMDL
MODEL 10
REMARK VINA RESULT:      -7.7      3.664      7.820
REMARK  6 active torsions:
REMARK  status: ('A' for Active; 'I' for Inactive)
REMARK    1  A    between atoms: O_2  and  C_3 
REMARK    2  A    between atoms: C_4  and  C_5 
REMARK    3  A    between atoms: N_7  and  C_8 
REMARK    4  A    between atoms: C_15  and  C_16 
REMARK       I    between atoms: C_16  and  N_17 
REMARK    5  A    between atoms: N_17  and  N_18 
REMARK       I    between atoms: N_18  and  C_19 
REMARK    6  A    between atoms: C_19  and  C_20 
ROOT
HETATM    1  C   UNL     1     -42.913  56.346 -54.222  1.00  0.00     0.107 A 
HETATM    2  N   UNL     1     -43.165  55.882 -55.455  1.00  0.00    -0.166 NA
HETATM    3  N   UNL     1     -43.469  56.964 -56.200  1.00  0.00    -0.244 N 
HETATM    4  C   UNL     1     -43.513  58.102 -55.429  1.00  0.00     0.138 A 
HETATM    5  C   UNL     1     -43.150  57.751 -54.139  1.00  0.00     0.082 A 
ENDROOT
BRANCH   5   6
HETATM    6  C   UNL     1     -43.025  58.630 -52.983  1.00  0.00     0.274 C 
HETATM    7  N   UNL     1     -44.206  59.196 -52.541  1.00  0.00    -0.263 N 
HETATM    8  H   UNL     1     -45.123  58.967 -52.914  1.00  0.00     0.190 HD
HETATM    9  O   UNL     1     -41.962  58.856 -52.410  1.00  0.00    -0.266 OA
BRANCH   7  10
HETATM   10  N   UNL     1     -44.191  59.958 -51.366  1.00  0.00    -0.262 N 
HETATM   11  C   UNL     1     -45.323  59.980 -50.577  1.00  0.00     0.286 C 
HETATM   12  O   UNL     1     -46.353  59.399 -50.917  1.00  0.00    -0.264 OA
HETATM   13  H   UNL     1     -43.302  60.368 -51.093  1.00  0.00     0.190 HD
BRANCH  11  14
HETATM   14  C   UNL     1     -45.213  60.720 -49.341  1.00  0.00     0.102 A 
HETATM   15  N   UNL     1     -45.550  60.147 -48.131  1.00  0.00    -0.361 N 
HETATM   16  H   UNL     1     -45.888  59.196 -48.034  1.00  0.00     0.165 HD
HETATM   17  C   UNL     1     -45.365  61.041 -47.113  1.00  0.00     0.088 A 
HETATM   18  C   UNL     1     -44.899  62.213 -47.660  1.00  0.00     0.019 A 
HETATM   19  C   UNL     1     -44.803  62.015 -49.061  1.00  0.00     0.036 A 
ENDBRANCH  11  14
ENDBRANCH   7  10
ENDBRANCH   5   6
BRANCH   1  20
HETATM   20  C   UNL     1     -42.482  55.420 -53.174  1.00  0.00     0.029 A 
HETATM   21  C   UNL     1     -41.211  54.823 -53.199  1.00  0.00     0.080 A 
HETATM   22  C   UNL     1     -40.810  53.955 -52.177  1.00  0.00     0.037 A 
HETATM   23  C   UNL     1     -41.690  53.645 -51.141  1.00  0.00     0.003 A 
HETATM   24  C   UNL     1     -42.963  54.209 -51.120  1.00  0.00     0.001 A 
HETATM   25  C   UNL     1     -43.358  55.091 -52.130  1.00  0.00     0.017 A 
BRANCH  21  26
HETATM   26  O   UNL     1     -40.304  55.141 -54.180  1.00  0.00    -0.355 OA
HETATM   27  C   UNL     1     -40.083  54.012 -55.028  1.00  0.00     0.210 C 
ENDBRANCH  21  26
ENDBRANCH   1  20
BRANCH   3  28
HETATM   28  C   UNL     1     -43.698  56.843 -57.601  1.00  0.00     0.058 A 
HETATM   29  C   UNL     1     -44.375  57.870 -58.278  1.00  0.00     0.031 A 
HETATM   30  C   UNL     1     -44.626  57.767 -59.647  1.00  0.00     0.002 A 
HETATM   31  C   UNL     1     -44.205  56.641 -60.351  1.00  0.00     0.000 A 
HETATM   32  C   UNL     1     -43.530  55.617 -59.688  1.00  0.00     0.002 A 
HETATM   33  C   UNL     1     -43.276  55.713 -58.317  1.00  0.00     0.031 A 
ENDBRANCH   3  28
TORSDOF 6
ENDMDL
