MODEL 1
REMARK VINA RESULT:      -9.1      0.000      0.000
REMARK  7 active torsions:
REMARK  status: ('A' for Active; 'I' for Inactive)
REMARK    1  A    between atoms: C_2  and  C_3 
REMARK    2  A    between atoms: C_6  and  C_7 
REMARK       I    between atoms: C_7  and  N_8 
REMARK    3  A    between atoms: C_14  and  C_15 
REMARK       I    between atoms: C_15  and  N_16 
REMARK    4  A    between atoms: N_16  and  C_17 
REMARK    5  A    between atoms: C_17  and  C_18 
REMARK       I    between atoms: N_25  and  C_26 
REMARK    6  A    between atoms: C_26  and  C_27 
REMARK    7  A    between atoms: C_30  and  O_31 
ROOT
HETATM    1  C   UNL     1     -41.121  57.408 -53.295  1.00  0.00     0.253 C 
HETATM    2  N   UNL     1     -42.073  58.174 -53.988  1.00  0.00    -0.348 N 
HETATM    3  C   UNL     1     -42.960  57.596 -54.996  1.00  0.00     0.131 C 
HETATM    4  C   UNL     1     -44.194  58.433 -55.249  1.00  0.00     0.081 C 
HETATM    5  C   UNL     1     -43.897  59.905 -55.533  1.00  0.00     0.142 C 
HETATM    6  O   UNL     1     -45.189  60.571 -55.352  1.00  0.00    -0.358 OA
HETATM    7  C   UNL     1     -45.298  61.609 -56.332  1.00  0.00     0.206 C 
HETATM    8  C   UNL     1     -44.562  61.067 -57.528  1.00  0.00     0.206 C 
HETATM    9  N   UNL     1     -43.516  60.245 -56.916  1.00  0.00    -0.300 N 
HETATM   10  C   UNL     1     -42.285  59.969 -57.487  1.00  0.00     0.257 C 
HETATM   11  O   UNL     1     -41.434  59.249 -56.979  1.00  0.00    -0.267 OA
HETATM   12  C   UNL     1     -42.985  60.479 -54.440  1.00  0.00     0.081 C 
HETATM   13  C   UNL     1     -41.793  59.606 -54.066  1.00  0.00     0.131 C 
HETATM   14  O   UNL     1     -40.353  57.874 -52.457  1.00  0.00    -0.267 OA
ENDROOT
BRANCH   8  15
HETATM   15  C   UNL     1     -45.551  60.264 -58.407  1.00  0.00     0.243 C 
HETATM   16  N   UNL     1     -45.843  59.009 -57.944  1.00  0.00    -0.354 N 
HETATM   17  H   UNL     1     -45.299  58.645 -57.166  1.00  0.00     0.162 HD
HETATM   18  O   UNL     1     -46.021  60.716 -59.448  1.00  0.00    -0.271 OA
BRANCH  16  19
HETATM   19  C   UNL     1     -46.574  57.999 -58.679  1.00  0.00     0.181 C 
BRANCH  19  20
HETATM   20  C   UNL     1     -45.622  56.908 -59.137  1.00  0.00     0.051 A 
HETATM   21  N   UNL     1     -46.127  55.962 -59.980  1.00  0.00    -0.264 NA
HETATM   22  C   UNL     1     -45.304  54.963 -60.365  1.00  0.00     0.117 A 
HETATM   23  C   UNL     1     -43.985  54.864 -59.963  1.00  0.00     0.019 A 
HETATM   24  C   UNL     1     -43.478  55.847 -59.119  1.00  0.00     0.003 A 
HETATM   25  C   UNL     1     -44.304  56.887 -58.697  1.00  0.00     0.029 A 
ENDBRANCH  19  20
ENDBRANCH  16  19
ENDBRANCH   8  15
BRANCH  10  26
HETATM   26  C   UNL     1     -41.889  60.624 -58.754  1.00  0.00     0.032 A 
HETATM   27  C   UNL     1     -41.079  61.761 -58.669  1.00  0.00     0.020 A 
HETATM   28  C   UNL     1     -40.610  62.371 -59.836  1.00  0.00     0.038 A 
HETATM   29  C   UNL     1     -40.935  61.850 -61.091  1.00  0.00     0.068 A 
HETATM   30  C   UNL     1     -41.734  60.709 -61.172  1.00  0.00     0.038 A 
HETATM   31  C   UNL     1     -42.198  60.089 -60.005  1.00  0.00     0.020 A 
BRANCH  29  32
HETATM   32  O   UNL     1     -40.400  62.531 -62.149  1.00  0.00    -0.356 OA
HETATM   33  C   UNL     1     -39.219  63.283 -61.898  1.00  0.00     0.210 C 
ENDBRANCH  29  32
ENDBRANCH  10  26
BRANCH   1  34
HETATM   34  C   UNL     1     -41.016  55.959 -53.580  1.00  0.00     0.032 A 
HETATM   35  C   UNL     1     -40.327  55.510 -54.711  1.00  0.00     0.017 A 
HETATM   36  C   UNL     1     -40.235  54.142 -54.969  1.00  0.00     0.008 A 
HETATM   37  C   UNL     1     -40.799  53.211 -54.082  1.00  0.00    -0.059 A 
HETATM   38  C   UNL     1     -41.453  53.675 -52.930  1.00  0.00     0.008 A 
HETATM   39  C   UNL     1     -41.559  55.045 -52.676  1.00  0.00     0.017 A 
BRANCH  37  40
HETATM   40  C   UNL     1     -40.692  51.732 -54.360  1.00  0.00     0.034 C 
HETATM   41  C   UNL     1     -39.557  51.076 -53.588  1.00  0.00     0.010 C 
ENDBRANCH  37  40
ENDBRANCH   1  34
TORSDOF 7
ENDMDL
MODEL 2
REMARK VINA RESULT:      -8.3      3.210      8.581
REMARK  7 active torsions:
REMARK  status: ('A' for Active; 'I' for Inactive)
REMARK    1  A    between atoms: C_2  and  C_3 
REMARK    2  A    between atoms: C_6  and  C_7 
REMARK       I    between atoms: C_7  and  N_8 
REMARK    3  A    between atoms: C_14  and  C_15 
REMARK       I    between atoms: C_15  and  N_16 
REMARK    4  A    between atoms: N_16  and  C_17 
REMARK    5  A    between atoms: C_17  and  C_18 
REMARK       I    between atoms: N_25  and  C_26 
REMARK    6  A    between atoms: C_26  and  C_27 
REMARK    7  A    between atoms: C_30  and  O_31 
ROOT
HETATM    1  C   UNL     1     -43.308  59.326 -57.687  1.00  0.00     0.253 C 
HETATM    2  N   UNL     1     -42.779  58.884 -56.463  1.00  0.00    -0.348 N 
HETATM    3  C   UNL     1     -43.239  57.662 -55.806  1.00  0.00     0.131 C 
HETATM    4  C   UNL     1     -42.245  57.116 -54.806  1.00  0.00     0.081 C 
HETATM    5  C   UNL     1     -41.749  58.151 -53.796  1.00  0.00     0.142 C 
HETATM    6  O   UNL     1     -40.553  57.538 -53.215  1.00  0.00    -0.358 OA
HETATM    7  C   UNL     1     -40.509  57.874 -51.823  1.00  0.00     0.206 C 
HETATM    8  C   UNL     1     -41.956  57.931 -51.412  1.00  0.00     0.206 C 
HETATM    9  N   UNL     1     -42.618  58.401 -52.630  1.00  0.00    -0.300 N 
HETATM   10  C   UNL     1     -43.801  59.120 -52.667  1.00  0.00     0.257 C 
HETATM   11  O   UNL     1     -44.362  59.475 -53.697  1.00  0.00    -0.267 OA
HETATM   12  C   UNL     1     -41.253  59.406 -54.527  1.00  0.00     0.081 C 
HETATM   13  C   UNL     1     -42.171  59.919 -55.630  1.00  0.00     0.131 C 
HETATM   14  O   UNL     1     -42.951  60.357 -58.250  1.00  0.00    -0.267 OA
ENDROOT
BRANCH   8  15
HETATM   15  C   UNL     1     -42.409  56.522 -50.960  1.00  0.00     0.243 C 
HETATM   16  N   UNL     1     -41.421  55.575 -50.957  1.00  0.00    -0.354 N 
HETATM   17  H   UNL     1     -40.526  55.813 -51.376  1.00  0.00     0.162 HD
HETATM   18  O   UNL     1     -43.570  56.275 -50.646  1.00  0.00    -0.271 OA
BRANCH  16  19
HETATM   19  C   UNL     1     -41.628  54.155 -50.771  1.00  0.00     0.181 C 
BRANCH  19  20
HETATM   20  C   UNL     1     -41.072  53.394 -51.960  1.00  0.00     0.051 A 
HETATM   21  N   UNL     1     -40.203  52.376 -51.691  1.00  0.00    -0.264 NA
HETATM   22  C   UNL     1     -39.669  51.716 -52.740  1.00  0.00     0.117 A 
HETATM   23  C   UNL     1     -39.969  52.008 -54.059  1.00  0.00     0.019 A 
HETATM   24  C   UNL     1     -40.871  53.035 -54.317  1.00  0.00     0.003 A 
HETATM   25  C   UNL     1     -41.434  53.741 -53.257  1.00  0.00     0.029 A 
ENDBRANCH  19  20
ENDBRANCH  16  19
ENDBRANCH   8  15
BRANCH  10  26
HETATM   26  C   UNL     1     -44.428  59.585 -51.409  1.00  0.00     0.032 A 
HETATM   27  C   UNL     1     -43.936  60.764 -50.838  1.00  0.00     0.020 A 
HETATM   28  C   UNL     1     -44.544  61.291 -49.696  1.00  0.00     0.038 A 
HETATM   29  C   UNL     1     -45.648  60.656 -49.120  1.00  0.00     0.068 A 
HETATM   30  C   UNL     1     -46.142  59.487 -49.699  1.00  0.00     0.038 A 
HETATM   31  C   UNL     1     -45.542  58.961 -50.849  1.00  0.00     0.020 A 
BRANCH  29  32
HETATM   32  O   UNL     1     -46.156  61.283 -48.017  1.00  0.00    -0.356 OA
HETATM   33  C   UNL     1     -45.836  60.718 -46.751  1.00  0.00     0.210 C 
ENDBRANCH  29  32
ENDBRANCH  10  26
BRANCH   1  34
HETATM   34  C   UNL     1     -44.361  58.522 -58.348  1.00  0.00     0.032 A 
HETATM   35  C   UNL     1     -45.707  58.713 -58.020  1.00  0.00     0.017 A 
HETATM   36  C   UNL     1     -46.689  57.949 -58.651  1.00  0.00     0.008 A 
HETATM   37  C   UNL     1     -46.340  57.015 -59.638  1.00  0.00    -0.059 A 
HETATM   38  C   UNL     1     -44.989  56.863 -59.986  1.00  0.00     0.008 A 
HETATM   39  C   UNL     1     -44.001  57.616 -59.348  1.00  0.00     0.017 A 
BRANCH  37  40
HETATM   40  C   UNL     1     -47.406  56.196 -60.323  1.00  0.00     0.034 C 
HETATM   41  C   UNL     1     -47.876  56.826 -61.625  1.00  0.00     0.010 C 
ENDBRANCH  37  40
ENDBRANCH   1  34
TORSDOF 7
ENDMDL
MODEL 3
REMARK VINA RESULT:      -8.0      2.543      8.776
REMARK  7 active torsions:
REMARK  status: ('A' for Active; 'I' for Inactive)
REMARK    1  A    between atoms: C_2  and  C_3 
REMARK    2  A    between atoms: C_6  and  C_7 
REMARK       I    between atoms: C_7  and  N_8 
REMARK    3  A    between atoms: C_14  and  C_15 
REMARK       I    between atoms: C_15  and  N_16 
REMARK    4  A    between atoms: N_16  and  C_17 
REMARK    5  A    between atoms: C_17  and  C_18 
REMARK       I    between atoms: N_25  and  C_26 
REMARK    6  A    between atoms: C_26  and  C_27 
REMARK    7  A    between atoms: C_30  and  O_31 
ROOT
HETATM    1  C   UNL     1     -43.447  61.741 -58.355  1.00  0.00     0.253 C 
HETATM    2  N   UNL     1     -43.674  61.142 -57.106  1.00  0.00    -0.348 N 
HETATM    3  C   UNL     1     -42.672  61.147 -56.040  1.00  0.00     0.131 C 
HETATM    4  C   UNL     1     -43.264  60.908 -54.669  1.00  0.00     0.081 C 
HETATM    5  C   UNL     1     -44.169  59.678 -54.590  1.00  0.00     0.142 C 
HETATM    6  O   UNL     1     -44.916  59.864 -53.345  1.00  0.00    -0.358 OA
HETATM    7  C   UNL     1     -45.082  58.583 -52.727  1.00  0.00     0.206 C 
HETATM    8  C   UNL     1     -43.828  57.833 -53.089  1.00  0.00     0.206 C 
HETATM    9  N   UNL     1     -43.498  58.378 -54.408  1.00  0.00    -0.300 N 
HETATM   10  C   UNL     1     -42.801  57.703 -55.396  1.00  0.00     0.257 C 
HETATM   11  O   UNL     1     -42.500  58.185 -56.481  1.00  0.00    -0.267 OA
HETATM   12  C   UNL     1     -45.220  59.724 -55.708  1.00  0.00     0.081 C 
HETATM   13  C   UNL     1     -44.682  60.084 -57.088  1.00  0.00     0.131 C 
HETATM   14  O   UNL     1     -44.265  61.736 -59.271  1.00  0.00    -0.267 OA
ENDROOT
BRANCH   8  15
HETATM   15  C   UNL     1     -42.749  58.105 -52.015  1.00  0.00     0.243 C 
HETATM   16  N   UNL     1     -42.067  56.996 -51.592  1.00  0.00    -0.354 N 
HETATM   17  H   UNL     1     -42.401  56.084 -51.889  1.00  0.00     0.162 HD
HETATM   18  O   UNL     1     -42.537  59.229 -51.567  1.00  0.00    -0.271 OA
BRANCH  16  19
HETATM   19  C   UNL     1     -41.160  56.956 -50.465  1.00  0.00     0.181 C 
BRANCH  19  20
HETATM   20  C   UNL     1     -40.949  55.518 -50.026  1.00  0.00     0.051 A 
HETATM   21  N   UNL     1     -40.838  55.290 -48.685  1.00  0.00    -0.264 NA
HETATM   22  C   UNL     1     -40.611  54.022 -48.282  1.00  0.00     0.117 A 
HETATM   23  C   UNL     1     -40.504  52.953 -49.153  1.00  0.00     0.019 A 
HETATM   24  C   UNL     1     -40.639  53.196 -50.516  1.00  0.00     0.003 A 
HETATM   25  C   UNL     1     -40.865  54.496 -50.965  1.00  0.00     0.029 A 
ENDBRANCH  19  20
ENDBRANCH  16  19
ENDBRANCH   8  15
BRANCH  10  26
HETATM   26  C   UNL     1     -42.443  56.278 -55.212  1.00  0.00     0.032 A 
HETATM   27  C   UNL     1     -41.127  55.984 -54.841  1.00  0.00     0.020 A 
HETATM   28  C   UNL     1     -40.756  54.663 -54.577  1.00  0.00     0.038 A 
HETATM   29  C   UNL     1     -41.691  53.629 -54.669  1.00  0.00     0.068 A 
HETATM   30  C   UNL     1     -43.006  53.928 -55.028  1.00  0.00     0.038 A 
HETATM   31  C   UNL     1     -43.384  55.251 -55.285  1.00  0.00     0.020 A 
BRANCH  29  32
HETATM   32  O   UNL     1     -41.203  52.388 -54.369  1.00  0.00    -0.356 OA
HETATM   33  C   UNL     1     -39.837  52.311 -53.980  1.00  0.00     0.210 C 
ENDBRANCH  29  32
ENDBRANCH  10  26
BRANCH   1  34
HETATM   34  C   UNL     1     -42.154  62.418 -58.605  1.00  0.00     0.032 A 
HETATM   35  C   UNL     1     -41.166  61.792 -59.371  1.00  0.00     0.017 A 
HETATM   36  C   UNL     1     -39.952  62.440 -59.601  1.00  0.00     0.008 A 
HETATM   37  C   UNL     1     -39.729  63.731 -59.096  1.00  0.00    -0.059 A 
HETATM   38  C   UNL     1     -40.744  64.363 -58.363  1.00  0.00     0.008 A 
HETATM   39  C   UNL     1     -41.956  63.712 -58.121  1.00  0.00     0.017 A 
BRANCH  37  40
HETATM   40  C   UNL     1     -38.417  64.432 -59.351  1.00  0.00     0.034 C 
HETATM   41  C   UNL     1     -38.081  64.515 -60.833  1.00  0.00     0.010 C 
ENDBRANCH  37  40
ENDBRANCH   1  34
TORSDOF 7
ENDMDL
MODEL 4
REMARK VINA RESULT:      -7.6      2.020      3.117
REMARK  7 active torsions:
REMARK  status: ('A' for Active; 'I' for Inactive)
REMARK    1  A    between atoms: C_2  and  C_3 
REMARK    2  A    between atoms: C_6  and  C_7 
REMARK       I    between atoms: C_7  and  N_8 
REMARK    3  A    between atoms: C_14  and  C_15 
REMARK       I    between atoms: C_15  and  N_16 
REMARK    4  A    between atoms: N_16  and  C_17 
REMARK    5  A    between atoms: C_17  and  C_18 
REMARK       I    between atoms: N_25  and  C_26 
REMARK    6  A    between atoms: C_26  and  C_27 
REMARK    7  A    between atoms: C_30  and  O_31 
ROOT
HETATM    1  C   UNL     1     -41.345  57.254 -53.316  1.00  0.00     0.253 C 
HETATM    2  N   UNL     1     -42.312  57.968 -54.043  1.00  0.00    -0.348 N 
HETATM    3  C   UNL     1     -43.117  57.350 -55.094  1.00  0.00     0.131 C 
HETATM    4  C   UNL     1     -44.388  58.113 -55.394  1.00  0.00     0.081 C 
HETATM    5  C   UNL     1     -44.170  59.604 -55.650  1.00  0.00     0.142 C 
HETATM    6  O   UNL     1     -45.506  60.188 -55.521  1.00  0.00    -0.358 OA
HETATM    7  C   UNL     1     -45.637  61.230 -56.495  1.00  0.00     0.206 C 
HETATM    8  C   UNL     1     -44.817  60.747 -57.662  1.00  0.00     0.206 C 
HETATM    9  N   UNL     1     -43.750  59.984 -57.012  1.00  0.00    -0.300 N 
HETATM   10  C   UNL     1     -42.481  59.790 -57.530  1.00  0.00     0.257 C 
HETATM   11  O   UNL     1     -41.610  59.117 -56.992  1.00  0.00    -0.267 OA
HETATM   12  C   UNL     1     -43.343  60.219 -54.513  1.00  0.00     0.081 C 
HETATM   13  C   UNL     1     -42.117  59.416 -54.095  1.00  0.00     0.131 C 
HETATM   14  O   UNL     1     -40.645  57.755 -52.440  1.00  0.00    -0.267 OA
ENDROOT
BRANCH   8  15
HETATM   15  C   UNL     1     -45.715  59.897 -58.592  1.00  0.00     0.243 C 
HETATM   16  N   UNL     1     -46.644  60.608 -59.302  1.00  0.00    -0.354 N 
HETATM   17  H   UNL     1     -46.778  61.589 -59.071  1.00  0.00     0.162 HD
HETATM   18  O   UNL     1     -45.609  58.675 -58.669  1.00  0.00    -0.271 OA
BRANCH  16  19
HETATM   19  C   UNL     1     -47.721  60.031 -60.078  1.00  0.00     0.181 C 
BRANCH  19  20
HETATM   20  C   UNL     1     -49.056  60.394 -59.454  1.00  0.00     0.051 A 
HETATM   21  N   UNL     1     -50.097  60.619 -60.307  1.00  0.00    -0.264 NA
HETATM   22  C   UNL     1     -51.280  60.981 -59.769  1.00  0.00     0.117 A 
HETATM   23  C   UNL     1     -51.490  61.119 -58.409  1.00  0.00     0.019 A 
HETATM   24  C   UNL     1     -50.425  60.868 -57.550  1.00  0.00     0.003 A 
HETATM   25  C   UNL     1     -49.188  60.500 -58.074  1.00  0.00     0.029 A 
ENDBRANCH  19  20
ENDBRANCH  16  19
ENDBRANCH   8  15
BRANCH  10  26
HETATM   26  C   UNL     1     -42.071  60.484 -58.773  1.00  0.00     0.032 A 
HETATM   27  C   UNL     1     -41.348  61.673 -58.641  1.00  0.00     0.020 A 
HETATM   28  C   UNL     1     -40.867  62.326 -59.779  1.00  0.00     0.038 A 
HETATM   29  C   UNL     1     -41.092  61.796 -61.052  1.00  0.00     0.068 A 
HETATM   30  C   UNL     1     -41.805  60.603 -61.179  1.00  0.00     0.038 A 
HETATM   31  C   UNL     1     -42.280  59.941 -60.040  1.00  0.00     0.020 A 
BRANCH  29  32
HETATM   32  O   UNL     1     -40.556  62.523 -62.077  1.00  0.00    -0.356 OA
HETATM   33  C   UNL     1     -39.320  63.180 -61.823  1.00  0.00     0.210 C 
ENDBRANCH  29  32
ENDBRANCH  10  26
BRANCH   1  34
HETATM   34  C   UNL     1     -41.140  55.818 -53.610  1.00  0.00     0.032 A 
HETATM   35  C   UNL     1     -41.811  54.841 -52.867  1.00  0.00     0.017 A 
HETATM   36  C   UNL     1     -41.609  53.491 -53.154  1.00  0.00     0.008 A 
HETATM   37  C   UNL     1     -40.764  53.106 -54.206  1.00  0.00    -0.059 A 
HETATM   38  C   UNL     1     -40.129  54.097 -54.970  1.00  0.00     0.008 A 
HETATM   39  C   UNL     1     -40.318  55.450 -54.677  1.00  0.00     0.017 A 
BRANCH  37  40
HETATM   40  C   UNL     1     -40.553  51.645 -54.518  1.00  0.00     0.034 C 
HETATM   41  C   UNL     1     -39.733  50.935 -53.451  1.00  0.00     0.010 C 
ENDBRANCH  37  40
ENDBRANCH   1  34
TORSDOF 7
ENDMDL
MODEL 5
REMARK VINA RESULT:      -7.6      2.324      8.780
REMARK  7 active torsions:
REMARK  status: ('A' for Active; 'I' for Inactive)
REMARK    1  A    between atoms: C_2  and  C_3 
REMARK    2  A    between atoms: C_6  and  C_7 
REMARK       I    between atoms: C_7  and  N_8 
REMARK    3  A    between atoms: C_14  and  C_15 
REMARK       I    between atoms: C_15  and  N_16 
REMARK    4  A    between atoms: N_16  and  C_17 
REMARK    5  A    between atoms: C_17  and  C_18 
REMARK       I    between atoms: N_25  and  C_26 
REMARK    6  A    between atoms: C_26  and  C_27 
REMARK    7  A    between atoms: C_30  and  O_31 
ROOT
HETATM    1  C   UNL     1     -44.747  59.380 -59.368  1.00  0.00     0.253 C 
HETATM    2  N   UNL     1     -44.654  59.099 -57.995  1.00  0.00    -0.348 N 
HETATM    3  C   UNL     1     -43.542  59.572 -57.172  1.00  0.00     0.131 C 
HETATM    4  C   UNL     1     -43.866  59.596 -55.695  1.00  0.00     0.081 C 
HETATM    5  C   UNL     1     -44.445  58.284 -55.166  1.00  0.00     0.142 C 
HETATM    6  O   UNL     1     -45.034  58.648 -53.876  1.00  0.00    -0.358 OA
HETATM    7  C   UNL     1     -44.815  57.568 -52.962  1.00  0.00     0.206 C 
HETATM    8  C   UNL     1     -43.485  56.997 -53.379  1.00  0.00     0.206 C 
HETATM    9  N   UNL     1     -43.476  57.227 -54.825  1.00  0.00    -0.300 N 
HETATM   10  C   UNL     1     -42.787  56.458 -55.748  1.00  0.00     0.257 C 
HETATM   11  O   UNL     1     -42.759  56.685 -56.952  1.00  0.00    -0.267 OA
HETATM   12  C   UNL     1     -45.624  57.837 -56.042  1.00  0.00     0.081 C 
HETATM   13  C   UNL     1     -45.381  57.915 -57.544  1.00  0.00     0.131 C 
HETATM   14  O   UNL     1     -45.662  58.980 -60.084  1.00  0.00    -0.267 OA
ENDROOT
BRANCH   8  15
HETATM   15  C   UNL     1     -42.358  57.739 -52.622  1.00  0.00     0.243 C 
HETATM   16  N   UNL     1     -42.786  58.734 -51.785  1.00  0.00    -0.354 N 
HETATM   17  H   UNL     1     -43.764  59.008 -51.826  1.00  0.00     0.162 HD
HETATM   18  O   UNL     1     -41.171  57.464 -52.777  1.00  0.00    -0.271 OA
BRANCH  16  19
HETATM   19  C   UNL     1     -41.928  59.696 -51.126  1.00  0.00     0.181 C 
BRANCH  19  20
HETATM   20  C   UNL     1     -42.467  61.098 -51.344  1.00  0.00     0.051 A 
HETATM   21  N   UNL     1     -42.835  61.428 -52.616  1.00  0.00    -0.264 NA
HETATM   22  C   UNL     1     -43.279  62.684 -52.833  1.00  0.00     0.117 A 
HETATM   23  C   UNL     1     -43.392  63.636 -51.836  1.00  0.00     0.019 A 
HETATM   24  C   UNL     1     -43.032  63.280 -50.540  1.00  0.00     0.003 A 
HETATM   25  C   UNL     1     -42.563  61.993 -50.285  1.00  0.00     0.029 A 
ENDBRANCH  19  20
ENDBRANCH  16  19
ENDBRANCH   8  15
BRANCH  10  26
HETATM   26  C   UNL     1     -42.090  55.225 -55.317  1.00  0.00     0.032 A 
HETATM   27  C   UNL     1     -40.695  55.266 -55.235  1.00  0.00     0.020 A 
HETATM   28  C   UNL     1     -39.992  54.156 -54.758  1.00  0.00     0.038 A 
HETATM   29  C   UNL     1     -40.672  53.005 -54.349  1.00  0.00     0.068 A 
HETATM   30  C   UNL     1     -42.065  52.973 -54.422  1.00  0.00     0.038 A 
HETATM   31  C   UNL     1     -42.773  54.085 -54.891  1.00  0.00     0.020 A 
BRANCH  29  32
HETATM   32  O   UNL     1     -39.868  52.000 -53.889  1.00  0.00    -0.356 OA
HETATM   33  C   UNL     1     -40.214  50.674 -54.272  1.00  0.00     0.210 C 
ENDBRANCH  29  32
ENDBRANCH  10  26
BRANCH   1  34
HETATM   34  C   UNL     1     -43.692  60.196 -60.010  1.00  0.00     0.032 A 
HETATM   35  C   UNL     1     -43.655  61.581 -59.817  1.00  0.00     0.017 A 
HETATM   36  C   UNL     1     -42.655  62.339 -60.426  1.00  0.00     0.008 A 
HETATM   37  C   UNL     1     -41.664  61.717 -61.203  1.00  0.00    -0.059 A 
HETATM   38  C   UNL     1     -41.690  60.323 -61.354  1.00  0.00     0.008 A 
HETATM   39  C   UNL     1     -42.697  59.562 -60.757  1.00  0.00     0.017 A 
BRANCH  37  40
HETATM   40  C   UNL     1     -40.580  62.540 -61.855  1.00  0.00     0.034 C 
HETATM   41  C   UNL     1     -39.677  63.222 -60.838  1.00  0.00     0.010 C 
ENDBRANCH  37  40
ENDBRANCH   1  34
TORSDOF 7
ENDMDL
MODEL 6
REMARK VINA RESULT:      -7.4      1.974      2.709
REMARK  7 active torsions:
REMARK  status: ('A' for Active; 'I' for Inactive)
REMARK    1  A    between atoms: C_2  and  C_3 
REMARK    2  A    between atoms: C_6  and  C_7 
REMARK       I    between atoms: C_7  and  N_8 
REMARK    3  A    between atoms: C_14  and  C_15 
REMARK       I    between atoms: C_15  and  N_16 
REMARK    4  A    between atoms: N_16  and  C_17 
REMARK    5  A    between atoms: C_17  and  C_18 
REMARK       I    between atoms: N_25  and  C_26 
REMARK    6  A    between atoms: C_26  and  C_27 
REMARK    7  A    between atoms: C_30  and  O_31 
ROOT
HETATM    1  C   UNL     1     -41.220  57.336 -53.342  1.00  0.00     0.253 C 
HETATM    2  N   UNL     1     -42.193  58.074 -54.035  1.00  0.00    -0.348 N 
HETATM    3  C   UNL     1     -43.073  57.467 -55.033  1.00  0.00     0.131 C 
HETATM    4  C   UNL     1     -44.327  58.274 -55.286  1.00  0.00     0.081 C 
HETATM    5  C   UNL     1     -44.065  59.750 -55.584  1.00  0.00     0.142 C 
HETATM    6  O   UNL     1     -45.370  60.388 -55.402  1.00  0.00    -0.358 OA
HETATM    7  C   UNL     1     -45.509  61.415 -56.390  1.00  0.00     0.206 C 
HETATM    8  C   UNL     1     -44.767  60.879 -57.586  1.00  0.00     0.206 C 
HETATM    9  N   UNL     1     -43.699  60.087 -56.973  1.00  0.00    -0.300 N 
HETATM   10  C   UNL     1     -42.466  59.833 -57.548  1.00  0.00     0.257 C 
HETATM   11  O   UNL     1     -41.595  59.138 -57.039  1.00  0.00    -0.267 OA
HETATM   12  C   UNL     1     -43.160  60.354 -54.502  1.00  0.00     0.081 C 
HETATM   13  C   UNL     1     -41.946  59.511 -54.127  1.00  0.00     0.131 C 
HETATM   14  O   UNL     1     -40.458  57.826 -52.512  1.00  0.00    -0.267 OA
ENDROOT
BRANCH   8  15
HETATM   15  C   UNL     1     -45.742  60.046 -58.452  1.00  0.00     0.243 C 
HETATM   16  N   UNL     1     -46.945  60.649 -58.705  1.00  0.00    -0.354 N 
HETATM   17  H   UNL     1     -47.168  61.505 -58.204  1.00  0.00     0.162 HD
HETATM   18  O   UNL     1     -45.460  58.924 -58.864  1.00  0.00    -0.271 OA
BRANCH  16  19
HETATM   19  C   UNL     1     -48.089  60.004 -59.313  1.00  0.00     0.181 C 
BRANCH  19  20
HETATM   20  C   UNL     1     -48.126  60.319 -60.798  1.00  0.00     0.051 A 
HETATM   21  N   UNL     1     -48.275  61.630 -61.148  1.00  0.00    -0.264 NA
HETATM   22  C   UNL     1     -48.350  61.922 -62.464  1.00  0.00     0.117 A 
HETATM   23  C   UNL     1     -48.268  60.968 -63.462  1.00  0.00     0.019 A 
HETATM   24  C   UNL     1     -48.097  59.638 -63.091  1.00  0.00     0.003 A 
HETATM   25  C   UNL     1     -48.024  59.303 -61.741  1.00  0.00     0.029 A 
ENDBRANCH  19  20
ENDBRANCH  16  19
ENDBRANCH   8  15
BRANCH  10  26
HETATM   26  C   UNL     1     -42.092  60.487 -58.823  1.00  0.00     0.032 A 
HETATM   27  C   UNL     1     -41.372  61.683 -58.750  1.00  0.00     0.020 A 
HETATM   28  C   UNL     1     -40.924  62.299 -59.922  1.00  0.00     0.038 A 
HETATM   29  C   UNL     1     -41.180  61.725 -61.171  1.00  0.00     0.068 A 
HETATM   30  C   UNL     1     -41.890  60.525 -61.238  1.00  0.00     0.038 A 
HETATM   31  C   UNL     1     -42.331  59.900 -60.066  1.00  0.00     0.020 A 
BRANCH  29  32
HETATM   32  O   UNL     1     -40.674  62.420 -62.234  1.00  0.00    -0.356 OA
HETATM   33  C   UNL     1     -41.556  62.658 -63.324  1.00  0.00     0.210 C 
ENDBRANCH  29  32
ENDBRANCH  10  26
BRANCH   1  34
HETATM   34  C   UNL     1     -41.084  55.888 -53.615  1.00  0.00     0.032 A 
HETATM   35  C   UNL     1     -40.340  55.443 -54.713  1.00  0.00     0.017 A 
HETATM   36  C   UNL     1     -40.219  54.075 -54.960  1.00  0.00     0.008 A 
HETATM   37  C   UNL     1     -40.809  53.141 -54.094  1.00  0.00    -0.059 A 
HETATM   38  C   UNL     1     -41.518  53.601 -52.974  1.00  0.00     0.008 A 
HETATM   39  C   UNL     1     -41.653  54.969 -52.730  1.00  0.00     0.017 A 
BRANCH  37  40
HETATM   40  C   UNL     1     -40.671  51.662 -54.360  1.00  0.00     0.034 C 
HETATM   41  C   UNL     1     -39.518  51.038 -53.588  1.00  0.00     0.010 C 
ENDBRANCH  37  40
ENDBRANCH   1  34
TORSDOF 7
ENDMDL
MODEL 7
REMARK VINA RESULT:      -7.2      2.947      7.029
REMARK  7 active torsions:
REMARK  status: ('A' for Active; 'I' for Inactive)
REMARK    1  A    between atoms: C_2  and  C_3 
REMARK    2  A    between atoms: C_6  and  C_7 
REMARK       I    between atoms: C_7  and  N_8 
REMARK    3  A    between atoms: C_14  and  C_15 
REMARK       I    between atoms: C_15  and  N_16 
REMARK    4  A    between atoms: N_16  and  C_17 
REMARK    5  A    between atoms: C_17  and  C_18 
REMARK       I    between atoms: N_25  and  C_26 
REMARK    6  A    between atoms: C_26  and  C_27 
REMARK    7  A    between atoms: C_30  and  O_31 
ROOT
HETATM    1  C   UNL     1     -43.575  58.197 -53.846  1.00  0.00     0.253 C 
HETATM    2  N   UNL     1     -43.245  58.265 -55.209  1.00  0.00    -0.348 N 
HETATM    3  C   UNL     1     -43.398  59.491 -55.993  1.00  0.00     0.131 C 
HETATM    4  C   UNL     1     -42.556  59.501 -57.249  1.00  0.00     0.081 C 
HETATM    5  C   UNL     1     -42.718  58.251 -58.114  1.00  0.00     0.142 C 
HETATM    6  O   UNL     1     -41.567  58.291 -59.017  1.00  0.00    -0.358 OA
HETATM    7  C   UNL     1     -41.988  57.814 -60.301  1.00  0.00     0.206 C 
HETATM    8  C   UNL     1     -43.418  58.270 -60.413  1.00  0.00     0.206 C 
HETATM    9  N   UNL     1     -43.879  58.226 -59.023  1.00  0.00    -0.300 N 
HETATM   10  C   UNL     1     -45.190  58.024 -58.626  1.00  0.00     0.257 C 
HETATM   11  O   UNL     1     -45.566  58.027 -57.460  1.00  0.00    -0.267 OA
HETATM   12  C   UNL     1     -42.525  56.990 -57.260  1.00  0.00     0.081 C 
HETATM   13  C   UNL     1     -43.261  56.992 -55.926  1.00  0.00     0.131 C 
HETATM   14  O   UNL     1     -43.471  57.176 -53.171  1.00  0.00    -0.267 OA
ENDROOT
BRANCH   8  15
HETATM   15  C   UNL     1     -43.448  59.686 -61.035  1.00  0.00     0.243 C 
HETATM   16  N   UNL     1     -42.255  60.113 -61.551  1.00  0.00    -0.354 N 
HETATM   17  H   UNL     1     -41.425  59.556 -61.367  1.00  0.00     0.162 HD
HETATM   18  O   UNL     1     -44.464  60.377 -61.047  1.00  0.00    -0.271 OA
BRANCH  16  19
HETATM   19  C   UNL     1     -41.975  61.460 -62.002  1.00  0.00     0.181 C 
BRANCH  19  20
HETATM   20  C   UNL     1     -40.988  62.123 -61.059  1.00  0.00     0.051 A 
HETATM   21  N   UNL     1     -40.050  62.940 -61.620  1.00  0.00    -0.264 NA
HETATM   22  C   UNL     1     -39.141  63.505 -60.798  1.00  0.00     0.117 A 
HETATM   23  C   UNL     1     -39.125  63.311 -59.429  1.00  0.00     0.019 A 
HETATM   24  C   UNL     1     -40.099  62.491 -58.868  1.00  0.00     0.003 A 
HETATM   25  C   UNL     1     -41.047  61.886 -59.690  1.00  0.00     0.029 A 
ENDBRANCH  19  20
ENDBRANCH  16  19
ENDBRANCH   8  15
BRANCH  10  26
HETATM   26  C   UNL     1     -46.229  57.700 -59.629  1.00  0.00     0.032 A 
HETATM   27  C   UNL     1     -46.999  58.755 -60.128  1.00  0.00     0.020 A 
HETATM   28  C   UNL     1     -47.939  58.517 -61.134  1.00  0.00     0.038 A 
HETATM   29  C   UNL     1     -48.111  57.233 -61.658  1.00  0.00     0.068 A 
HETATM   30  C   UNL     1     -47.334  56.184 -61.165  1.00  0.00     0.038 A 
HETATM   31  C   UNL     1     -46.384  56.420 -60.163  1.00  0.00     0.020 A 
BRANCH  29  32
HETATM   32  O   UNL     1     -49.050  57.140 -62.647  1.00  0.00    -0.356 OA
HETATM   33  C   UNL     1     -49.937  58.242 -62.797  1.00  0.00     0.210 C 
ENDBRANCH  29  32
ENDBRANCH  10  26
BRANCH   1  34
HETATM   34  C   UNL     1     -44.083  59.410 -53.167  1.00  0.00     0.032 A 
HETATM   35  C   UNL     1     -45.457  59.667 -53.114  1.00  0.00     0.017 A 
HETATM   36  C   UNL     1     -45.924  60.813 -52.470  1.00  0.00     0.008 A 
HETATM   37  C   UNL     1     -45.027  61.693 -51.844  1.00  0.00    -0.059 A 
HETATM   38  C   UNL     1     -43.655  61.401 -51.870  1.00  0.00     0.008 A 
HETATM   39  C   UNL     1     -43.182  60.262 -52.525  1.00  0.00     0.017 A 
BRANCH  37  40
HETATM   40  C   UNL     1     -45.536  62.929 -51.143  1.00  0.00     0.034 C 
HETATM   41  C   UNL     1     -46.629  62.615 -50.133  1.00  0.00     0.010 C 
ENDBRANCH  37  40
ENDBRANCH   1  34
TORSDOF 7
ENDMDL
MODEL 8
REMARK VINA RESULT:      -7.2      3.085      8.567
REMARK  7 active torsions:
REMARK  status: ('A' for Active; 'I' for Inactive)
REMARK    1  A    between atoms: C_2  and  C_3 
REMARK    2  A    between atoms: C_6  and  C_7 
REMARK       I    between atoms: C_7  and  N_8 
REMARK    3  A    between atoms: C_14  and  C_15 
REMARK       I    between atoms: C_15  and  N_16 
REMARK    4  A    between atoms: N_16  and  C_17 
REMARK    5  A    between atoms: C_17  and  C_18 
REMARK       I    between atoms: N_25  and  C_26 
REMARK    6  A    between atoms: C_26  and  C_27 
REMARK    7  A    between atoms: C_30  and  O_31 
ROOT
HETATM    1  C   UNL     1     -47.667  61.674 -59.003  1.00  0.00     0.253 C 
HETATM    2  N   UNL     1     -46.614  60.745 -58.997  1.00  0.00    -0.348 N 
HETATM    3  C   UNL     1     -46.816  59.334 -58.670  1.00  0.00     0.131 C 
HETATM    4  C   UNL     1     -45.709  58.442 -59.187  1.00  0.00     0.081 C 
HETATM    5  C   UNL     1     -44.305  58.915 -58.811  1.00  0.00     0.142 C 
HETATM    6  O   UNL     1     -43.424  58.170 -59.712  1.00  0.00    -0.358 OA
HETATM    7  C   UNL     1     -42.236  57.823 -58.992  1.00  0.00     0.206 C 
HETATM    8  C   UNL     1     -42.712  57.604 -57.580  1.00  0.00     0.206 C 
HETATM    9  N   UNL     1     -43.824  58.548 -57.466  1.00  0.00    -0.300 N 
HETATM   10  C   UNL     1     -44.252  59.135 -56.287  1.00  0.00     0.257 C 
HETATM   11  O   UNL     1     -45.209  59.896 -56.201  1.00  0.00    -0.267 OA
HETATM   12  C   UNL     1     -44.127  60.391 -59.192  1.00  0.00     0.081 C 
HETATM   13  C   UNL     1     -45.280  61.306 -58.798  1.00  0.00     0.131 C 
HETATM   14  O   UNL     1     -47.520  62.867 -59.257  1.00  0.00    -0.267 OA
ENDROOT
BRANCH   8  15
HETATM   15  C   UNL     1     -43.131  56.124 -57.413  1.00  0.00     0.243 C 
HETATM   16  N   UNL     1     -43.027  55.638 -56.138  1.00  0.00    -0.354 N 
HETATM   17  H   UNL     1     -42.561  56.211 -55.441  1.00  0.00     0.162 HD
HETATM   18  O   UNL     1     -43.510  55.438 -58.359  1.00  0.00    -0.271 OA
BRANCH  16  19
HETATM   19  C   UNL     1     -43.166  54.246 -55.762  1.00  0.00     0.181 C 
BRANCH  19  20
HETATM   20  C   UNL     1     -42.439  53.993 -54.454  1.00  0.00     0.051 A 
HETATM   21  N   UNL     1     -43.054  54.419 -53.313  1.00  0.00    -0.264 NA
HETATM   22  C   UNL     1     -42.402  54.236 -52.145  1.00  0.00     0.117 A 
HETATM   23  C   UNL     1     -41.162  53.631 -52.050  1.00  0.00     0.019 A 
HETATM   24  C   UNL     1     -40.556  53.184 -53.220  1.00  0.00     0.003 A 
HETATM   25  C   UNL     1     -41.199  53.364 -54.442  1.00  0.00     0.029 A 
ENDBRANCH  19  20
ENDBRANCH  16  19
ENDBRANCH   8  15
BRANCH  10  26
HETATM   26  C   UNL     1     -43.490  58.929 -55.034  1.00  0.00     0.032 A 
HETATM   27  C   UNL     1     -42.317  59.669 -54.861  1.00  0.00     0.020 A 
HETATM   28  C   UNL     1     -41.602  59.572 -53.664  1.00  0.00     0.038 A 
HETATM   29  C   UNL     1     -42.055  58.749 -52.629  1.00  0.00     0.068 A 
HETATM   30  C   UNL     1     -43.233  58.021 -52.802  1.00  0.00     0.038 A 
HETATM   31  C   UNL     1     -43.957  58.122 -53.996  1.00  0.00     0.020 A 
BRANCH  29  32
HETATM   32  O   UNL     1     -41.274  58.758 -51.508  1.00  0.00    -0.356 OA
HETATM   33  C   UNL     1     -41.217  57.553 -50.754  1.00  0.00     0.210 C 
ENDBRANCH  29  32
ENDBRANCH  10  26
BRANCH   1  34
HETATM   34  C   UNL     1     -49.037  61.212 -58.683  1.00  0.00     0.032 A 
HETATM   35  C   UNL     1     -49.424  61.016 -57.354  1.00  0.00     0.017 A 
HETATM   36  C   UNL     1     -50.717  60.582 -57.064  1.00  0.00     0.008 A 
HETATM   37  C   UNL     1     -51.645  60.373 -58.097  1.00  0.00    -0.059 A 
HETATM   38  C   UNL     1     -51.255  60.613 -59.424  1.00  0.00     0.008 A 
HETATM   39  C   UNL     1     -49.957  61.035 -59.718  1.00  0.00     0.017 A 
BRANCH  37  40
HETATM   40  C   UNL     1     -53.046  59.909 -57.781  1.00  0.00     0.034 C 
HETATM   41  C   UNL     1     -53.157  59.304 -56.389  1.00  0.00     0.010 C 
ENDBRANCH  37  40
ENDBRANCH   1  34
TORSDOF 7
ENDMDL
MODEL 9
REMARK VINA RESULT:      -7.2      2.948      9.086
REMARK  7 active torsions:
REMARK  status: ('A' for Active; 'I' for Inactive)
REMARK    1  A    between atoms: C_2  and  C_3 
REMARK    2  A    between atoms: C_6  and  C_7 
REMARK       I    between atoms: C_7  and  N_8 
REMARK    3  A    between atoms: C_14  and  C_15 
REMARK       I    between atoms: C_15  and  N_16 
REMARK    4  A    between atoms: N_16  and  C_17 
REMARK    5  A    between atoms: C_17  and  C_18 
REMARK       I    between atoms: N_25  and  C_26 
REMARK    6  A    between atoms: C_26  and  C_27 
REMARK    7  A    between atoms: C_30  and  O_31 
ROOT
HETATM    1  C   UNL     1     -43.495  61.291 -58.449  1.00  0.00     0.253 C 
HETATM    2  N   UNL     1     -43.765  60.751 -57.182  1.00  0.00    -0.348 N 
HETATM    3  C   UNL     1     -42.874  60.947 -56.039  1.00  0.00     0.131 C 
HETATM    4  C   UNL     1     -43.557  60.726 -54.709  1.00  0.00     0.081 C 
HETATM    5  C   UNL     1     -44.316  59.403 -54.614  1.00  0.00     0.142 C 
HETATM    6  O   UNL     1     -45.191  59.576 -53.453  1.00  0.00    -0.358 OA
HETATM    7  C   UNL     1     -45.264  58.327 -52.756  1.00  0.00     0.206 C 
HETATM    8  C   UNL     1     -43.903  57.714 -52.955  1.00  0.00     0.206 C 
HETATM    9  N   UNL     1     -43.518  58.209 -54.278  1.00  0.00    -0.300 N 
HETATM   10  C   UNL     1     -42.659  57.562 -55.151  1.00  0.00     0.257 C 
HETATM   11  O   UNL     1     -42.318  58.007 -56.240  1.00  0.00    -0.267 OA
HETATM   12  C   UNL     1     -45.258  59.247 -55.816  1.00  0.00     0.081 C 
HETATM   13  C   UNL     1     -44.641  59.581 -57.169  1.00  0.00     0.131 C 
HETATM   14  O   UNL     1     -44.220  61.126 -59.428  1.00  0.00    -0.267 OA
ENDROOT
BRANCH   8  15
HETATM   15  C   UNL     1     -42.967  58.185 -51.817  1.00  0.00     0.243 C 
HETATM   16  N   UNL     1     -43.262  59.420 -51.305  1.00  0.00    -0.354 N 
HETATM   17  H   UNL     1     -43.955  59.987 -51.785  1.00  0.00     0.162 HD
HETATM   18  O   UNL     1     -42.023  57.507 -51.420  1.00  0.00    -0.271 OA
BRANCH  16  19
HETATM   19  C   UNL     1     -42.427  60.161 -50.383  1.00  0.00     0.181 C 
BRANCH  19  20
HETATM   20  C   UNL     1     -43.150  61.416 -49.931  1.00  0.00     0.051 A 
HETATM   21  N   UNL     1     -42.678  62.606 -50.405  1.00  0.00    -0.264 NA
HETATM   22  C   UNL     1     -43.286  63.734 -49.981  1.00  0.00     0.117 A 
HETATM   23  C   UNL     1     -44.361  63.741 -49.111  1.00  0.00     0.019 A 
HETATM   24  C   UNL     1     -44.844  62.520 -48.651  1.00  0.00     0.003 A 
HETATM   25  C   UNL     1     -44.234  61.337 -49.064  1.00  0.00     0.029 A 
ENDBRANCH  19  20
ENDBRANCH  16  19
ENDBRANCH   8  15
BRANCH  10  26
HETATM   26  C   UNL     1     -42.156  56.207 -54.831  1.00  0.00     0.032 A 
HETATM   27  C   UNL     1     -42.984  55.121 -55.135  1.00  0.00     0.020 A 
HETATM   28  C   UNL     1     -42.526  53.817 -54.928  1.00  0.00     0.038 A 
HETATM   29  C   UNL     1     -41.241  53.585 -54.430  1.00  0.00     0.068 A 
HETATM   30  C   UNL     1     -40.414  54.670 -54.139  1.00  0.00     0.038 A 
HETATM   31  C   UNL     1     -40.865  55.978 -54.353  1.00  0.00     0.020 A 
BRANCH  29  32
HETATM   32  O   UNL     1     -40.913  52.265 -54.290  1.00  0.00    -0.356 OA
HETATM   33  C   UNL     1     -39.904  51.951 -53.338  1.00  0.00     0.210 C 
ENDBRANCH  29  32
ENDBRANCH  10  26
BRANCH   1  34
HETATM   34  C   UNL     1     -42.273  62.104 -58.640  1.00  0.00     0.032 A 
HETATM   35  C   UNL     1     -41.042  61.483 -58.878  1.00  0.00     0.017 A 
HETATM   36  C   UNL     1     -39.897  62.260 -59.057  1.00  0.00     0.008 A 
HETATM   37  C   UNL     1     -39.977  63.661 -59.034  1.00  0.00    -0.059 A 
HETATM   38  C   UNL     1     -41.225  64.271 -58.835  1.00  0.00     0.008 A 
HETATM   39  C   UNL     1     -42.372  63.497 -58.642  1.00  0.00     0.017 A 
BRANCH  37  40
HETATM   40  C   UNL     1     -38.738  64.498 -59.235  1.00  0.00     0.034 C 
HETATM   41  C   UNL     1     -38.258  64.490 -60.679  1.00  0.00     0.010 C 
ENDBRANCH  37  40
ENDBRANCH   1  34
TORSDOF 7
ENDMDL
MODEL 10
REMARK VINA RESULT:      -7.0      4.501      8.997
REMARK  7 active torsions:
REMARK  status: ('A' for Active; 'I' for Inactive)
REMARK    1  A    between atoms: C_2  and  C_3 
REMARK    2  A    between atoms: C_6  and  C_7 
REMARK       I    between atoms: C_7  and  N_8 
REMARK    3  A    between atoms: C_14  and  C_15 
REMARK       I    between atoms: C_15  and  N_16 
REMARK    4  A    between atoms: N_16  and  C_17 
REMARK    5  A    between atoms: C_17  and  C_18 
REMARK       I    between atoms: N_25  and  C_26 
REMARK    6  A    between atoms: C_26  and  C_27 
REMARK    7  A    between atoms: C_30  and  O_31 
ROOT
HETATM    1  C   UNL     1     -49.293  63.536 -51.914  1.00  0.00     0.253 C 
HETATM    2  N   UNL     1     -48.015  63.356 -52.467  1.00  0.00    -0.348 N 
HETATM    3  C   UNL     1     -47.811  62.840 -53.820  1.00  0.00     0.131 C 
HETATM    4  C   UNL     1     -46.451  63.180 -54.386  1.00  0.00     0.081 C 
HETATM    5  C   UNL     1     -45.287  62.821 -53.462  1.00  0.00     0.142 C 
HETATM    6  O   UNL     1     -44.155  63.572 -54.007  1.00  0.00    -0.358 OA
HETATM    7  C   UNL     1     -42.979  62.764 -53.880  1.00  0.00     0.206 C 
HETATM    8  C   UNL     1     -43.479  61.355 -54.058  1.00  0.00     0.206 C 
HETATM    9  N   UNL     1     -44.829  61.420 -53.494  1.00  0.00    -0.300 N 
HETATM   10  C   UNL     1     -45.506  60.354 -52.925  1.00  0.00     0.257 C 
HETATM   11  O   UNL     1     -46.650  60.415 -52.491  1.00  0.00    -0.267 OA
HETATM   12  C   UNL     1     -45.528  63.402 -52.062  1.00  0.00     0.081 C 
HETATM   13  C   UNL     1     -46.929  63.188 -51.503  1.00  0.00     0.131 C 
HETATM   14  O   UNL     1     -49.489  63.951 -50.775  1.00  0.00    -0.267 OA
ENDROOT
BRANCH   8  15
HETATM   15  C   UNL     1     -43.449  60.996 -55.563  1.00  0.00     0.243 C 
HETATM   16  N   UNL     1     -42.377  60.240 -55.952  1.00  0.00    -0.354 N 
HETATM   17  H   UNL     1     -41.623  60.096 -55.285  1.00  0.00     0.162 HD
HETATM   18  O   UNL     1     -44.315  61.376 -56.347  1.00  0.00    -0.271 OA
BRANCH  16  19
HETATM   19  C   UNL     1     -42.018  59.945 -57.323  1.00  0.00     0.181 C 
BRANCH  19  20
HETATM   20  C   UNL     1     -42.399  58.515 -57.658  1.00  0.00     0.051 A 
HETATM   21  N   UNL     1     -42.675  58.239 -58.965  1.00  0.00    -0.264 NA
HETATM   22  C   UNL     1     -43.054  56.980 -59.272  1.00  0.00     0.117 A 
HETATM   23  C   UNL     1     -43.159  55.965 -58.338  1.00  0.00     0.019 A 
HETATM   24  C   UNL     1     -42.855  56.256 -57.012  1.00  0.00     0.003 A 
HETATM   25  C   UNL     1     -42.469  57.548 -56.661  1.00  0.00     0.029 A 
ENDBRANCH  19  20
ENDBRANCH  16  19
ENDBRANCH   8  15
BRANCH  10  26
HETATM   26  C   UNL     1     -44.821  59.056 -52.732  1.00  0.00     0.032 A 
HETATM   27  C   UNL     1     -44.310  58.777 -51.460  1.00  0.00     0.020 A 
HETATM   28  C   UNL     1     -43.725  57.535 -51.201  1.00  0.00     0.038 A 
HETATM   29  C   UNL     1     -43.655  56.560 -52.200  1.00  0.00     0.068 A 
HETATM   30  C   UNL     1     -44.176  56.838 -53.464  1.00  0.00     0.038 A 
HETATM   31  C   UNL     1     -44.770  58.078 -53.725  1.00  0.00     0.020 A 
BRANCH  29  32
HETATM   32  O   UNL     1     -43.074  55.385 -51.811  1.00  0.00    -0.356 OA
HETATM   33  C   UNL     1     -42.903  54.390 -52.813  1.00  0.00     0.210 C 
ENDBRANCH  29  32
ENDBRANCH  10  26
BRANCH   1  34
HETATM   34  C   UNL     1     -50.483  63.207 -52.730  1.00  0.00     0.032 A 
HETATM   35  C   UNL     1     -51.161  64.212 -53.428  1.00  0.00     0.017 A 
HETATM   36  C   UNL     1     -52.281  63.889 -54.194  1.00  0.00     0.008 A 
HETATM   37  C   UNL     1     -52.713  62.558 -54.298  1.00  0.00    -0.059 A 
HETATM   38  C   UNL     1     -51.999  61.554 -53.626  1.00  0.00     0.008 A 
HETATM   39  C   UNL     1     -50.885  61.875 -52.847  1.00  0.00     0.017 A 
BRANCH  37  40
HETATM   40  C   UNL     1     -53.921  62.211 -55.133  1.00  0.00     0.034 C 
HETATM   41  C   UNL     1     -53.622  61.142 -56.173  1.00  0.00     0.010 C 
ENDBRANCH  37  40
ENDBRANCH   1  34
TORSDOF 7
ENDMDL
