MODEL 1
REMARK VINA RESULT:      -9.2      0.000      0.000
REMARK  6 active torsions:
REMARK  status: ('A' for Active; 'I' for Inactive)
REMARK    1  A    between atoms: C_8  and  C_9 
REMARK    2  A    between atoms: N_10  and  N_11 
REMARK    3  A    between atoms: C_22  and  C_23 
REMARK       I    between atoms: C_23  and  N_24 
REMARK    4  A    between atoms: N_24  and  C_25 
REMARK    5  A    between atoms: C_25  and  C_26 
REMARK    6  A    between atoms: C_34  and  N_35 
ROOT
HETATM    1  N   UNL     1     -44.500  58.534 -54.646  1.00  0.00    -0.197 N 
HETATM    2  C   UNL     1     -43.765  59.263 -55.562  1.00  0.00     0.183 A 
HETATM    3  C   UNL     1     -42.944  58.370 -56.241  1.00  0.00     0.125 A 
HETATM    4  N   UNL     1     -42.070  58.805 -57.185  1.00  0.00    -0.242 NA
HETATM    5  C   UNL     1     -42.081  60.129 -57.400  1.00  0.00     0.086 A 
HETATM    6  C   UNL     1     -42.936  61.017 -56.694  1.00  0.00     0.088 A 
HETATM    7  N   UNL     1     -43.799  60.603 -55.754  1.00  0.00    -0.225 NA
HETATM    8  C   UNL     1     -41.217  60.646 -58.357  1.00  0.00     0.034 A 
HETATM    9  C   UNL     1     -41.172  62.013 -58.640  1.00  0.00     0.002 A 
HETATM   10  C   UNL     1     -42.008  62.880 -57.952  1.00  0.00     0.002 A 
HETATM   11  C   UNL     1     -42.879  62.374 -56.986  1.00  0.00     0.034 A 
HETATM   12  C   UNL     1     -43.227  57.056 -55.779  1.00  0.00     0.110 A 
HETATM   13  C   UNL     1     -44.244  57.180 -54.840  1.00  0.00     0.143 A 
ENDROOT
BRANCH   1  14
HETATM   14  N   UNL     1     -45.405  58.998 -53.740  1.00  0.00    -0.176 NA
HETATM   15  C   UNL     1     -44.956  59.491 -52.623  1.00  0.00     0.153 C 
BRANCH  15  16
HETATM   16  C   UNL     1     -43.630  59.421 -52.021  1.00  0.00     0.011 A 
HETATM   17  C   UNL     1     -43.052  58.244 -51.424  1.00  0.00     0.004 A 
HETATM   18  C   UNL     1     -43.507  56.924 -51.212  1.00  0.00     0.014 A 
HETATM   19  C   UNL     1     -41.761  58.567 -51.004  1.00  0.00     0.043 A 
HETATM   20  C   UNL     1     -42.661  55.988 -50.604  1.00  0.00     0.001 A 
HETATM   21  C   UNL     1     -41.381  56.347 -50.195  1.00  0.00     0.002 A 
HETATM   22  C   UNL     1     -40.907  57.648 -50.382  1.00  0.00     0.030 A 
HETATM   23  N   UNL     1     -41.551  59.885 -51.324  1.00  0.00    -0.364 N 
HETATM   24  H   UNL     1     -40.700  60.395 -51.133  1.00  0.00     0.165 HD
HETATM   25  C   UNL     1     -42.639  60.387 -51.990  1.00  0.00     0.102 A 
ENDBRANCH  15  16
ENDBRANCH   1  14
BRANCH  13  26
HETATM   26  N   UNL     1     -44.897  56.246 -54.087  1.00  0.00    -0.383 N 
HETATM   27  H   UNL     1     -45.300  56.532 -53.196  1.00  0.00     0.157 HD
HETATM   28  H   UNL     1     -45.535  55.631 -54.600  1.00  0.00     0.157 HD
ENDBRANCH  13  26
BRANCH  12  29
HETATM   29  C   UNL     1     -42.572  55.826 -56.185  1.00  0.00     0.258 C 
HETATM   30  N   UNL     1     -41.784  55.258 -55.210  1.00  0.00    -0.352 N 
HETATM   31  H   UNL     1     -41.723  55.738 -54.318  1.00  0.00     0.163 HD
HETATM   32  O   UNL     1     -42.672  55.361 -57.316  1.00  0.00    -0.267 OA
BRANCH  30  33
HETATM   33  C   UNL     1     -40.859  54.195 -55.513  1.00  0.00     0.161 C 
BRANCH  33  34
HETATM   34  C   UNL     1     -40.512  53.377 -54.295  1.00  0.00    -0.040 A 
HETATM   35  C   UNL     1     -40.082  52.048 -54.443  1.00  0.00     0.012 A 
HETATM   36  C   UNL     1     -39.736  51.287 -53.326  1.00  0.00     0.043 A 
HETATM   37  C   UNL     1     -39.821  51.850 -52.059  1.00  0.00     0.116 A 
HETATM   38  F   UNL     1     -39.488  51.119 -50.989  1.00  0.00    -0.206 F 
HETATM   39  C   UNL     1     -40.245  53.162 -51.888  1.00  0.00     0.043 A 
HETATM   40  C   UNL     1     -40.586  53.929 -53.004  1.00  0.00     0.012 A 
ENDBRANCH  33  34
ENDBRANCH  30  33
ENDBRANCH  12  29
TORSDOF 6
ENDMDL
MODEL 2
REMARK VINA RESULT:      -9.1      2.505      5.787
REMARK  6 active torsions:
REMARK  status: ('A' for Active; 'I' for Inactive)
REMARK    1  A    between atoms: C_8  and  C_9 
REMARK    2  A    between atoms: N_10  and  N_11 
REMARK    3  A    between atoms: C_22  and  C_23 
REMARK       I    between atoms: C_23  and  N_24 
REMARK    4  A    between atoms: N_24  and  C_25 
REMARK    5  A    between atoms: C_25  and  C_26 
REMARK    6  A    between atoms: C_34  and  N_35 
ROOT
HETATM    1  N   UNL     1     -43.109  58.830 -56.523  1.00  0.00    -0.197 N 
HETATM    2  C   UNL     1     -43.641  58.793 -55.249  1.00  0.00     0.183 A 
HETATM    3  C   UNL     1     -43.428  57.515 -54.746  1.00  0.00     0.125 A 
HETATM    4  N   UNL     1     -43.882  57.164 -53.515  1.00  0.00    -0.242 NA
HETATM    5  C   UNL     1     -44.525  58.136 -52.850  1.00  0.00     0.086 A 
HETATM    6  C   UNL     1     -44.722  59.436 -53.388  1.00  0.00     0.088 A 
HETATM    7  N   UNL     1     -44.286  59.795 -54.605  1.00  0.00    -0.225 NA
HETATM    8  C   UNL     1     -45.013  57.853 -51.581  1.00  0.00     0.034 A 
HETATM    9  C   UNL     1     -45.688  58.813 -50.825  1.00  0.00     0.002 A 
HETATM   10  C   UNL     1     -45.880  60.083 -51.349  1.00  0.00     0.002 A 
HETATM   11  C   UNL     1     -45.397  60.381 -52.624  1.00  0.00     0.034 A 
HETATM   12  C   UNL     1     -42.691  56.770 -55.706  1.00  0.00     0.110 A 
HETATM   13  C   UNL     1     -42.446  57.630 -56.768  1.00  0.00     0.143 A 
ENDROOT
BRANCH   1  14
HETATM   14  N   UNL     1     -43.120  59.868 -57.406  1.00  0.00    -0.176 NA
HETATM   15  C   UNL     1     -44.190  60.051 -58.122  1.00  0.00     0.153 C 
BRANCH  15  16
HETATM   16  C   UNL     1     -45.338  59.182 -58.351  1.00  0.00     0.011 A 
HETATM   17  C   UNL     1     -45.348  58.033 -59.219  1.00  0.00     0.004 A 
HETATM   18  C   UNL     1     -44.392  57.432 -60.067  1.00  0.00     0.014 A 
HETATM   19  C   UNL     1     -46.610  57.443 -59.134  1.00  0.00     0.043 A 
HETATM   20  C   UNL     1     -44.726  56.274 -60.780  1.00  0.00     0.001 A 
HETATM   21  C   UNL     1     -45.996  55.715 -60.671  1.00  0.00     0.002 A 
HETATM   22  C   UNL     1     -46.966  56.293 -59.849  1.00  0.00     0.030 A 
HETATM   23  N   UNL     1     -47.347  58.195 -58.253  1.00  0.00    -0.364 N 
HETATM   24  H   UNL     1     -48.306  58.005 -57.998  1.00  0.00     0.165 HD
HETATM   25  C   UNL     1     -46.576  59.200 -57.731  1.00  0.00     0.102 A 
ENDBRANCH  15  16
ENDBRANCH   1  14
BRANCH  13  26
HETATM   26  N   UNL     1     -41.786  57.443 -57.949  1.00  0.00    -0.383 N 
HETATM   27  H   UNL     1     -41.060  58.106 -58.214  1.00  0.00     0.157 HD
HETATM   28  H   UNL     1     -41.495  56.480 -58.146  1.00  0.00     0.157 HD
ENDBRANCH  13  26
BRANCH  12  29
HETATM   29  C   UNL     1     -42.289  55.378 -55.611  1.00  0.00     0.258 C 
HETATM   30  N   UNL     1     -40.979  55.194 -55.232  1.00  0.00    -0.352 N 
HETATM   31  H   UNL     1     -40.419  56.023 -55.063  1.00  0.00     0.163 HD
HETATM   32  O   UNL     1     -43.038  54.449 -55.894  1.00  0.00    -0.267 OA
BRANCH  30  33
HETATM   33  C   UNL     1     -40.336  53.909 -55.341  1.00  0.00     0.161 C 
BRANCH  33  34
HETATM   34  C   UNL     1     -40.240  53.204 -54.012  1.00  0.00    -0.040 A 
HETATM   35  C   UNL     1     -39.774  51.880 -53.953  1.00  0.00     0.012 A 
HETATM   36  C   UNL     1     -39.658  51.223 -52.728  1.00  0.00     0.043 A 
HETATM   37  C   UNL     1     -40.012  51.886 -51.559  1.00  0.00     0.116 A 
HETATM   38  F   UNL     1     -39.900  51.255 -50.384  1.00  0.00    -0.206 F 
HETATM   39  C   UNL     1     -40.477  53.195 -51.593  1.00  0.00     0.043 A 
HETATM   40  C   UNL     1     -40.587  53.857 -52.817  1.00  0.00     0.012 A 
ENDBRANCH  33  34
ENDBRANCH  30  33
ENDBRANCH  12  29
TORSDOF 6
ENDMDL
MODEL 3
REMARK VINA RESULT:      -8.9      1.507      5.119
REMARK  6 active torsions:
REMARK  status: ('A' for Active; 'I' for Inactive)
REMARK    1  A    between atoms: C_8  and  C_9 
REMARK    2  A    between atoms: N_10  and  N_11 
REMARK    3  A    between atoms: C_22  and  C_23 
REMARK       I    between atoms: C_23  and  N_24 
REMARK    4  A    between atoms: N_24  and  C_25 
REMARK    5  A    between atoms: C_25  and  C_26 
REMARK    6  A    between atoms: C_34  and  N_35 
ROOT
HETATM    1  N   UNL     1     -44.418  58.528 -55.175  1.00  0.00    -0.197 N 
HETATM    2  C   UNL     1     -43.535  58.641 -54.118  1.00  0.00     0.183 A 
HETATM    3  C   UNL     1     -42.678  57.548 -54.172  1.00  0.00     0.125 A 
HETATM    4  N   UNL     1     -41.719  57.364 -53.229  1.00  0.00    -0.242 NA
HETATM    5  C   UNL     1     -41.671  58.310 -52.279  1.00  0.00     0.086 A 
HETATM    6  C   UNL     1     -42.556  59.421 -52.253  1.00  0.00     0.088 A 
HETATM    7  N   UNL     1     -43.514  59.611 -53.174  1.00  0.00    -0.225 NA
HETATM    8  C   UNL     1     -40.710  58.193 -51.283  1.00  0.00     0.034 A 
HETATM    9  C   UNL     1     -40.595  59.139 -50.262  1.00  0.00     0.002 A 
HETATM   10  C   UNL     1     -41.458  60.224 -50.237  1.00  0.00     0.002 A 
HETATM   11  C   UNL     1     -42.430  60.353 -51.231  1.00  0.00     0.034 A 
HETATM   12  C   UNL     1     -43.000  56.780 -55.325  1.00  0.00     0.110 A 
HETATM   13  C   UNL     1     -44.036  57.448 -55.966  1.00  0.00     0.143 A 
ENDROOT
BRANCH   1  14
HETATM   14  N   UNL     1     -45.453  59.354 -55.493  1.00  0.00    -0.176 NA
HETATM   15  C   UNL     1     -45.215  60.357 -56.287  1.00  0.00     0.153 C 
BRANCH  15  16
HETATM   16  C   UNL     1     -43.952  60.937 -56.728  1.00  0.00     0.011 A 
HETATM   17  C   UNL     1     -43.353  60.731 -58.022  1.00  0.00     0.004 A 
HETATM   18  C   UNL     1     -43.707  59.976 -59.161  1.00  0.00     0.014 A 
HETATM   19  C   UNL     1     -42.180  61.485 -58.075  1.00  0.00     0.043 A 
HETATM   20  C   UNL     1     -42.891  60.012 -60.299  1.00  0.00     0.001 A 
HETATM   21  C   UNL     1     -41.727  60.774 -60.314  1.00  0.00     0.002 A 
HETATM   22  C   UNL     1     -41.344  61.522 -59.198  1.00  0.00     0.030 A 
HETATM   23  N   UNL     1     -42.059  62.127 -56.867  1.00  0.00    -0.364 N 
HETATM   24  H   UNL     1     -41.298  62.744 -56.617  1.00  0.00     0.165 HD
HETATM   25  C   UNL     1     -43.146  61.856 -56.079  1.00  0.00     0.102 A 
ENDBRANCH  15  16
ENDBRANCH   1  14
BRANCH  13  26
HETATM   26  N   UNL     1     -44.725  57.161 -57.110  1.00  0.00    -0.383 N 
HETATM   27  H   UNL     1     -44.976  57.925 -57.734  1.00  0.00     0.157 HD
HETATM   28  H   UNL     1     -44.388  56.350 -57.638  1.00  0.00     0.157 HD
ENDBRANCH  13  26
BRANCH  12  29
HETATM   29  C   UNL     1     -42.386  55.533 -55.744  1.00  0.00     0.258 C 
HETATM   30  N   UNL     1     -41.519  54.993 -54.821  1.00  0.00    -0.352 N 
HETATM   31  H   UNL     1     -41.380  55.503 -53.955  1.00  0.00     0.163 HD
HETATM   32  O   UNL     1     -42.585  55.030 -56.845  1.00  0.00    -0.267 OA
BRANCH  30  33
HETATM   33  C   UNL     1     -40.628  53.914 -55.165  1.00  0.00     0.161 C 
BRANCH  33  34
HETATM   34  C   UNL     1     -40.323  53.028 -53.985  1.00  0.00    -0.040 A 
HETATM   35  C   UNL     1     -39.931  51.695 -54.193  1.00  0.00     0.012 A 
HETATM   36  C   UNL     1     -39.623  50.870 -53.111  1.00  0.00     0.043 A 
HETATM   37  C   UNL     1     -39.712  51.372 -51.819  1.00  0.00     0.116 A 
HETATM   38  F   UNL     1     -39.416  50.580 -50.781  1.00  0.00    -0.206 F 
HETATM   39  C   UNL     1     -40.100  52.687 -51.588  1.00  0.00     0.043 A 
HETATM   40  C   UNL     1     -40.401  53.517 -52.670  1.00  0.00     0.012 A 
ENDBRANCH  33  34
ENDBRANCH  30  33
ENDBRANCH  12  29
TORSDOF 6
ENDMDL
MODEL 4
REMARK VINA RESULT:      -8.8      2.596      4.724
REMARK  6 active torsions:
REMARK  status: ('A' for Active; 'I' for Inactive)
REMARK    1  A    between atoms: C_8  and  C_9 
REMARK    2  A    between atoms: N_10  and  N_11 
REMARK    3  A    between atoms: C_22  and  C_23 
REMARK       I    between atoms: C_23  and  N_24 
REMARK    4  A    between atoms: N_24  and  C_25 
REMARK    5  A    between atoms: C_25  and  C_26 
REMARK    6  A    between atoms: C_34  and  N_35 
ROOT
HETATM    1  N   UNL     1     -41.404  58.423 -52.223  1.00  0.00    -0.197 N 
HETATM    2  C   UNL     1     -41.789  57.787 -53.388  1.00  0.00     0.183 A 
HETATM    3  C   UNL     1     -41.873  56.428 -53.111  1.00  0.00     0.125 A 
HETATM    4  N   UNL     1     -42.195  55.536 -54.084  1.00  0.00    -0.242 NA
HETATM    5  C   UNL     1     -42.425  56.073 -55.291  1.00  0.00     0.086 A 
HETATM    6  C   UNL     1     -42.338  57.468 -55.542  1.00  0.00     0.088 A 
HETATM    7  N   UNL     1     -42.014  58.360 -54.594  1.00  0.00    -0.225 NA
HETATM    8  C   UNL     1     -42.765  55.222 -56.334  1.00  0.00     0.034 A 
HETATM    9  C   UNL     1     -43.024  55.705 -57.619  1.00  0.00     0.002 A 
HETATM   10  C   UNL     1     -42.941  57.068 -57.864  1.00  0.00     0.002 A 
HETATM   11  C   UNL     1     -42.597  57.934 -56.825  1.00  0.00     0.034 A 
HETATM   12  C   UNL     1     -41.597  56.231 -51.731  1.00  0.00     0.110 A 
HETATM   13  C   UNL     1     -41.379  57.491 -51.190  1.00  0.00     0.143 A 
ENDROOT
BRANCH   1  14
HETATM   14  N   UNL     1     -41.163  59.751 -52.034  1.00  0.00    -0.176 NA
HETATM   15  C   UNL     1     -42.147  60.501 -51.631  1.00  0.00     0.153 C 
BRANCH  15  16
HETATM   16  C   UNL     1     -43.579  60.234 -51.572  1.00  0.00     0.011 A 
HETATM   17  C   UNL     1     -44.598  61.038 -52.198  1.00  0.00     0.004 A 
HETATM   18  C   UNL     1     -44.583  62.222 -52.966  1.00  0.00     0.014 A 
HETATM   19  C   UNL     1     -45.831  60.433 -51.950  1.00  0.00     0.043 A 
HETATM   20  C   UNL     1     -45.785  62.747 -53.457  1.00  0.00     0.001 A 
HETATM   21  C   UNL     1     -46.997  62.118 -53.187  1.00  0.00     0.002 A 
HETATM   22  C   UNL     1     -47.044  60.950 -52.421  1.00  0.00     0.030 A 
HETATM   23  N   UNL     1     -45.586  59.309 -51.202  1.00  0.00    -0.364 N 
HETATM   24  H   UNL     1     -46.297  58.672 -50.870  1.00  0.00     0.165 HD
HETATM   25  C   UNL     1     -44.237  59.146 -51.025  1.00  0.00     0.102 A 
ENDBRANCH  15  16
ENDBRANCH   1  14
BRANCH  13  26
HETATM   26  N   UNL     1     -41.077  57.889 -49.918  1.00  0.00    -0.383 N 
HETATM   27  H   UNL     1     -41.317  57.272 -49.143  1.00  0.00     0.157 HD
HETATM   28  H   UNL     1     -40.146  58.296 -49.791  1.00  0.00     0.157 HD
ENDBRANCH  13  26
BRANCH  12  29
HETATM   29  C   UNL     1     -41.533  54.964 -51.024  1.00  0.00     0.258 C 
HETATM   30  N   UNL     1     -40.332  54.306 -51.155  1.00  0.00    -0.352 N 
HETATM   31  H   UNL     1     -39.616  54.744 -51.725  1.00  0.00     0.163 HD
HETATM   32  O   UNL     1     -42.485  54.498 -50.406  1.00  0.00    -0.267 OA
BRANCH  30  33
HETATM   33  C   UNL     1     -40.178  52.931 -50.750  1.00  0.00     0.161 C 
BRANCH  33  34
HETATM   34  C   UNL     1     -40.046  52.001 -51.929  1.00  0.00    -0.040 A 
HETATM   35  C   UNL     1     -39.664  50.664 -51.728  1.00  0.00     0.012 A 
HETATM   36  C   UNL     1     -39.560  49.786 -52.806  1.00  0.00     0.043 A 
HETATM   37  C   UNL     1     -39.833  50.242 -54.090  1.00  0.00     0.116 A 
HETATM   38  F   UNL     1     -39.733  49.399 -55.125  1.00  0.00    -0.206 F 
HETATM   39  C   UNL     1     -40.210  51.561 -54.314  1.00  0.00     0.043 A 
HETATM   40  C   UNL     1     -40.322  52.440 -53.235  1.00  0.00     0.012 A 
ENDBRANCH  33  34
ENDBRANCH  30  33
ENDBRANCH  12  29
TORSDOF 6
ENDMDL
MODEL 5
REMARK VINA RESULT:      -8.6      2.686      6.321
REMARK  6 active torsions:
REMARK  status: ('A' for Active; 'I' for Inactive)
REMARK    1  A    between atoms: C_8  and  C_9 
REMARK    2  A    between atoms: N_10  and  N_11 
REMARK    3  A    between atoms: C_22  and  C_23 
REMARK       I    between atoms: C_23  and  N_24 
REMARK    4  A    between atoms: N_24  and  C_25 
REMARK    5  A    between atoms: C_25  and  C_26 
REMARK    6  A    between atoms: C_34  and  N_35 
ROOT
HETATM    1  N   UNL     1     -44.419  60.299 -57.508  1.00  0.00    -0.197 N 
HETATM    2  C   UNL     1     -44.408  58.999 -57.977  1.00  0.00     0.183 A 
HETATM    3  C   UNL     1     -43.510  58.283 -57.194  1.00  0.00     0.125 A 
HETATM    4  N   UNL     1     -43.255  56.972 -57.446  1.00  0.00    -0.242 NA
HETATM    5  C   UNL     1     -43.935  56.451 -58.478  1.00  0.00     0.086 A 
HETATM    6  C   UNL     1     -44.852  57.207 -59.256  1.00  0.00     0.088 A 
HETATM    7  N   UNL     1     -45.108  58.503 -59.024  1.00  0.00    -0.225 NA
HETATM    8  C   UNL     1     -43.730  55.114 -58.790  1.00  0.00     0.034 A 
HETATM    9  C   UNL     1     -44.403  54.498 -59.848  1.00  0.00     0.002 A 
HETATM   10  C   UNL     1     -45.300  55.235 -60.607  1.00  0.00     0.002 A 
HETATM   11  C   UNL     1     -45.513  56.581 -60.305  1.00  0.00     0.034 A 
HETATM   12  C   UNL     1     -43.007  59.144 -56.181  1.00  0.00     0.110 A 
HETATM   13  C   UNL     1     -43.640  60.368 -56.357  1.00  0.00     0.143 A 
ENDROOT
BRANCH   1  14
HETATM   14  N   UNL     1     -45.125  61.358 -57.995  1.00  0.00    -0.176 NA
HETATM   15  C   UNL     1     -44.657  61.977 -59.039  1.00  0.00     0.153 C 
BRANCH  15  16
HETATM   16  C   UNL     1     -43.346  61.910 -59.673  1.00  0.00     0.011 A 
HETATM   17  C   UNL     1     -42.190  62.669 -59.270  1.00  0.00     0.004 A 
HETATM   18  C   UNL     1     -41.949  63.638 -58.272  1.00  0.00     0.014 A 
HETATM   19  C   UNL     1     -41.124  62.293 -60.089  1.00  0.00     0.043 A 
HETATM   20  C   UNL     1     -40.667  64.181 -58.127  1.00  0.00     0.001 A 
HETATM   21  C   UNL     1     -39.629  63.784 -58.964  1.00  0.00     0.002 A 
HETATM   22  C   UNL     1     -39.839  62.835 -59.968  1.00  0.00     0.030 A 
HETATM   23  N   UNL     1     -41.601  61.346 -60.961  1.00  0.00    -0.364 N 
HETATM   24  H   UNL     1     -41.049  60.894 -61.677  1.00  0.00     0.165 HD
HETATM   25  C   UNL     1     -42.912  61.063 -60.679  1.00  0.00     0.102 A 
ENDBRANCH  15  16
ENDBRANCH   1  14
BRANCH  13  26
HETATM   26  N   UNL     1     -43.537  61.545 -55.672  1.00  0.00    -0.383 N 
HETATM   27  H   UNL     1     -44.355  61.897 -55.177  1.00  0.00     0.157 HD
HETATM   28  H   UNL     1     -42.690  61.655 -55.106  1.00  0.00     0.157 HD
ENDBRANCH  13  26
BRANCH  12  29
HETATM   29  C   UNL     1     -42.013  58.822 -55.174  1.00  0.00     0.258 C 
HETATM   30  N   UNL     1     -41.972  57.491 -54.827  1.00  0.00    -0.352 N 
HETATM   31  H   UNL     1     -42.627  56.867 -55.286  1.00  0.00     0.163 HD
HETATM   32  O   UNL     1     -41.307  59.672 -54.641  1.00  0.00    -0.267 OA
BRANCH  30  33
HETATM   33  C   UNL     1     -41.244  57.036 -53.670  1.00  0.00     0.161 C 
BRANCH  33  34
HETATM   34  C   UNL     1     -40.927  55.564 -53.738  1.00  0.00    -0.040 A 
HETATM   35  C   UNL     1     -41.092  54.757 -52.600  1.00  0.00     0.012 A 
HETATM   36  C   UNL     1     -40.824  53.389 -52.655  1.00  0.00     0.043 A 
HETATM   37  C   UNL     1     -40.385  52.824 -53.846  1.00  0.00     0.116 A 
HETATM   38  F   UNL     1     -40.128  51.512 -53.898  1.00  0.00    -0.206 F 
HETATM   39  C   UNL     1     -40.212  53.602 -54.984  1.00  0.00     0.043 A 
HETATM   40  C   UNL     1     -40.486  54.970 -54.934  1.00  0.00     0.012 A 
ENDBRANCH  33  34
ENDBRANCH  30  33
ENDBRANCH  12  29
TORSDOF 6
ENDMDL
MODEL 6
REMARK VINA RESULT:      -8.6      2.446      4.288
REMARK  6 active torsions:
REMARK  status: ('A' for Active; 'I' for Inactive)
REMARK    1  A    between atoms: C_8  and  C_9 
REMARK    2  A    between atoms: N_10  and  N_11 
REMARK    3  A    between atoms: C_22  and  C_23 
REMARK       I    between atoms: C_23  and  N_24 
REMARK    4  A    between atoms: N_24  and  C_25 
REMARK    5  A    between atoms: C_25  and  C_26 
REMARK    6  A    between atoms: C_34  and  N_35 
ROOT
HETATM    1  N   UNL     1     -41.769  58.666 -54.173  1.00  0.00    -0.197 N 
HETATM    2  C   UNL     1     -42.188  57.891 -55.237  1.00  0.00     0.183 A 
HETATM    3  C   UNL     1     -42.421  56.609 -54.752  1.00  0.00     0.125 A 
HETATM    4  N   UNL     1     -42.809  55.608 -55.583  1.00  0.00    -0.242 NA
HETATM    5  C   UNL     1     -42.950  55.962 -56.869  1.00  0.00     0.086 A 
HETATM    6  C   UNL     1     -42.711  57.282 -57.335  1.00  0.00     0.088 A 
HETATM    7  N   UNL     1     -42.320  58.280 -56.527  1.00  0.00    -0.225 NA
HETATM    8  C   UNL     1     -43.351  54.991 -57.778  1.00  0.00     0.034 A 
HETATM    9  C   UNL     1     -43.524  55.283 -59.132  1.00  0.00     0.002 A 
HETATM   10  C   UNL     1     -43.292  56.572 -59.588  1.00  0.00     0.002 A 
HETATM   11  C   UNL     1     -42.887  57.557 -58.686  1.00  0.00     0.034 A 
HETATM   12  C   UNL     1     -42.203  56.612 -53.347  1.00  0.00     0.110 A 
HETATM   13  C   UNL     1     -41.868  57.916 -53.005  1.00  0.00     0.143 A 
ENDROOT
BRANCH   1  14
HETATM   14  N   UNL     1     -41.394  59.976 -54.187  1.00  0.00    -0.176 NA
HETATM   15  C   UNL     1     -42.294  60.873 -53.908  1.00  0.00     0.153 C 
BRANCH  15  16
HETATM   16  C   UNL     1     -43.745  60.763 -53.815  1.00  0.00     0.011 A 
HETATM   17  C   UNL     1     -44.527  61.074 -52.646  1.00  0.00     0.004 A 
HETATM   18  C   UNL     1     -44.214  61.511 -51.341  1.00  0.00     0.014 A 
HETATM   19  C   UNL     1     -45.872  60.886 -52.969  1.00  0.00     0.043 A 
HETATM   20  C   UNL     1     -45.244  61.749 -50.422  1.00  0.00     0.001 A 
HETATM   21  C   UNL     1     -46.573  61.547 -50.779  1.00  0.00     0.002 A 
HETATM   22  C   UNL     1     -46.914  61.105 -52.059  1.00  0.00     0.030 A 
HETATM   23  N   UNL     1     -45.919  60.474 -54.278  1.00  0.00    -0.364 N 
HETATM   24  H   UNL     1     -46.767  60.257 -54.782  1.00  0.00     0.165 HD
HETATM   25  C   UNL     1     -44.657  60.459 -54.812  1.00  0.00     0.102 A 
ENDBRANCH  15  16
ENDBRANCH   1  14
BRANCH  13  26
HETATM   26  N   UNL     1     -41.559  58.483 -51.801  1.00  0.00    -0.383 N 
HETATM   27  H   UNL     1     -40.942  57.978 -51.167  1.00  0.00     0.157 HD
HETATM   28  H   UNL     1     -41.324  59.480 -51.828  1.00  0.00     0.157 HD
ENDBRANCH  13  26
BRANCH  12  29
HETATM   29  C   UNL     1     -42.291  55.477 -52.446  1.00  0.00     0.258 C 
HETATM   30  N   UNL     1     -41.080  55.069 -51.935  1.00  0.00    -0.352 N 
HETATM   31  H   UNL     1     -40.252  55.577 -52.228  1.00  0.00     0.163 HD
HETATM   32  O   UNL     1     -43.345  54.901 -52.203  1.00  0.00    -0.267 OA
BRANCH  30  33
HETATM   33  C   UNL     1     -40.939  53.813 -51.244  1.00  0.00     0.161 C 
BRANCH  33  34
HETATM   34  C   UNL     1     -40.508  52.701 -52.165  1.00  0.00    -0.040 A 
HETATM   35  C   UNL     1     -40.773  52.788 -53.541  1.00  0.00     0.012 A 
HETATM   36  C   UNL     1     -40.360  51.776 -54.409  1.00  0.00     0.043 A 
HETATM   37  C   UNL     1     -39.684  50.673 -53.902  1.00  0.00     0.116 A 
HETATM   38  F   UNL     1     -39.288  49.703 -54.735  1.00  0.00    -0.206 F 
HETATM   39  C   UNL     1     -39.412  50.563 -52.544  1.00  0.00     0.043 A 
HETATM   40  C   UNL     1     -39.818  51.577 -51.675  1.00  0.00     0.012 A 
ENDBRANCH  33  34
ENDBRANCH  30  33
ENDBRANCH  12  29
TORSDOF 6
ENDMDL
MODEL 7
REMARK VINA RESULT:      -8.5      2.613      5.460
REMARK  6 active torsions:
REMARK  status: ('A' for Active; 'I' for Inactive)
REMARK    1  A    between atoms: C_8  and  C_9 
REMARK    2  A    between atoms: N_10  and  N_11 
REMARK    3  A    between atoms: C_22  and  C_23 
REMARK       I    between atoms: C_23  and  N_24 
REMARK    4  A    between atoms: N_24  and  C_25 
REMARK    5  A    between atoms: C_25  and  C_26 
REMARK    6  A    between atoms: C_34  and  N_35 
ROOT
HETATM    1  N   UNL     1     -42.095  59.412 -55.994  1.00  0.00    -0.197 N 
HETATM    2  C   UNL     1     -42.547  58.316 -56.704  1.00  0.00     0.183 A 
HETATM    3  C   UNL     1     -42.618  57.247 -55.818  1.00  0.00     0.125 A 
HETATM    4  N   UNL     1     -42.996  56.013 -56.242  1.00  0.00    -0.242 NA
HETATM    5  C   UNL     1     -43.294  55.929 -57.547  1.00  0.00     0.086 A 
HETATM    6  C   UNL     1     -43.219  57.041 -58.427  1.00  0.00     0.088 A 
HETATM    7  N   UNL     1     -42.840  58.264 -58.025  1.00  0.00    -0.225 NA
HETATM    8  C   UNL     1     -43.695  54.698 -58.051  1.00  0.00     0.034 A 
HETATM    9  C   UNL     1     -44.025  54.531 -59.397  1.00  0.00     0.002 A 
HETATM   10  C   UNL     1     -43.953  55.617 -60.257  1.00  0.00     0.002 A 
HETATM   11  C   UNL     1     -43.549  56.859 -59.764  1.00  0.00     0.034 A 
HETATM   12  C   UNL     1     -42.264  57.712 -54.522  1.00  0.00     0.110 A 
HETATM   13  C   UNL     1     -42.013  59.072 -54.647  1.00  0.00     0.143 A 
ENDROOT
BRANCH   1  14
HETATM   14  N   UNL     1     -41.841  60.666 -56.463  1.00  0.00    -0.176 NA
HETATM   15  C   UNL     1     -42.830  61.508 -56.526  1.00  0.00     0.153 C 
BRANCH  15  16
HETATM   16  C   UNL     1     -44.268  61.292 -56.418  1.00  0.00     0.011 A 
HETATM   17  C   UNL     1     -45.140  60.955 -57.514  1.00  0.00     0.004 A 
HETATM   18  C   UNL     1     -44.950  60.766 -58.900  1.00  0.00     0.014 A 
HETATM   19  C   UNL     1     -46.427  60.788 -57.000  1.00  0.00     0.043 A 
HETATM   20  C   UNL     1     -46.038  60.412 -59.708  1.00  0.00     0.001 A 
HETATM   21  C   UNL     1     -47.308  60.257 -59.161  1.00  0.00     0.002 A 
HETATM   22  C   UNL     1     -47.529  60.448 -57.795  1.00  0.00     0.030 A 
HETATM   23  N   UNL     1     -46.354  61.013 -55.648  1.00  0.00    -0.364 N 
HETATM   24  H   UNL     1     -47.139  60.966 -55.014  1.00  0.00     0.165 HD
HETATM   25  C   UNL     1     -45.056  61.253 -55.280  1.00  0.00     0.102 A 
ENDBRANCH  15  16
ENDBRANCH   1  14
BRANCH  13  26
HETATM   26  N   UNL     1     -41.639  60.010 -53.727  1.00  0.00    -0.383 N 
HETATM   27  H   UNL     1     -41.175  59.701 -52.875  1.00  0.00     0.157 HD
HETATM   28  H   UNL     1     -41.188  60.848 -54.108  1.00  0.00     0.157 HD
ENDBRANCH  13  26
BRANCH  12  29
HETATM   29  C   UNL     1     -42.163  56.922 -53.308  1.00  0.00     0.258 C 
HETATM   30  N   UNL     1     -41.564  55.695 -53.482  1.00  0.00    -0.352 N 
HETATM   31  H   UNL     1     -41.260  55.450 -54.418  1.00  0.00     0.163 HD
HETATM   32  O   UNL     1     -42.617  57.296 -52.232  1.00  0.00    -0.267 OA
BRANCH  30  33
HETATM   33  C   UNL     1     -41.614  54.680 -52.460  1.00  0.00     0.161 C 
BRANCH  33  34
HETATM   34  C   UNL     1     -40.922  53.410 -52.883  1.00  0.00    -0.040 A 
HETATM   35  C   UNL     1     -40.105  52.721 -51.972  1.00  0.00     0.012 A 
HETATM   36  C   UNL     1     -39.476  51.532 -52.342  1.00  0.00     0.043 A 
HETATM   37  C   UNL     1     -39.658  51.031 -53.625  1.00  0.00     0.116 A 
HETATM   38  F   UNL     1     -39.054  49.890 -53.980  1.00  0.00    -0.206 F 
HETATM   39  C   UNL     1     -40.460  51.697 -54.545  1.00  0.00     0.043 A 
HETATM   40  C   UNL     1     -41.096  52.883 -54.174  1.00  0.00     0.012 A 
ENDBRANCH  33  34
ENDBRANCH  30  33
ENDBRANCH  12  29
TORSDOF 6
ENDMDL
MODEL 8
REMARK VINA RESULT:      -8.5      2.651      5.596
REMARK  6 active torsions:
REMARK  status: ('A' for Active; 'I' for Inactive)
REMARK    1  A    between atoms: C_8  and  C_9 
REMARK    2  A    between atoms: N_10  and  N_11 
REMARK    3  A    between atoms: C_22  and  C_23 
REMARK       I    between atoms: C_23  and  N_24 
REMARK    4  A    between atoms: N_24  and  C_25 
REMARK    5  A    between atoms: C_25  and  C_26 
REMARK    6  A    between atoms: C_34  and  N_35 
ROOT
HETATM    1  N   UNL     1     -42.352  58.694 -56.375  1.00  0.00    -0.197 N 
HETATM    2  C   UNL     1     -42.695  59.454 -55.274  1.00  0.00     0.183 A 
HETATM    3  C   UNL     1     -43.153  58.583 -54.292  1.00  0.00     0.125 A 
HETATM    4  N   UNL     1     -43.603  59.049 -53.099  1.00  0.00    -0.242 NA
HETATM    5  C   UNL     1     -43.556  60.382 -52.958  1.00  0.00     0.086 A 
HETATM    6  C   UNL     1     -43.076  61.248 -53.976  1.00  0.00     0.088 A 
HETATM    7  N   UNL     1     -42.635  60.802 -55.163  1.00  0.00    -0.225 NA
HETATM    8  C   UNL     1     -43.995  60.931 -51.760  1.00  0.00     0.034 A 
HETATM    9  C   UNL     1     -43.973  62.309 -51.535  1.00  0.00     0.002 A 
HETATM   10  C   UNL     1     -43.503  63.155 -52.529  1.00  0.00     0.002 A 
HETATM   11  C   UNL     1     -43.061  62.617 -53.738  1.00  0.00     0.034 A 
HETATM   12  C   UNL     1     -43.028  57.252 -54.777  1.00  0.00     0.110 A 
HETATM   13  C   UNL     1     -42.464  57.347 -56.044  1.00  0.00     0.143 A 
ENDROOT
BRANCH   1  14
HETATM   14  N   UNL     1     -41.889  59.128 -57.581  1.00  0.00    -0.176 NA
HETATM   15  C   UNL     1     -42.755  59.335 -58.530  1.00  0.00     0.153 C 
BRANCH  15  16
HETATM   16  C   UNL     1     -44.156  58.946 -58.637  1.00  0.00     0.011 A 
HETATM   17  C   UNL     1     -44.644  57.790 -59.343  1.00  0.00     0.004 A 
HETATM   18  C   UNL     1     -44.030  56.772 -60.105  1.00  0.00     0.014 A 
HETATM   19  C   UNL     1     -46.028  57.739 -59.176  1.00  0.00     0.043 A 
HETATM   20  C   UNL     1     -44.813  55.749 -60.655  1.00  0.00     0.001 A 
HETATM   21  C   UNL     1     -46.192  55.732 -60.469  1.00  0.00     0.002 A 
HETATM   22  C   UNL     1     -46.829  56.732 -59.730  1.00  0.00     0.030 A 
HETATM   23  N   UNL     1     -46.380  58.817 -58.402  1.00  0.00    -0.364 N 
HETATM   24  H   UNL     1     -47.326  59.038 -58.120  1.00  0.00     0.165 HD
HETATM   25  C   UNL     1     -45.261  59.509 -58.021  1.00  0.00     0.102 A 
ENDBRANCH  15  16
ENDBRANCH   1  14
BRANCH  13  26
HETATM   26  N   UNL     1     -42.125  56.388 -56.955  1.00  0.00    -0.383 N 
HETATM   27  H   UNL     1     -41.209  56.436 -57.399  1.00  0.00     0.157 HD
HETATM   28  H   UNL     1     -42.356  55.425 -56.692  1.00  0.00     0.157 HD
ENDBRANCH  13  26
BRANCH  12  29
HETATM   29  C   UNL     1     -43.429  56.033 -54.099  1.00  0.00     0.258 C 
HETATM   30  N   UNL     1     -42.783  55.815 -52.903  1.00  0.00    -0.352 N 
HETATM   31  H   UNL     1     -42.096  56.501 -52.609  1.00  0.00     0.163 HD
HETATM   32  O   UNL     1     -44.235  55.241 -54.575  1.00  0.00    -0.267 OA
BRANCH  30  33
HETATM   33  C   UNL     1     -42.855  54.544 -52.229  1.00  0.00     0.161 C 
BRANCH  33  34
HETATM   34  C   UNL     1     -41.746  53.613 -52.646  1.00  0.00    -0.040 A 
HETATM   35  C   UNL     1     -40.816  53.159 -51.696  1.00  0.00     0.012 A 
HETATM   36  C   UNL     1     -39.798  52.280 -52.064  1.00  0.00     0.043 A 
HETATM   37  C   UNL     1     -39.702  51.855 -53.384  1.00  0.00     0.116 A 
HETATM   38  F   UNL     1     -38.725  51.011 -53.736  1.00  0.00    -0.206 F 
HETATM   39  C   UNL     1     -40.609  52.291 -54.342  1.00  0.00     0.043 A 
HETATM   40  C   UNL     1     -41.634  53.166 -53.975  1.00  0.00     0.012 A 
ENDBRANCH  33  34
ENDBRANCH  30  33
ENDBRANCH  12  29
TORSDOF 6
ENDMDL
MODEL 9
REMARK VINA RESULT:      -8.4      3.476      6.580
REMARK  6 active torsions:
REMARK  status: ('A' for Active; 'I' for Inactive)
REMARK    1  A    between atoms: C_8  and  C_9 
REMARK    2  A    between atoms: N_10  and  N_11 
REMARK    3  A    between atoms: C_22  and  C_23 
REMARK       I    between atoms: C_23  and  N_24 
REMARK    4  A    between atoms: N_24  and  C_25 
REMARK    5  A    between atoms: C_25  and  C_26 
REMARK    6  A    between atoms: C_34  and  N_35 
ROOT
HETATM    1  N   UNL     1     -41.450  58.965 -53.748  1.00  0.00    -0.197 N 
HETATM    2  C   UNL     1     -41.604  57.630 -54.067  1.00  0.00     0.183 A 
HETATM    3  C   UNL     1     -42.574  57.547 -55.058  1.00  0.00     0.125 A 
HETATM    4  N   UNL     1     -42.971  56.345 -55.549  1.00  0.00    -0.242 NA
HETATM    5  C   UNL     1     -42.353  55.282 -55.013  1.00  0.00     0.086 A 
HETATM    6  C   UNL     1     -41.359  55.398 -54.005  1.00  0.00     0.088 A 
HETATM    7  N   UNL     1     -40.962  56.578 -53.505  1.00  0.00    -0.225 NA
HETATM    8  C   UNL     1     -42.702  54.018 -55.470  1.00  0.00     0.034 A 
HETATM    9  C   UNL     1     -42.100  52.864 -54.965  1.00  0.00     0.002 A 
HETATM   10  C   UNL     1     -41.129  52.976 -53.981  1.00  0.00     0.002 A 
HETATM   11  C   UNL     1     -40.769  54.240 -53.510  1.00  0.00     0.034 A 
HETATM   12  C   UNL     1     -42.980  58.865 -55.403  1.00  0.00     0.110 A 
HETATM   13  C   UNL     1     -42.217  59.727 -54.625  1.00  0.00     0.143 A 
ENDROOT
BRANCH   1  14
HETATM   14  N   UNL     1     -40.633  59.513 -52.805  1.00  0.00    -0.176 NA
HETATM   15  C   UNL     1     -41.117  59.703 -51.612  1.00  0.00     0.153 C 
BRANCH  15  16
HETATM   16  C   UNL     1     -42.493  59.669 -51.131  1.00  0.00     0.011 A 
HETATM   17  C   UNL     1     -43.226  60.806 -50.636  1.00  0.00     0.004 A 
HETATM   18  C   UNL     1     -42.913  62.169 -50.441  1.00  0.00     0.014 A 
HETATM   19  C   UNL     1     -44.515  60.377 -50.316  1.00  0.00     0.043 A 
HETATM   20  C   UNL     1     -43.891  63.042 -49.948  1.00  0.00     0.001 A 
HETATM   21  C   UNL     1     -45.166  62.578 -49.637  1.00  0.00     0.002 A 
HETATM   22  C   UNL     1     -45.501  61.232 -49.809  1.00  0.00     0.030 A 
HETATM   23  N   UNL     1     -44.575  59.035 -50.598  1.00  0.00    -0.364 N 
HETATM   24  H   UNL     1     -45.390  58.454 -50.460  1.00  0.00     0.165 HD
HETATM   25  C   UNL     1     -43.391  58.616 -51.145  1.00  0.00     0.102 A 
ENDBRANCH  15  16
ENDBRANCH   1  14
BRANCH  13  26
HETATM   26  N   UNL     1     -42.191  61.091 -54.548  1.00  0.00    -0.383 N 
HETATM   27  H   UNL     1     -41.561  61.604 -55.163  1.00  0.00     0.157 HD
HETATM   28  H   UNL     1     -43.106  61.548 -54.493  1.00  0.00     0.157 HD
ENDBRANCH  13  26
BRANCH  12  29
HETATM   29  C   UNL     1     -44.003  59.243 -56.361  1.00  0.00     0.258 C 
HETATM   30  N   UNL     1     -44.967  58.282 -56.565  1.00  0.00    -0.352 N 
HETATM   31  H   UNL     1     -44.878  57.412 -56.050  1.00  0.00     0.163 HD
HETATM   32  O   UNL     1     -43.982  60.306 -56.972  1.00  0.00    -0.267 OA
BRANCH  30  33
HETATM   33  C   UNL     1     -45.899  58.370 -57.660  1.00  0.00     0.161 C 
BRANCH  33  34
HETATM   34  C   UNL     1     -45.620  57.347 -58.731  1.00  0.00    -0.040 A 
HETATM   35  C   UNL     1     -44.331  56.805 -58.863  1.00  0.00     0.012 A 
HETATM   36  C   UNL     1     -44.063  55.841 -59.835  1.00  0.00     0.043 A 
HETATM   37  C   UNL     1     -45.081  55.419 -60.681  1.00  0.00     0.116 A 
HETATM   38  F   UNL     1     -44.824  54.494 -61.614  1.00  0.00    -0.206 F 
HETATM   39  C   UNL     1     -46.364  55.943 -60.571  1.00  0.00     0.043 A 
HETATM   40  C   UNL     1     -46.636  56.902 -59.594  1.00  0.00     0.012 A 
ENDBRANCH  33  34
ENDBRANCH  30  33
ENDBRANCH  12  29
TORSDOF 6
ENDMDL
MODEL 10
REMARK VINA RESULT:      -8.4      2.107      5.218
REMARK  6 active torsions:
REMARK  status: ('A' for Active; 'I' for Inactive)
REMARK    1  A    between atoms: C_8  and  C_9 
REMARK    2  A    between atoms: N_10  and  N_11 
REMARK    3  A    between atoms: C_22  and  C_23 
REMARK       I    between atoms: C_23  and  N_24 
REMARK    4  A    between atoms: N_24  and  C_25 
REMARK    5  A    between atoms: C_25  and  C_26 
REMARK    6  A    between atoms: C_34  and  N_35 
ROOT
HETATM    1  N   UNL     1     -44.670  57.702 -54.494  1.00  0.00    -0.197 N 
HETATM    2  C   UNL     1     -44.274  58.685 -53.608  1.00  0.00     0.183 A 
HETATM    3  C   UNL     1     -43.087  58.263 -53.020  1.00  0.00     0.125 A 
HETATM    4  N   UNL     1     -42.474  59.012 -52.067  1.00  0.00    -0.242 NA
HETATM    5  C   UNL     1     -43.096  60.162 -51.765  1.00  0.00     0.086 A 
HETATM    6  C   UNL     1     -44.305  60.571 -52.387  1.00  0.00     0.088 A 
HETATM    7  N   UNL     1     -44.926  59.838 -53.324  1.00  0.00    -0.225 NA
HETATM    8  C   UNL     1     -42.523  60.984 -50.803  1.00  0.00     0.034 A 
HETATM    9  C   UNL     1     -43.107  62.198 -50.436  1.00  0.00     0.002 A 
HETATM   10  C   UNL     1     -44.288  62.598 -51.045  1.00  0.00     0.002 A 
HETATM   11  C   UNL     1     -44.875  61.781 -52.012  1.00  0.00     0.034 A 
HETATM   12  C   UNL     1     -42.711  57.023 -53.605  1.00  0.00     0.110 A 
HETATM   13  C   UNL     1     -43.673  56.733 -54.565  1.00  0.00     0.143 A 
ENDROOT
BRANCH   1  14
HETATM   14  N   UNL     1     -45.793  57.671 -55.265  1.00  0.00    -0.176 NA
HETATM   15  C   UNL     1     -45.698  58.070 -56.500  1.00  0.00     0.153 C 
BRANCH  15  16
HETATM   16  C   UNL     1     -44.637  58.801 -57.181  1.00  0.00     0.011 A 
HETATM   17  C   UNL     1     -43.778  58.257 -58.202  1.00  0.00     0.004 A 
HETATM   18  C   UNL     1     -43.652  56.988 -58.807  1.00  0.00     0.014 A 
HETATM   19  C   UNL     1     -42.928  59.276 -58.633  1.00  0.00     0.043 A 
HETATM   20  C   UNL     1     -42.700  56.791 -59.815  1.00  0.00     0.001 A 
HETATM   21  C   UNL     1     -41.867  57.831 -60.218  1.00  0.00     0.002 A 
HETATM   22  C   UNL     1     -41.961  59.095 -59.630  1.00  0.00     0.030 A 
HETATM   23  N   UNL     1     -43.247  60.400 -57.911  1.00  0.00    -0.364 N 
HETATM   24  H   UNL     1     -42.788  61.295 -58.009  1.00  0.00     0.165 HD
HETATM   25  C   UNL     1     -44.310  60.143 -57.085  1.00  0.00     0.102 A 
ENDBRANCH  15  16
ENDBRANCH   1  14
BRANCH  13  26
HETATM   26  N   UNL     1     -43.805  55.677 -55.420  1.00  0.00    -0.383 N 
HETATM   27  H   UNL     1     -43.070  55.506 -56.104  1.00  0.00     0.157 HD
HETATM   28  H   UNL     1     -44.123  54.800 -54.995  1.00  0.00     0.157 HD
ENDBRANCH  13  26
BRANCH  12  29
HETATM   29  C   UNL     1     -41.562  56.206 -53.259  1.00  0.00     0.258 C 
HETATM   30  N   UNL     1     -41.852  55.154 -52.419  1.00  0.00    -0.352 N 
HETATM   31  H   UNL     1     -42.814  55.047 -52.116  1.00  0.00     0.163 HD
HETATM   32  O   UNL     1     -40.425  56.461 -53.640  1.00  0.00    -0.267 OA
BRANCH  30  33
HETATM   33  C   UNL     1     -40.810  54.404 -51.764  1.00  0.00     0.161 C 
BRANCH  33  34
HETATM   34  C   UNL     1     -40.502  53.112 -52.477  1.00  0.00    -0.040 A 
HETATM   35  C   UNL     1     -40.958  52.911 -53.791  1.00  0.00     0.012 A 
HETATM   36  C   UNL     1     -40.661  51.730 -54.471  1.00  0.00     0.043 A 
HETATM   37  C   UNL     1     -39.913  50.744 -53.839  1.00  0.00     0.116 A 
HETATM   38  F   UNL     1     -39.628  49.611 -54.493  1.00  0.00    -0.206 F 
HETATM   39  C   UNL     1     -39.453  50.920 -52.539  1.00  0.00     0.043 A 
HETATM   40  C   UNL     1     -39.742  52.104 -51.859  1.00  0.00     0.012 A 
ENDBRANCH  33  34
ENDBRANCH  30  33
ENDBRANCH  12  29
TORSDOF 6
ENDMDL
