MODEL 1
REMARK VINA RESULT:      -9.5      0.000      0.000
REMARK  9 active torsions:
REMARK  status: ('A' for Active; 'I' for Inactive)
REMARK    1  A    between atoms: O_2  and  C_3 
REMARK    2  A    between atoms: C_6  and  C_7 
REMARK    3  A    between atoms: C_8  and  C_9 
REMARK    4  A    between atoms: C_9  and  O_10 
REMARK    5  A    between atoms: O_10  and  C_11 
REMARK    6  A    between atoms: C_14  and  C_15 
REMARK    7  A    between atoms: C_17  and  O_18 
REMARK    8  A    between atoms: N_26  and  C_28 
REMARK    9  A    between atoms: C_28  and  C_29 
ROOT
HETATM    1  C   UNL     1     -43.443  60.368 -54.509  1.00  0.00     0.243 C 
HETATM    2  N   UNL     1     -44.220  59.391 -55.317  1.00  0.00    -0.235 NA
HETATM    3  C   UNL     1     -43.888  58.166 -55.114  1.00  0.00     0.173 C 
HETATM    4  C   UNL     1     -42.799  57.735 -54.273  1.00  0.00     0.057 A 
HETATM    5  C   UNL     1     -41.870  58.695 -53.946  1.00  0.00     0.087 A 
HETATM    6  S   UNL     1     -40.603  58.099 -52.992  1.00  0.00    -0.074 SA
HETATM    7  C   UNL     1     -41.336  56.563 -52.911  1.00  0.00     0.018 A 
HETATM    8  C   UNL     1     -42.506  56.486 -53.652  1.00  0.00    -0.024 A 
HETATM    9  C   UNL     1     -43.321  55.231 -53.703  1.00  0.00     0.068 C 
HETATM   10  C   UNL     1     -42.931  54.266 -52.570  1.00  0.00     0.240 C 
HETATM   11  N   UNL     1     -41.414  54.126 -52.427  1.00  0.00    -0.063 N 
HETATM   12  H   UNL     1     -41.258  53.509 -51.624  1.00  0.00     0.280 HD
HETATM   13  C   UNL     1     -40.779  55.465 -52.073  1.00  0.00     0.282 C 
HETATM   14  N   UNL     1     -42.035  59.977 -54.334  1.00  0.00    -0.357 N 
HETATM   15  H   UNL     1     -41.442  60.694 -53.930  1.00  0.00     0.162 HD
ENDROOT
BRANCH   1  16
HETATM   16  C   UNL     1     -44.089  60.610 -53.127  1.00  0.00    -0.014 A 
HETATM   17  C   UNL     1     -43.316  61.027 -52.023  1.00  0.00     0.014 A 
HETATM   18  C   UNL     1     -43.921  61.436 -50.833  1.00  0.00     0.038 A 
HETATM   19  C   UNL     1     -45.308  61.424 -50.743  1.00  0.00     0.079 A 
HETATM   20  C   UNL     1     -46.090  60.897 -51.765  1.00  0.00     0.038 A 
HETATM   21  C   UNL     1     -45.480  60.483 -52.949  1.00  0.00     0.014 A 
BRANCH  19  22
HETATM   22  O   UNL     1     -45.957  61.925 -49.617  1.00  0.00    -0.276 OA
BRANCH  22  23
HETATM   23  C   UNL     1     -45.773  61.122 -48.506  1.00  0.00     0.288 C 
HETATM   24  O   UNL     1     -45.891  59.904 -48.430  1.00  0.00    -0.260 OA
BRANCH  23  25
HETATM   25  C   UNL     1     -45.360  61.920 -47.331  1.00  0.00     0.083 C 
HETATM   26  C   UNL     1     -45.007  61.395 -46.148  1.00  0.00     0.017 C 
BRANCH  26  27
HETATM   27  C   UNL     1     -44.732  62.219 -44.966  1.00  0.00    -0.036 A 
HETATM   28  C   UNL     1     -45.329  63.480 -44.874  1.00  0.00     0.014 A 
HETATM   29  C   UNL     1     -45.088  64.298 -43.767  1.00  0.00     0.037 A 
HETATM   30  C   UNL     1     -44.261  63.865 -42.729  1.00  0.00     0.068 A 
HETATM   31  C   UNL     1     -43.676  62.602 -42.807  1.00  0.00     0.037 A 
HETATM   32  C   UNL     1     -43.913  61.782 -43.919  1.00  0.00     0.014 A 
BRANCH  30  33
HETATM   33  O   UNL     1     -44.109  64.763 -41.712  1.00  0.00    -0.356 OA
HETATM   34  C   UNL     1     -44.591  64.375 -40.431  1.00  0.00     0.210 C 
ENDBRANCH  30  33
ENDBRANCH  26  27
ENDBRANCH  23  25
ENDBRANCH  22  23
ENDBRANCH  19  22
ENDBRANCH   1  16
BRANCH   3  35
HETATM   35  O   UNL     1     -44.590  57.197 -55.728  1.00  0.00    -0.344 OA
HETATM   36  H   UNL     1     -43.965  56.472 -55.905  1.00  0.00     0.219 HD
ENDBRANCH   3  35
BRANCH  11  37
HETATM   37  C   UNL     1     -40.721  53.468 -53.599  1.00  0.00     0.273 C 
BRANCH  37  38
HETATM   38  C   UNL     1     -40.259  52.066 -53.309  1.00  0.00    -0.033 A 
HETATM   39  C   UNL     1     -40.231  51.106 -54.333  1.00  0.00     0.009 A 
HETATM   40  C   UNL     1     -39.840  49.794 -54.062  1.00  0.00     0.001 A 
HETATM   41  C   UNL     1     -39.472  49.429 -52.769  1.00  0.00     0.000 A 
HETATM   42  C   UNL     1     -39.484  50.375 -51.747  1.00  0.00     0.001 A 
HETATM   43  C   UNL     1     -39.873  51.689 -52.013  1.00  0.00     0.009 A 
ENDBRANCH  37  38
ENDBRANCH  11  37
TORSDOF 9
ENDMDL
MODEL 2
REMARK VINA RESULT:      -9.0      3.999      7.064
REMARK  9 active torsions:
REMARK  status: ('A' for Active; 'I' for Inactive)
REMARK    1  A    between atoms: O_2  and  C_3 
REMARK    2  A    between atoms: C_6  and  C_7 
REMARK    3  A    between atoms: C_8  and  C_9 
REMARK    4  A    between atoms: C_9  and  O_10 
REMARK    5  A    between atoms: O_10  and  C_11 
REMARK    6  A    between atoms: C_14  and  C_15 
REMARK    7  A    between atoms: C_17  and  O_18 
REMARK    8  A    between atoms: N_26  and  C_28 
REMARK    9  A    between atoms: C_28  and  C_29 
ROOT
HETATM    1  C   UNL     1     -41.696  59.883 -50.467  1.00  0.00     0.243 C 
HETATM    2  N   UNL     1     -40.972  60.135 -51.742  1.00  0.00    -0.235 NA
HETATM    3  C   UNL     1     -40.806  59.083 -52.462  1.00  0.00     0.173 C 
HETATM    4  C   UNL     1     -41.173  57.745 -52.067  1.00  0.00     0.057 A 
HETATM    5  C   UNL     1     -41.400  57.552 -50.725  1.00  0.00     0.087 A 
HETATM    6  S   UNL     1     -41.784  55.948 -50.338  1.00  0.00    -0.074 SA
HETATM    7  C   UNL     1     -41.758  55.505 -51.983  1.00  0.00     0.018 A 
HETATM    8  C   UNL     1     -41.402  56.555 -52.816  1.00  0.00    -0.024 A 
HETATM    9  C   UNL     1     -41.337  56.389 -54.304  1.00  0.00     0.068 C 
HETATM   10  C   UNL     1     -42.074  55.116 -54.755  1.00  0.00     0.240 C 
HETATM   11  N   UNL     1     -41.724  53.906 -53.886  1.00  0.00    -0.063 N 
HETATM   12  H   UNL     1     -42.296  53.130 -54.233  1.00  0.00     0.280 HD
HETATM   13  C   UNL     1     -42.142  54.140 -52.440  1.00  0.00     0.282 C 
HETATM   14  N   UNL     1     -41.356  58.587 -49.859  1.00  0.00    -0.357 N 
HETATM   15  H   UNL     1     -41.703  58.455 -48.916  1.00  0.00     0.162 HD
ENDROOT
BRANCH   1  16
HETATM   16  C   UNL     1     -43.226  59.984 -50.648  1.00  0.00    -0.014 A 
HETATM   17  C   UNL     1     -44.019  60.736 -49.755  1.00  0.00     0.014 A 
HETATM   18  C   UNL     1     -45.364  60.992 -50.026  1.00  0.00     0.038 A 
HETATM   19  C   UNL     1     -45.924  60.491 -51.195  1.00  0.00     0.079 A 
HETATM   20  C   UNL     1     -45.206  59.640 -52.029  1.00  0.00     0.038 A 
HETATM   21  C   UNL     1     -43.864  59.381 -51.750  1.00  0.00     0.014 A 
BRANCH  19  22
HETATM   22  O   UNL     1     -47.230  60.813 -51.559  1.00  0.00    -0.276 OA
BRANCH  22  23
HETATM   23  C   UNL     1     -47.279  61.870 -52.449  1.00  0.00     0.288 C 
HETATM   24  O   UNL     1     -46.372  62.633 -52.763  1.00  0.00    -0.260 OA
BRANCH  23  25
HETATM   25  C   UNL     1     -48.621  61.992 -53.061  1.00  0.00     0.083 C 
HETATM   26  C   UNL     1     -49.632  62.693 -52.528  1.00  0.00     0.017 C 
BRANCH  26  27
HETATM   27  C   UNL     1     -50.987  62.682 -53.092  1.00  0.00    -0.036 A 
HETATM   28  C   UNL     1     -51.219  61.960 -54.267  1.00  0.00     0.014 A 
HETATM   29  C   UNL     1     -52.493  61.929 -54.838  1.00  0.00     0.037 A 
HETATM   30  C   UNL     1     -53.558  62.605 -54.239  1.00  0.00     0.068 A 
HETATM   31  C   UNL     1     -53.337  63.313 -53.060  1.00  0.00     0.037 A 
HETATM   32  C   UNL     1     -52.058  63.348 -52.486  1.00  0.00     0.014 A 
BRANCH  30  33
HETATM   33  O   UNL     1     -54.747  62.494 -54.904  1.00  0.00    -0.356 OA
HETATM   34  C   UNL     1     -54.750  61.715 -56.094  1.00  0.00     0.210 C 
ENDBRANCH  30  33
ENDBRANCH  26  27
ENDBRANCH  23  25
ENDBRANCH  22  23
ENDBRANCH  19  22
ENDBRANCH   1  16
BRANCH   3  35
HETATM   35  O   UNL     1     -40.242  59.215 -53.676  1.00  0.00    -0.344 OA
HETATM   36  H   UNL     1     -40.054  60.162 -53.792  1.00  0.00     0.219 HD
ENDBRANCH   3  35
BRANCH  11  37
HETATM   37  C   UNL     1     -40.287  53.443 -53.987  1.00  0.00     0.273 C 
BRANCH  37  38
HETATM   38  C   UNL     1     -40.070  52.051 -53.462  1.00  0.00    -0.033 A 
HETATM   39  C   UNL     1     -39.740  51.848 -52.113  1.00  0.00     0.009 A 
HETATM   40  C   UNL     1     -39.499  50.562 -51.629  1.00  0.00     0.001 A 
HETATM   41  C   UNL     1     -39.589  49.467 -52.484  1.00  0.00     0.000 A 
HETATM   42  C   UNL     1     -39.927  49.653 -53.823  1.00  0.00     0.001 A 
HETATM   43  C   UNL     1     -40.169  50.938 -54.312  1.00  0.00     0.009 A 
ENDBRANCH  37  38
ENDBRANCH  11  37
TORSDOF 9
ENDMDL
MODEL 3
REMARK VINA RESULT:      -9.0      5.026      9.098
REMARK  9 active torsions:
REMARK  status: ('A' for Active; 'I' for Inactive)
REMARK    1  A    between atoms: O_2  and  C_3 
REMARK    2  A    between atoms: C_6  and  C_7 
REMARK    3  A    between atoms: C_8  and  C_9 
REMARK    4  A    between atoms: C_9  and  O_10 
REMARK    5  A    between atoms: O_10  and  C_11 
REMARK    6  A    between atoms: C_14  and  C_15 
REMARK    7  A    between atoms: C_17  and  O_18 
REMARK    8  A    between atoms: N_26  and  C_28 
REMARK    9  A    between atoms: C_28  and  C_29 
ROOT
HETATM    1  C   UNL     1     -42.991  60.476 -51.609  1.00  0.00     0.243 C 
HETATM    2  N   UNL     1     -41.528  60.466 -51.874  1.00  0.00    -0.235 NA
HETATM    3  C   UNL     1     -41.062  59.305 -52.174  1.00  0.00     0.173 C 
HETATM    4  C   UNL     1     -41.825  58.082 -52.163  1.00  0.00     0.057 A 
HETATM    5  C   UNL     1     -43.014  58.116 -51.475  1.00  0.00     0.087 A 
HETATM    6  S   UNL     1     -43.827  56.630 -51.475  1.00  0.00    -0.074 SA
HETATM    7  C   UNL     1     -42.647  55.941 -52.492  1.00  0.00     0.018 A 
HETATM    8  C   UNL     1     -41.611  56.816 -52.782  1.00  0.00    -0.024 A 
HETATM    9  C   UNL     1     -40.476  56.419 -53.676  1.00  0.00     0.068 C 
HETATM   10  C   UNL     1     -40.823  55.163 -54.493  1.00  0.00     0.240 C 
HETATM   11  N   UNL     1     -41.467  54.073 -53.632  1.00  0.00    -0.063 N 
HETATM   12  H   UNL     1     -41.702  53.307 -54.269  1.00  0.00     0.280 HD
HETATM   13  C   UNL     1     -42.782  54.561 -53.037  1.00  0.00     0.282 C 
HETATM   14  N   UNL     1     -43.459  59.263 -50.920  1.00  0.00    -0.357 N 
HETATM   15  H   UNL     1     -44.414  59.308 -50.581  1.00  0.00     0.162 HD
ENDROOT
BRANCH   1  16
HETATM   16  C   UNL     1     -43.806  60.683 -52.905  1.00  0.00    -0.014 A 
HETATM   17  C   UNL     1     -43.438  61.664 -53.850  1.00  0.00     0.014 A 
HETATM   18  C   UNL     1     -44.047  61.721 -55.104  1.00  0.00     0.038 A 
HETATM   19  C   UNL     1     -45.034  60.794 -55.417  1.00  0.00     0.079 A 
HETATM   20  C   UNL     1     -45.509  59.899 -54.464  1.00  0.00     0.038 A 
HETATM   21  C   UNL     1     -44.901  59.851 -53.209  1.00  0.00     0.014 A 
BRANCH  19  22
HETATM   22  O   UNL     1     -45.592  60.744 -56.693  1.00  0.00    -0.276 OA
BRANCH  22  23
HETATM   23  C   UNL     1     -44.952  59.828 -57.508  1.00  0.00     0.288 C 
HETATM   24  O   UNL     1     -45.113  58.614 -57.548  1.00  0.00    -0.260 OA
BRANCH  23  25
HETATM   25  C   UNL     1     -44.001  60.500 -58.423  1.00  0.00     0.083 C 
HETATM   26  C   UNL     1     -42.671  60.508 -58.254  1.00  0.00     0.017 C 
BRANCH  26  27
HETATM   27  C   UNL     1     -41.770  61.295 -59.104  1.00  0.00    -0.036 A 
HETATM   28  C   UNL     1     -40.665  61.917 -58.515  1.00  0.00     0.014 A 
HETATM   29  C   UNL     1     -39.788  62.680 -59.289  1.00  0.00     0.037 A 
HETATM   30  C   UNL     1     -39.990  62.822 -60.664  1.00  0.00     0.068 A 
HETATM   31  C   UNL     1     -41.080  62.190 -61.259  1.00  0.00     0.037 A 
HETATM   32  C   UNL     1     -41.964  61.428 -60.484  1.00  0.00     0.014 A 
BRANCH  30  33
HETATM   33  O   UNL     1     -39.060  63.596 -61.298  1.00  0.00    -0.356 OA
HETATM   34  C   UNL     1     -38.817  63.318 -62.671  1.00  0.00     0.210 C 
ENDBRANCH  30  33
ENDBRANCH  26  27
ENDBRANCH  23  25
ENDBRANCH  22  23
ENDBRANCH  19  22
ENDBRANCH   1  16
BRANCH   3  35
HETATM   35  O   UNL     1     -39.766  59.200 -52.520  1.00  0.00    -0.344 OA
HETATM   36  H   UNL     1     -39.639  58.291 -52.843  1.00  0.00     0.219 HD
ENDBRANCH   3  35
BRANCH  11  37
HETATM   37  C   UNL     1     -40.562  53.476 -52.578  1.00  0.00     0.273 C 
BRANCH  37  38
HETATM   38  C   UNL     1     -40.164  52.054 -52.868  1.00  0.00    -0.033 A 
HETATM   39  C   UNL     1     -40.197  51.566 -54.183  1.00  0.00     0.009 A 
HETATM   40  C   UNL     1     -39.866  50.238 -54.453  1.00  0.00     0.001 A 
HETATM   41  C   UNL     1     -39.498  49.386 -53.415  1.00  0.00     0.000 A 
HETATM   42  C   UNL     1     -39.450  49.861 -52.106  1.00  0.00     0.001 A 
HETATM   43  C   UNL     1     -39.779  51.190 -51.831  1.00  0.00     0.009 A 
ENDBRANCH  37  38
ENDBRANCH  11  37
TORSDOF 9
ENDMDL
MODEL 4
REMARK VINA RESULT:      -8.9      4.408      8.763
REMARK  9 active torsions:
REMARK  status: ('A' for Active; 'I' for Inactive)
REMARK    1  A    between atoms: O_2  and  C_3 
REMARK    2  A    between atoms: C_6  and  C_7 
REMARK    3  A    between atoms: C_8  and  C_9 
REMARK    4  A    between atoms: C_9  and  O_10 
REMARK    5  A    between atoms: O_10  and  C_11 
REMARK    6  A    between atoms: C_14  and  C_15 
REMARK    7  A    between atoms: C_17  and  O_18 
REMARK    8  A    between atoms: N_26  and  C_28 
REMARK    9  A    between atoms: C_28  and  C_29 
ROOT
HETATM    1  C   UNL     1     -43.866  61.288 -50.642  1.00  0.00     0.243 C 
HETATM    2  N   UNL     1     -42.402  61.185 -50.401  1.00  0.00    -0.235 NA
HETATM    3  C   UNL     1     -41.892  60.064 -50.769  1.00  0.00     0.173 C 
HETATM    4  C   UNL     1     -42.644  58.941 -51.274  1.00  0.00     0.057 A 
HETATM    5  C   UNL     1     -43.997  58.960 -51.029  1.00  0.00     0.087 A 
HETATM    6  S   UNL     1     -44.799  57.588 -51.616  1.00  0.00    -0.074 SA
HETATM    7  C   UNL     1     -43.359  56.994 -52.305  1.00  0.00     0.018 A 
HETATM    8  C   UNL     1     -42.264  57.802 -52.042  1.00  0.00    -0.024 A 
HETATM    9  C   UNL     1     -40.901  57.475 -52.571  1.00  0.00     0.068 C 
HETATM   10  C   UNL     1     -40.978  56.438 -53.704  1.00  0.00     0.240 C 
HETATM   11  N   UNL     1     -41.908  55.272 -53.359  1.00  0.00    -0.063 N 
HETATM   12  H   UNL     1     -41.930  54.668 -54.187  1.00  0.00     0.280 HD
HETATM   13  C   UNL     1     -43.334  55.764 -53.146  1.00  0.00     0.282 C 
HETATM   14  N   UNL     1     -44.575  60.018 -50.422  1.00  0.00    -0.357 N 
HETATM   15  H   UNL     1     -45.586  60.091 -50.419  1.00  0.00     0.162 HD
ENDROOT
BRANCH   1  16
HETATM   16  C   UNL     1     -44.177  61.818 -52.058  1.00  0.00    -0.014 A 
HETATM   17  C   UNL     1     -43.281  62.675 -52.731  1.00  0.00     0.014 A 
HETATM   18  C   UNL     1     -43.462  62.994 -54.077  1.00  0.00     0.038 A 
HETATM   19  C   UNL     1     -44.548  62.457 -54.758  1.00  0.00     0.079 A 
HETATM   20  C   UNL     1     -45.518  61.715 -54.092  1.00  0.00     0.038 A 
HETATM   21  C   UNL     1     -45.337  61.405 -52.744  1.00  0.00     0.014 A 
BRANCH  19  22
HETATM   22  O   UNL     1     -44.707  62.659 -56.127  1.00  0.00    -0.276 OA
BRANCH  22  23
HETATM   23  C   UNL     1     -43.645  62.157 -56.858  1.00  0.00     0.288 C 
HETATM   24  O   UNL     1     -42.597  62.723 -57.148  1.00  0.00    -0.260 OA
BRANCH  23  25
HETATM   25  C   UNL     1     -43.891  60.756 -57.264  1.00  0.00     0.083 C 
HETATM   26  C   UNL     1     -43.088  59.728 -56.951  1.00  0.00     0.017 C 
BRANCH  26  27
HETATM   27  C   UNL     1     -43.290  58.376 -57.482  1.00  0.00    -0.036 A 
HETATM   28  C   UNL     1     -44.009  58.222 -58.671  1.00  0.00     0.014 A 
HETATM   29  C   UNL     1     -44.228  56.951 -59.207  1.00  0.00     0.037 A 
HETATM   30  C   UNL     1     -43.720  55.815 -58.574  1.00  0.00     0.068 A 
HETATM   31  C   UNL     1     -42.988  55.962 -57.397  1.00  0.00     0.037 A 
HETATM   32  C   UNL     1     -42.771  57.237 -56.856  1.00  0.00     0.014 A 
BRANCH  30  33
HETATM   33  O   UNL     1     -44.010  54.637 -59.202  1.00  0.00    -0.356 OA
HETATM   34  C   UNL     1     -44.993  54.679 -60.229  1.00  0.00     0.210 C 
ENDBRANCH  30  33
ENDBRANCH  26  27
ENDBRANCH  23  25
ENDBRANCH  22  23
ENDBRANCH  19  22
ENDBRANCH   1  16
BRANCH   3  35
HETATM   35  O   UNL     1     -40.560  59.900 -50.679  1.00  0.00    -0.344 OA
HETATM   36  H   UNL     1     -40.157  60.723 -51.008  1.00  0.00     0.219 HD
ENDBRANCH   3  35
BRANCH  11  37
HETATM   37  C   UNL     1     -41.439  54.398 -52.218  1.00  0.00     0.273 C 
BRANCH  37  38
HETATM   38  C   UNL     1     -40.766  53.132 -52.672  1.00  0.00    -0.033 A 
HETATM   39  C   UNL     1     -40.939  52.673 -53.987  1.00  0.00     0.009 A 
HETATM   40  C   UNL     1     -40.350  51.479 -54.403  1.00  0.00     0.001 A 
HETATM   41  C   UNL     1     -39.581  50.733 -53.512  1.00  0.00     0.000 A 
HETATM   42  C   UNL     1     -39.392  51.183 -52.207  1.00  0.00     0.001 A 
HETATM   43  C   UNL     1     -39.980  52.378 -51.787  1.00  0.00     0.009 A 
ENDBRANCH  37  38
ENDBRANCH  11  37
TORSDOF 9
ENDMDL
MODEL 5
REMARK VINA RESULT:      -8.8      5.013      9.443
REMARK  9 active torsions:
REMARK  status: ('A' for Active; 'I' for Inactive)
REMARK    1  A    between atoms: O_2  and  C_3 
REMARK    2  A    between atoms: C_6  and  C_7 
REMARK    3  A    between atoms: C_8  and  C_9 
REMARK    4  A    between atoms: C_9  and  O_10 
REMARK    5  A    between atoms: O_10  and  C_11 
REMARK    6  A    between atoms: C_14  and  C_15 
REMARK    7  A    between atoms: C_17  and  O_18 
REMARK    8  A    between atoms: N_26  and  C_28 
REMARK    9  A    between atoms: C_28  and  C_29 
ROOT
HETATM    1  C   UNL     1     -45.336  61.449 -53.533  1.00  0.00     0.243 C 
HETATM    2  N   UNL     1     -44.368  61.425 -52.405  1.00  0.00    -0.235 NA
HETATM    3  C   UNL     1     -43.662  60.352 -52.348  1.00  0.00     0.173 C 
HETATM    4  C   UNL     1     -43.832  59.206 -53.207  1.00  0.00     0.057 A 
HETATM    5  C   UNL     1     -45.021  59.133 -53.891  1.00  0.00     0.087 A 
HETATM    6  S   UNL     1     -45.159  57.739 -54.844  1.00  0.00    -0.074 SA
HETATM    7  C   UNL     1     -43.575  57.260 -54.437  1.00  0.00     0.018 A 
HETATM    8  C   UNL     1     -42.967  58.123 -53.538  1.00  0.00    -0.024 A 
HETATM    9  C   UNL     1     -41.564  57.899 -53.061  1.00  0.00     0.068 C 
HETATM   10  C   UNL     1     -40.820  56.903 -53.967  1.00  0.00     0.240 C 
HETATM   11  N   UNL     1     -41.669  55.671 -54.292  1.00  0.00    -0.063 N 
HETATM   12  H   UNL     1     -41.110  55.099 -54.932  1.00  0.00     0.280 HD
HETATM   13  C   UNL     1     -42.928  56.067 -55.052  1.00  0.00     0.282 C 
HETATM   14  N   UNL     1     -45.928  60.131 -53.811  1.00  0.00    -0.357 N 
HETATM   15  H   UNL     1     -46.706  60.142 -54.460  1.00  0.00     0.162 HD
ENDROOT
BRANCH   1  16
HETATM   16  C   UNL     1     -44.700  62.012 -54.823  1.00  0.00    -0.014 A 
HETATM   17  C   UNL     1     -43.601  62.895 -54.769  1.00  0.00     0.014 A 
HETATM   18  C   UNL     1     -42.902  63.247 -55.924  1.00  0.00     0.038 A 
HETATM   19  C   UNL     1     -43.305  62.719 -57.144  1.00  0.00     0.079 A 
HETATM   20  C   UNL     1     -44.461  61.951 -57.248  1.00  0.00     0.038 A 
HETATM   21  C   UNL     1     -45.160  61.607 -56.091  1.00  0.00     0.014 A 
BRANCH  19  22
HETATM   22  O   UNL     1     -42.573  62.955 -58.306  1.00  0.00    -0.276 OA
BRANCH  22  23
HETATM   23  C   UNL     1     -41.418  62.196 -58.360  1.00  0.00     0.288 C 
HETATM   24  O   UNL     1     -40.258  62.592 -58.385  1.00  0.00    -0.260 OA
BRANCH  23  25
HETATM   25  C   UNL     1     -41.729  60.749 -58.355  1.00  0.00     0.083 C 
HETATM   26  C   UNL     1     -42.122  60.058 -59.435  1.00  0.00     0.017 C 
BRANCH  26  27
HETATM   27  C   UNL     1     -42.550  58.657 -59.365  1.00  0.00    -0.036 A 
HETATM   28  C   UNL     1     -43.640  58.328 -58.554  1.00  0.00     0.014 A 
HETATM   29  C   UNL     1     -44.075  57.004 -58.457  1.00  0.00     0.037 A 
HETATM   30  C   UNL     1     -43.439  55.991 -59.177  1.00  0.00     0.068 A 
HETATM   31  C   UNL     1     -42.362  56.315 -59.999  1.00  0.00     0.037 A 
HETATM   32  C   UNL     1     -41.922  57.642 -60.096  1.00  0.00     0.014 A 
BRANCH  30  33
HETATM   33  O   UNL     1     -43.963  54.744 -58.986  1.00  0.00    -0.356 OA
HETATM   34  C   UNL     1     -44.880  54.273 -59.966  1.00  0.00     0.210 C 
ENDBRANCH  30  33
ENDBRANCH  26  27
ENDBRANCH  23  25
ENDBRANCH  22  23
ENDBRANCH  19  22
ENDBRANCH   1  16
BRANCH   3  35
HETATM   35  O   UNL     1     -42.693  60.266 -51.419  1.00  0.00    -0.344 OA
HETATM   36  H   UNL     1     -42.659  61.131 -50.974  1.00  0.00     0.219 HD
ENDBRANCH   3  35
BRANCH  11  37
HETATM   37  C   UNL     1     -41.983  54.784 -53.108  1.00  0.00     0.273 C 
BRANCH  37  38
HETATM   38  C   UNL     1     -41.163  53.524 -53.071  1.00  0.00    -0.033 A 
HETATM   39  C   UNL     1     -40.481  53.159 -51.900  1.00  0.00     0.009 A 
HETATM   40  C   UNL     1     -39.687  52.012 -51.871  1.00  0.00     0.001 A 
HETATM   41  C   UNL     1     -39.569  51.217 -53.009  1.00  0.00     0.000 A 
HETATM   42  C   UNL     1     -40.250  51.562 -54.175  1.00  0.00     0.001 A 
HETATM   43  C   UNL     1     -41.046  52.708 -54.208  1.00  0.00     0.009 A 
ENDBRANCH  37  38
ENDBRANCH  11  37
TORSDOF 9
ENDMDL
MODEL 6
REMARK VINA RESULT:      -8.8      4.516      7.986
REMARK  9 active torsions:
REMARK  status: ('A' for Active; 'I' for Inactive)
REMARK    1  A    between atoms: O_2  and  C_3 
REMARK    2  A    between atoms: C_6  and  C_7 
REMARK    3  A    between atoms: C_8  and  C_9 
REMARK    4  A    between atoms: C_9  and  O_10 
REMARK    5  A    between atoms: O_10  and  C_11 
REMARK    6  A    between atoms: C_14  and  C_15 
REMARK    7  A    between atoms: C_17  and  O_18 
REMARK    8  A    between atoms: N_26  and  C_28 
REMARK    9  A    between atoms: C_28  and  C_29 
ROOT
HETATM    1  C   UNL     1     -41.421  59.557 -50.306  1.00  0.00     0.243 C 
HETATM    2  N   UNL     1     -40.420  59.868 -51.361  1.00  0.00    -0.235 NA
HETATM    3  C   UNL     1     -40.208  58.899 -52.178  1.00  0.00     0.173 C 
HETATM    4  C   UNL     1     -40.780  57.581 -52.062  1.00  0.00     0.057 A 
HETATM    5  C   UNL     1     -41.307  57.256 -50.834  1.00  0.00     0.087 A 
HETATM    6  S   UNL     1     -41.920  55.678 -50.768  1.00  0.00    -0.074 SA
HETATM    7  C   UNL     1     -41.586  55.439 -52.422  1.00  0.00     0.018 A 
HETATM    8  C   UNL     1     -40.959  56.529 -53.007  1.00  0.00    -0.024 A 
HETATM    9  C   UNL     1     -40.593  56.537 -54.459  1.00  0.00     0.068 C 
HETATM   10  C   UNL     1     -41.338  55.432 -55.228  1.00  0.00     0.240 C 
HETATM   11  N   UNL     1     -41.302  54.091 -54.491  1.00  0.00    -0.063 N 
HETATM   12  H   UNL     1     -41.860  53.441 -55.053  1.00  0.00     0.280 HD
HETATM   13  C   UNL     1     -41.995  54.199 -53.139  1.00  0.00     0.282 C 
HETATM   14  N   UNL     1     -41.348  58.165 -49.837  1.00  0.00    -0.357 N 
HETATM   15  H   UNL     1     -41.901  57.964 -49.011  1.00  0.00     0.162 HD
ENDROOT
BRANCH   1  16
HETATM   16  C   UNL     1     -42.860  59.872 -50.771  1.00  0.00    -0.014 A 
HETATM   17  C   UNL     1     -43.271  61.197 -51.028  1.00  0.00     0.014 A 
HETATM   18  C   UNL     1     -44.498  61.466 -51.635  1.00  0.00     0.038 A 
HETATM   19  C   UNL     1     -45.325  60.405 -51.984  1.00  0.00     0.079 A 
HETATM   20  C   UNL     1     -45.008  59.099 -51.628  1.00  0.00     0.038 A 
HETATM   21  C   UNL     1     -43.783  58.836 -51.015  1.00  0.00     0.014 A 
BRANCH  19  22
HETATM   22  O   UNL     1     -46.508  60.620 -52.688  1.00  0.00    -0.276 OA
BRANCH  22  23
HETATM   23  C   UNL     1     -46.279  61.132 -53.952  1.00  0.00     0.288 C 
HETATM   24  O   UNL     1     -46.539  62.256 -54.367  1.00  0.00    -0.260 OA
BRANCH  23  25
HETATM   25  C   UNL     1     -45.612  60.137 -54.820  1.00  0.00     0.083 C 
HETATM   26  C   UNL     1     -44.416  60.322 -55.399  1.00  0.00     0.017 C 
BRANCH  26  27
HETATM   27  C   UNL     1     -43.846  59.370 -56.359  1.00  0.00    -0.036 A 
HETATM   28  C   UNL     1     -44.588  58.235 -56.700  1.00  0.00     0.014 A 
HETATM   29  C   UNL     1     -44.078  57.302 -57.606  1.00  0.00     0.037 A 
HETATM   30  C   UNL     1     -42.829  57.495 -58.198  1.00  0.00     0.068 A 
HETATM   31  C   UNL     1     -42.091  58.634 -57.876  1.00  0.00     0.037 A 
HETATM   32  C   UNL     1     -42.600  59.569 -56.964  1.00  0.00     0.014 A 
BRANCH  30  33
HETATM   33  O   UNL     1     -42.451  56.506 -59.062  1.00  0.00    -0.356 OA
HETATM   34  C   UNL     1     -43.478  55.661 -59.564  1.00  0.00     0.210 C 
ENDBRANCH  30  33
ENDBRANCH  26  27
ENDBRANCH  23  25
ENDBRANCH  22  23
ENDBRANCH  19  22
ENDBRANCH   1  16
BRANCH   3  35
HETATM   35  O   UNL     1     -39.387  59.105 -53.224  1.00  0.00    -0.344 OA
HETATM   36  H   UNL     1     -39.253  60.067 -53.285  1.00  0.00     0.219 HD
ENDBRANCH   3  35
BRANCH  11  37
HETATM   37  C   UNL     1     -39.930  53.466 -54.370  1.00  0.00     0.273 C 
BRANCH  37  38
HETATM   38  C   UNL     1     -39.944  52.117 -53.705  1.00  0.00    -0.033 A 
HETATM   39  C   UNL     1     -39.627  51.998 -52.343  1.00  0.00     0.009 A 
HETATM   40  C   UNL     1     -39.601  50.746 -51.729  1.00  0.00     0.001 A 
HETATM   41  C   UNL     1     -39.893  49.601 -52.468  1.00  0.00     0.000 A 
HETATM   42  C   UNL     1     -40.219  49.706 -53.818  1.00  0.00     0.001 A 
HETATM   43  C   UNL     1     -40.248  50.958 -54.436  1.00  0.00     0.009 A 
ENDBRANCH  37  38
ENDBRANCH  11  37
TORSDOF 9
ENDMDL
MODEL 7
REMARK VINA RESULT:      -8.7      4.838      9.115
REMARK  9 active torsions:
REMARK  status: ('A' for Active; 'I' for Inactive)
REMARK    1  A    between atoms: O_2  and  C_3 
REMARK    2  A    between atoms: C_6  and  C_7 
REMARK    3  A    between atoms: C_8  and  C_9 
REMARK    4  A    between atoms: C_9  and  O_10 
REMARK    5  A    between atoms: O_10  and  C_11 
REMARK    6  A    between atoms: C_14  and  C_15 
REMARK    7  A    between atoms: C_17  and  O_18 
REMARK    8  A    between atoms: N_26  and  C_28 
REMARK    9  A    between atoms: C_28  and  C_29 
ROOT
HETATM    1  C   UNL     1     -43.388  60.659 -51.279  1.00  0.00     0.243 C 
HETATM    2  N   UNL     1     -41.908  60.711 -51.415  1.00  0.00    -0.235 NA
HETATM    3  C   UNL     1     -41.378  59.593 -51.765  1.00  0.00     0.173 C 
HETATM    4  C   UNL     1     -42.096  58.352 -51.919  1.00  0.00     0.057 A 
HETATM    5  C   UNL     1     -43.340  58.296 -51.337  1.00  0.00     0.087 A 
HETATM    6  S   UNL     1     -44.098  56.793 -51.526  1.00  0.00    -0.074 SA
HETATM    7  C   UNL     1     -42.813  56.224 -52.488  1.00  0.00     0.018 A 
HETATM    8  C   UNL     1     -41.787  57.148 -52.616  1.00  0.00    -0.024 A 
HETATM    9  C   UNL     1     -40.567  56.859 -53.436  1.00  0.00     0.068 C 
HETATM   10  C   UNL     1     -40.799  55.664 -54.378  1.00  0.00     0.240 C 
HETATM   11  N   UNL     1     -41.475  54.490 -53.666  1.00  0.00    -0.063 N 
HETATM   12  H   UNL     1     -41.629  53.773 -54.381  1.00  0.00     0.280 HD
HETATM   13  C   UNL     1     -42.852  54.891 -53.152  1.00  0.00     0.282 C 
HETATM   14  N   UNL     1     -43.871  59.381 -50.733  1.00  0.00    -0.357 N 
HETATM   15  H   UNL     1     -44.851  59.371 -50.476  1.00  0.00     0.162 HD
ENDROOT
BRANCH   1  16
HETATM   16  C   UNL     1     -44.096  60.949 -52.620  1.00  0.00    -0.014 A 
HETATM   17  C   UNL     1     -45.504  60.949 -52.717  1.00  0.00     0.014 A 
HETATM   18  C   UNL     1     -46.147  61.403 -53.870  1.00  0.00     0.038 A 
HETATM   19  C   UNL     1     -45.380  61.856 -54.936  1.00  0.00     0.079 A 
HETATM   20  C   UNL     1     -43.993  61.748 -54.921  1.00  0.00     0.038 A 
HETATM   21  C   UNL     1     -43.355  61.287 -53.769  1.00  0.00     0.014 A 
BRANCH  19  22
HETATM   22  O   UNL     1     -45.978  62.418 -56.062  1.00  0.00    -0.276 OA
BRANCH  22  23
HETATM   23  C   UNL     1     -46.976  61.614 -56.581  1.00  0.00     0.288 C 
HETATM   24  O   UNL     1     -48.184  61.819 -56.581  1.00  0.00    -0.260 OA
BRANCH  23  25
HETATM   25  C   UNL     1     -46.410  60.402 -57.216  1.00  0.00     0.083 C 
HETATM   26  C   UNL     1     -45.737  60.403 -58.376  1.00  0.00     0.017 C 
BRANCH  26  27
HETATM   27  C   UNL     1     -45.307  59.168 -59.042  1.00  0.00    -0.036 A 
HETATM   28  C   UNL     1     -46.191  58.086 -59.084  1.00  0.00     0.014 A 
HETATM   29  C   UNL     1     -45.818  56.891 -59.704  1.00  0.00     0.037 A 
HETATM   30  C   UNL     1     -44.564  56.763 -60.304  1.00  0.00     0.068 A 
HETATM   31  C   UNL     1     -43.684  57.844 -60.280  1.00  0.00     0.037 A 
HETATM   32  C   UNL     1     -44.056  59.042 -59.656  1.00  0.00     0.014 A 
BRANCH  30  33
HETATM   33  O   UNL     1     -44.327  55.542 -60.870  1.00  0.00    -0.356 OA
HETATM   34  C   UNL     1     -44.699  54.397 -60.113  1.00  0.00     0.210 C 
ENDBRANCH  30  33
ENDBRANCH  26  27
ENDBRANCH  23  25
ENDBRANCH  22  23
ENDBRANCH  19  22
ENDBRANCH   1  16
BRANCH   3  35
HETATM   35  O   UNL     1     -40.055  59.553 -52.003  1.00  0.00    -0.344 OA
HETATM   36  H   UNL     1     -39.758  60.477 -52.070  1.00  0.00     0.219 HD
ENDBRANCH   3  35
BRANCH  11  37
HETATM   37  C   UNL     1     -40.643  53.833 -52.588  1.00  0.00     0.273 C 
BRANCH  37  38
HETATM   38  C   UNL     1     -40.316  52.394 -52.880  1.00  0.00    -0.033 A 
HETATM   39  C   UNL     1     -39.787  51.572 -51.873  1.00  0.00     0.009 A 
HETATM   40  C   UNL     1     -39.447  50.247 -52.147  1.00  0.00     0.001 A 
HETATM   41  C   UNL     1     -39.632  49.730 -53.428  1.00  0.00     0.000 A 
HETATM   42  C   UNL     1     -40.166  50.533 -54.433  1.00  0.00     0.001 A 
HETATM   43  C   UNL     1     -40.510  51.858 -54.163  1.00  0.00     0.009 A 
ENDBRANCH  37  38
ENDBRANCH  11  37
TORSDOF 9
ENDMDL
MODEL 8
REMARK VINA RESULT:      -8.7      6.643      8.093
REMARK  9 active torsions:
REMARK  status: ('A' for Active; 'I' for Inactive)
REMARK    1  A    between atoms: O_2  and  C_3 
REMARK    2  A    between atoms: C_6  and  C_7 
REMARK    3  A    between atoms: C_8  and  C_9 
REMARK    4  A    between atoms: C_9  and  O_10 
REMARK    5  A    between atoms: O_10  and  C_11 
REMARK    6  A    between atoms: C_14  and  C_15 
REMARK    7  A    between atoms: C_17  and  O_18 
REMARK    8  A    between atoms: N_26  and  C_28 
REMARK    9  A    between atoms: C_28  and  C_29 
ROOT
HETATM    1  C   UNL     1     -43.461  59.549 -59.994  1.00  0.00     0.243 C 
HETATM    2  N   UNL     1     -43.157  58.202 -60.547  1.00  0.00    -0.235 NA
HETATM    3  C   UNL     1     -42.809  57.341 -59.658  1.00  0.00     0.173 C 
HETATM    4  C   UNL     1     -42.613  57.633 -58.259  1.00  0.00     0.057 A 
HETATM    5  C   UNL     1     -42.465  58.960 -57.933  1.00  0.00     0.087 A 
HETATM    6  S   UNL     1     -42.197  59.214 -56.280  1.00  0.00    -0.074 SA
HETATM    7  C   UNL     1     -42.382  57.551 -55.955  1.00  0.00     0.018 A 
HETATM    8  C   UNL     1     -42.588  56.800 -57.103  1.00  0.00    -0.024 A 
HETATM    9  C   UNL     1     -42.795  55.318 -57.044  1.00  0.00     0.068 C 
HETATM   10  C   UNL     1     -43.143  54.860 -55.617  1.00  0.00     0.240 C 
HETATM   11  N   UNL     1     -42.229  55.495 -54.567  1.00  0.00    -0.063 N 
HETATM   12  H   UNL     1     -42.569  55.170 -53.657  1.00  0.00     0.280 HD
HETATM   13  C   UNL     1     -42.377  57.011 -54.567  1.00  0.00     0.282 C 
HETATM   14  N   UNL     1     -42.584  59.921 -58.873  1.00  0.00    -0.357 N 
HETATM   15  H   UNL     1     -42.654  60.889 -58.581  1.00  0.00     0.162 HD
ENDROOT
BRANCH   1  16
HETATM   16  C   UNL     1     -44.937  59.669 -59.559  1.00  0.00    -0.014 A 
HETATM   17  C   UNL     1     -45.916  58.776 -60.043  1.00  0.00     0.014 A 
HETATM   18  C   UNL     1     -47.203  58.756 -59.503  1.00  0.00     0.038 A 
HETATM   19  C   UNL     1     -47.518  59.638 -58.477  1.00  0.00     0.079 A 
HETATM   20  C   UNL     1     -46.618  60.616 -58.067  1.00  0.00     0.038 A 
HETATM   21  C   UNL     1     -45.335  60.636 -58.615  1.00  0.00     0.014 A 
BRANCH  19  22
HETATM   22  O   UNL     1     -48.754  59.580 -57.835  1.00  0.00    -0.276 OA
BRANCH  22  23
HETATM   23  C   UNL     1     -49.560  60.657 -58.156  1.00  0.00     0.288 C 
HETATM   24  O   UNL     1     -49.838  61.084 -59.271  1.00  0.00    -0.260 OA
BRANCH  23  25
HETATM   25  C   UNL     1     -50.128  61.281 -56.939  1.00  0.00     0.083 C 
HETATM   26  C   UNL     1     -51.235  60.849 -56.318  1.00  0.00     0.017 C 
BRANCH  26  27
HETATM   27  C   UNL     1     -51.844  61.571 -55.195  1.00  0.00    -0.036 A 
HETATM   28  C   UNL     1     -51.102  61.734 -54.021  1.00  0.00     0.014 A 
HETATM   29  C   UNL     1     -51.648  62.410 -52.927  1.00  0.00     0.037 A 
HETATM   30  C   UNL     1     -52.936  62.947 -52.993  1.00  0.00     0.068 A 
HETATM   31  C   UNL     1     -53.674  62.802 -54.166  1.00  0.00     0.037 A 
HETATM   32  C   UNL     1     -53.130  62.120 -55.263  1.00  0.00     0.014 A 
BRANCH  30  33
HETATM   33  O   UNL     1     -53.347  63.578 -51.853  1.00  0.00    -0.356 OA
HETATM   34  C   UNL     1     -53.124  62.900 -50.623  1.00  0.00     0.210 C 
ENDBRANCH  30  33
ENDBRANCH  26  27
ENDBRANCH  23  25
ENDBRANCH  22  23
ENDBRANCH  19  22
ENDBRANCH   1  16
BRANCH   3  35
HETATM   35  O   UNL     1     -42.599  56.068 -60.039  1.00  0.00    -0.344 OA
HETATM   36  H   UNL     1     -42.525  55.543 -59.223  1.00  0.00     0.219 HD
ENDBRANCH   3  35
BRANCH  11  37
HETATM   37  C   UNL     1     -40.778  55.073 -54.645  1.00  0.00     0.273 C 
BRANCH  37  38
HETATM   38  C   UNL     1     -40.472  53.837 -53.844  1.00  0.00    -0.033 A 
HETATM   39  C   UNL     1     -40.524  53.872 -52.442  1.00  0.00     0.009 A 
HETATM   40  C   UNL     1     -40.203  52.739 -51.694  1.00  0.00     0.001 A 
HETATM   41  C   UNL     1     -39.830  51.561 -52.337  1.00  0.00     0.000 A 
HETATM   42  C   UNL     1     -39.785  51.510 -53.728  1.00  0.00     0.001 A 
HETATM   43  C   UNL     1     -40.106  52.641 -54.481  1.00  0.00     0.009 A 
ENDBRANCH  37  38
ENDBRANCH  11  37
TORSDOF 9
ENDMDL
MODEL 9
REMARK VINA RESULT:      -8.6      5.747     10.617
REMARK  9 active torsions:
REMARK  status: ('A' for Active; 'I' for Inactive)
REMARK    1  A    between atoms: O_2  and  C_3 
REMARK    2  A    between atoms: C_6  and  C_7 
REMARK    3  A    between atoms: C_8  and  C_9 
REMARK    4  A    between atoms: C_9  and  O_10 
REMARK    5  A    between atoms: O_10  and  C_11 
REMARK    6  A    between atoms: C_14  and  C_15 
REMARK    7  A    between atoms: C_17  and  O_18 
REMARK    8  A    between atoms: N_26  and  C_28 
REMARK    9  A    between atoms: C_28  and  C_29 
ROOT
HETATM    1  C   UNL     1     -44.033  55.331 -54.359  1.00  0.00     0.243 C 
HETATM    2  N   UNL     1     -43.177  55.089 -55.551  1.00  0.00    -0.235 NA
HETATM    3  C   UNL     1     -42.969  56.139 -56.263  1.00  0.00     0.173 C 
HETATM    4  C   UNL     1     -43.573  57.428 -56.030  1.00  0.00     0.057 A 
HETATM    5  C   UNL     1     -44.678  57.439 -55.213  1.00  0.00     0.087 A 
HETATM    6  S   UNL     1     -45.352  58.982 -55.024  1.00  0.00    -0.074 SA
HETATM    7  C   UNL     1     -44.107  59.681 -55.953  1.00  0.00     0.018 A 
HETATM    8  C   UNL     1     -43.217  58.742 -56.452  1.00  0.00    -0.024 A 
HETATM    9  C   UNL     1     -42.034  59.143 -57.279  1.00  0.00     0.068 C 
HETATM   10  C   UNL     1     -41.742  60.647 -57.141  1.00  0.00     0.240 C 
HETATM   11  N   UNL     1     -43.011  61.495 -57.253  1.00  0.00    -0.063 N 
HETATM   12  H   UNL     1     -42.721  62.465 -57.101  1.00  0.00     0.280 HD
HETATM   13  C   UNL     1     -43.988  61.155 -56.135  1.00  0.00     0.282 C 
HETATM   14  N   UNL     1     -45.104  56.309 -54.609  1.00  0.00    -0.357 N 
HETATM   15  H   UNL     1     -45.799  56.376 -53.874  1.00  0.00     0.162 HD
ENDROOT
BRANCH   1  16
HETATM   16  C   UNL     1     -43.201  55.776 -53.137  1.00  0.00    -0.014 A 
HETATM   17  C   UNL     1     -43.821  56.288 -51.978  1.00  0.00     0.014 A 
HETATM   18  C   UNL     1     -43.094  56.503 -50.806  1.00  0.00     0.038 A 
HETATM   19  C   UNL     1     -41.736  56.209 -50.791  1.00  0.00     0.079 A 
HETATM   20  C   UNL     1     -41.071  55.826 -51.952  1.00  0.00     0.038 A 
HETATM   21  C   UNL     1     -41.801  55.620 -53.122  1.00  0.00     0.014 A 
BRANCH  19  22
HETATM   22  O   UNL     1     -40.994  56.305 -49.616  1.00  0.00    -0.276 OA
BRANCH  22  23
HETATM   23  C   UNL     1     -41.034  55.136 -48.876  1.00  0.00     0.288 C 
HETATM   24  O   UNL     1     -41.131  55.020 -47.659  1.00  0.00    -0.260 OA
BRANCH  23  25
HETATM   25  C   UNL     1     -40.977  53.946 -49.752  1.00  0.00     0.083 C 
HETATM   26  C   UNL     1     -39.916  53.131 -49.849  1.00  0.00     0.017 C 
BRANCH  26  27
HETATM   27  C   UNL     1     -39.843  52.039 -50.826  1.00  0.00    -0.036 A 
HETATM   28  C   UNL     1     -39.648  52.356 -52.174  1.00  0.00     0.014 A 
HETATM   29  C   UNL     1     -39.579  51.345 -53.135  1.00  0.00     0.037 A 
HETATM   30  C   UNL     1     -39.688  50.003 -52.766  1.00  0.00     0.068 A 
HETATM   31  C   UNL     1     -39.866  49.680 -51.422  1.00  0.00     0.037 A 
HETATM   32  C   UNL     1     -39.939  50.693 -50.456  1.00  0.00     0.014 A 
BRANCH  30  33
HETATM   33  O   UNL     1     -39.606  49.120 -53.805  1.00  0.00    -0.356 OA
HETATM   34  C   UNL     1     -39.810  49.641 -55.113  1.00  0.00     0.210 C 
ENDBRANCH  30  33
ENDBRANCH  26  27
ENDBRANCH  23  25
ENDBRANCH  22  23
ENDBRANCH  19  22
ENDBRANCH   1  16
BRANCH   3  35
HETATM   35  O   UNL     1     -42.135  56.050 -57.315  1.00  0.00    -0.344 OA
HETATM   36  H   UNL     1     -41.736  55.163 -57.277  1.00  0.00     0.219 HD
ENDBRANCH   3  35
BRANCH  11  37
HETATM   37  C   UNL     1     -43.679  61.467 -58.609  1.00  0.00     0.273 C 
BRANCH  37  38
HETATM   38  C   UNL     1     -42.731  61.723 -59.748  1.00  0.00    -0.033 A 
HETATM   39  C   UNL     1     -42.048  62.947 -59.837  1.00  0.00     0.009 A 
HETATM   40  C   UNL     1     -41.196  63.205 -60.912  1.00  0.00     0.001 A 
HETATM   41  C   UNL     1     -41.016  62.245 -61.905  1.00  0.00     0.000 A 
HETATM   42  C   UNL     1     -41.680  61.023 -61.823  1.00  0.00     0.001 A 
HETATM   43  C   UNL     1     -42.532  60.759 -60.749  1.00  0.00     0.009 A 
ENDBRANCH  37  38
ENDBRANCH  11  37
TORSDOF 9
ENDMDL
MODEL 10
REMARK VINA RESULT:      -8.6      5.788      7.474
REMARK  9 active torsions:
REMARK  status: ('A' for Active; 'I' for Inactive)
REMARK    1  A    between atoms: O_2  and  C_3 
REMARK    2  A    between atoms: C_6  and  C_7 
REMARK    3  A    between atoms: C_8  and  C_9 
REMARK    4  A    between atoms: C_9  and  O_10 
REMARK    5  A    between atoms: O_10  and  C_11 
REMARK    6  A    between atoms: C_14  and  C_15 
REMARK    7  A    between atoms: C_17  and  O_18 
REMARK    8  A    between atoms: N_26  and  C_28 
REMARK    9  A    between atoms: C_28  and  C_29 
ROOT
HETATM    1  C   UNL     1     -44.771  56.894 -60.720  1.00  0.00     0.243 C 
HETATM    2  N   UNL     1     -45.054  55.450 -60.503  1.00  0.00    -0.235 NA
HETATM    3  C   UNL     1     -44.492  54.962 -59.455  1.00  0.00     0.173 C 
HETATM    4  C   UNL     1     -43.579  55.678 -58.599  1.00  0.00     0.057 A 
HETATM    5  C   UNL     1     -43.028  56.823 -59.124  1.00  0.00     0.087 A 
HETATM    6  S   UNL     1     -41.936  57.580 -58.074  1.00  0.00    -0.074 SA
HETATM    7  C   UNL     1     -42.264  56.441 -56.851  1.00  0.00     0.018 A 
HETATM    8  C   UNL     1     -43.153  55.457 -57.257  1.00  0.00    -0.024 A 
HETATM    9  C   UNL     1     -43.594  54.366 -56.329  1.00  0.00     0.068 C 
HETATM   10  C   UNL     1     -43.277  54.717 -54.866  1.00  0.00     0.240 C 
HETATM   11  N   UNL     1     -41.858  55.266 -54.697  1.00  0.00    -0.063 N 
HETATM   12  H   UNL     1     -41.762  55.513 -53.707  1.00  0.00     0.280 HD
HETATM   13  C   UNL     1     -41.682  56.559 -55.484  1.00  0.00     0.282 C 
HETATM   14  N   UNL     1     -43.401  57.274 -60.341  1.00  0.00    -0.357 N 
HETATM   15  H   UNL     1     -43.124  58.207 -60.626  1.00  0.00     0.162 HD
ENDROOT
BRANCH   1  16
HETATM   16  C   UNL     1     -45.783  57.794 -59.979  1.00  0.00    -0.014 A 
HETATM   17  C   UNL     1     -46.544  57.300 -58.898  1.00  0.00     0.014 A 
HETATM   18  C   UNL     1     -47.308  58.157 -58.104  1.00  0.00     0.038 A 
HETATM   19  C   UNL     1     -47.316  59.516 -58.392  1.00  0.00     0.079 A 
HETATM   20  C   UNL     1     -46.681  60.015 -59.525  1.00  0.00     0.038 A 
HETATM   21  C   UNL     1     -45.925  59.153 -60.320  1.00  0.00     0.014 A 
BRANCH  19  22
HETATM   22  O   UNL     1     -47.975  60.421 -57.562  1.00  0.00    -0.276 OA
BRANCH  22  23
HETATM   23  C   UNL     1     -47.119  61.380 -57.049  1.00  0.00     0.288 C 
HETATM   24  O   UNL     1     -46.982  62.540 -57.419  1.00  0.00    -0.260 OA
BRANCH  23  25
HETATM   25  C   UNL     1     -46.345  60.848 -55.906  1.00  0.00     0.083 C 
HETATM   26  C   UNL     1     -45.119  60.314 -56.008  1.00  0.00     0.017 C 
BRANCH  26  27
HETATM   27  C   UNL     1     -44.437  59.676 -54.877  1.00  0.00    -0.036 A 
HETATM   28  C   UNL     1     -44.984  58.508 -54.335  1.00  0.00     0.014 A 
HETATM   29  C   UNL     1     -44.367  57.874 -53.254  1.00  0.00     0.037 A 
HETATM   30  C   UNL     1     -43.189  58.385 -52.706  1.00  0.00     0.068 A 
HETATM   31  C   UNL     1     -42.630  59.540 -53.252  1.00  0.00     0.037 A 
HETATM   32  C   UNL     1     -43.249  60.180 -54.334  1.00  0.00     0.014 A 
BRANCH  30  33
HETATM   33  O   UNL     1     -42.696  57.669 -51.652  1.00  0.00    -0.356 OA
HETATM   34  C   UNL     1     -43.236  56.370 -51.445  1.00  0.00     0.210 C 
ENDBRANCH  30  33
ENDBRANCH  26  27
ENDBRANCH  23  25
ENDBRANCH  22  23
ENDBRANCH  19  22
ENDBRANCH   1  16
BRANCH   3  35
HETATM   35  O   UNL     1     -44.756  53.687 -59.116  1.00  0.00    -0.344 OA
HETATM   36  H   UNL     1     -45.486  53.717 -58.473  1.00  0.00     0.219 HD
ENDBRANCH   3  35
BRANCH  11  37
HETATM   37  C   UNL     1     -40.752  54.277 -54.989  1.00  0.00     0.273 C 
BRANCH  37  38
HETATM   38  C   UNL     1     -40.428  53.383 -53.824  1.00  0.00    -0.033 A 
HETATM   39  C   UNL     1     -40.581  53.851 -52.510  1.00  0.00     0.009 A 
HETATM   40  C   UNL     1     -40.245  53.040 -51.426  1.00  0.00     0.001 A 
HETATM   41  C   UNL     1     -39.756  51.754 -51.642  1.00  0.00     0.000 A 
HETATM   42  C   UNL     1     -39.609  51.273 -52.942  1.00  0.00     0.001 A 
HETATM   43  C   UNL     1     -39.945  52.080 -54.029  1.00  0.00     0.009 A 
ENDBRANCH  37  38
ENDBRANCH  11  37
TORSDOF 9
ENDMDL
