MODEL 1
REMARK VINA RESULT:      -8.5      0.000      0.000
REMARK  6 active torsions:
REMARK  status: ('A' for Active; 'I' for Inactive)
REMARK    1  A    between atoms: C_6  and  C_7 
REMARK    2  A    between atoms: C_7  and  N_8 
REMARK       I    between atoms: N_8  and  C_9 
REMARK    3  A    between atoms: N_8  and  C_19 
REMARK    4  A    between atoms: C_9  and  C_10 
REMARK    5  A    between atoms: C_12  and  O_13 
REMARK    6  A    between atoms: C_19  and  C_20 
ROOT
HETATM    1  N   UNL     1     -41.856  55.290 -54.595  1.00  0.00    -0.341 N 
HETATM    2  C   UNL     1     -40.575  54.731 -54.560  1.00  0.00     0.254 C 
HETATM    3  O   UNL     1     -39.602  55.257 -55.101  1.00  0.00    -0.267 OA
ENDROOT
BRANCH   1   4
HETATM    4  C   UNL     1     -41.994  56.595 -55.256  1.00  0.00     0.170 C 
BRANCH   4   5
HETATM    5  C   UNL     1     -42.902  56.570 -56.454  1.00  0.00     0.029 A 
HETATM    6  C   UNL     1     -42.843  55.746 -57.515  1.00  0.00     0.028 A 
HETATM    7  C   UNL     1     -43.833  55.819 -58.591  1.00  0.00    -0.008 A 
HETATM    8  C   UNL     1     -44.866  56.765 -58.515  1.00  0.00     0.051 A 
HETATM    9  C   UNL     1     -43.772  54.949 -59.682  1.00  0.00     0.014 A 
HETATM   10  C   UNL     1     -45.842  56.852 -59.522  1.00  0.00    -0.034 A 
HETATM   11  N   UNL     1     -44.899  57.624 -57.408  1.00  0.00    -0.322 N 
HETATM   12  C   UNL     1     -46.967  57.845 -59.462  1.00  0.00     0.050 C 
HETATM   13  C   UNL     1     -45.762  55.968 -60.609  1.00  0.00     0.009 A 
HETATM   14  C   UNL     1     -44.735  55.025 -60.688  1.00  0.00     0.002 A 
HETATM   15  C   UNL     1     -43.989  57.597 -56.389  1.00  0.00     0.253 A 
HETATM   16  H   UNL     1     -45.623  58.322 -57.320  1.00  0.00     0.169 HD
HETATM   17  O   UNL     1     -44.065  58.396 -55.458  1.00  0.00    -0.268 OA
ENDBRANCH   4   5
ENDBRANCH   1   4
BRANCH   1  18
HETATM   18  C   UNL     1     -43.092  54.612 -54.170  1.00  0.00     0.158 C 
BRANCH  18  19
HETATM   19  C   UNL     1     -43.650  55.057 -52.808  1.00  0.00     0.139 C 
HETATM   20  O   UNL     1     -42.880  56.177 -52.316  1.00  0.00    -0.384 OA
HETATM   21  C   UNL     1     -42.604  55.959 -50.924  1.00  0.00     0.168 C 
HETATM   22  C   UNL     1     -43.514  54.839 -50.474  1.00  0.00     0.029 C 
HETATM   23  C   UNL     1     -43.595  53.995 -51.720  1.00  0.00     0.035 C 
ENDBRANCH  18  19
ENDBRANCH   1  18
BRANCH   2  24
HETATM   24  C   UNL     1     -40.323  53.452 -53.857  1.00  0.00     0.034 A 
HETATM   25  C   UNL     1     -40.271  53.476 -52.455  1.00  0.00     0.053 A 
HETATM   26  C   UNL     1     -40.087  52.291 -51.744  1.00  0.00     0.069 A 
HETATM   27  C   UNL     1     -39.938  51.088 -52.441  1.00  0.00     0.037 A 
HETATM   28  C   UNL     1     -40.025  51.056 -53.835  1.00  0.00     0.004 A 
HETATM   29  C   UNL     1     -40.242  52.236 -54.544  1.00  0.00     0.017 A 
BRANCH  26  30
HETATM   30  O   UNL     1     -40.025  52.180 -50.382  1.00  0.00    -0.356 OA
HETATM   31  C   UNL     1     -40.259  53.375 -49.642  1.00  0.00     0.210 C 
ENDBRANCH  26  30
ENDBRANCH   2  24
TORSDOF 6
ENDMDL
MODEL 2
REMARK VINA RESULT:      -8.5      2.474      3.358
REMARK  6 active torsions:
REMARK  status: ('A' for Active; 'I' for Inactive)
REMARK    1  A    between atoms: C_6  and  C_7 
REMARK    2  A    between atoms: C_7  and  N_8 
REMARK       I    between atoms: N_8  and  C_9 
REMARK    3  A    between atoms: N_8  and  C_19 
REMARK    4  A    between atoms: C_9  and  C_10 
REMARK    5  A    between atoms: C_12  and  O_13 
REMARK    6  A    between atoms: C_19  and  C_20 
ROOT
HETATM    1  N   UNL     1     -42.105  56.225 -53.241  1.00  0.00    -0.341 N 
HETATM    2  C   UNL     1     -42.505  54.897 -53.061  1.00  0.00     0.254 C 
HETATM    3  O   UNL     1     -43.640  54.501 -53.325  1.00  0.00    -0.267 OA
ENDROOT
BRANCH   1   4
HETATM    4  C   UNL     1     -43.088  57.141 -53.836  1.00  0.00     0.170 C 
BRANCH   4   5
HETATM    5  C   UNL     1     -42.872  57.385 -55.303  1.00  0.00     0.029 A 
HETATM    6  C   UNL     1     -42.989  56.502 -56.311  1.00  0.00     0.028 A 
HETATM    7  C   UNL     1     -42.786  56.906 -57.704  1.00  0.00    -0.008 A 
HETATM    8  C   UNL     1     -42.465  58.240 -57.995  1.00  0.00     0.051 A 
HETATM    9  C   UNL     1     -42.923  55.986 -58.745  1.00  0.00     0.014 A 
HETATM   10  C   UNL     1     -42.278  58.666 -59.322  1.00  0.00    -0.034 A 
HETATM   11  N   UNL     1     -42.333  59.140 -56.928  1.00  0.00    -0.322 N 
HETATM   12  C   UNL     1     -41.947  60.090 -59.665  1.00  0.00     0.050 C 
HETATM   13  C   UNL     1     -42.423  57.725 -60.352  1.00  0.00     0.009 A 
HETATM   14  C   UNL     1     -42.741  56.396 -60.066  1.00  0.00     0.002 A 
HETATM   15  C   UNL     1     -42.503  58.802 -55.615  1.00  0.00     0.253 A 
HETATM   16  H   UNL     1     -42.097  60.106 -57.097  1.00  0.00     0.169 HD
HETATM   17  O   UNL     1     -42.349  59.637 -54.726  1.00  0.00    -0.268 OA
ENDBRANCH   4   5
ENDBRANCH   1   4
BRANCH   1  18
HETATM   18  C   UNL     1     -40.849  56.811 -52.741  1.00  0.00     0.158 C 
BRANCH  18  19
HETATM   19  C   UNL     1     -41.000  58.141 -51.987  1.00  0.00     0.139 C 
HETATM   20  O   UNL     1     -39.816  58.944 -52.187  1.00  0.00    -0.384 OA
HETATM   21  C   UNL     1     -39.431  59.507 -50.923  1.00  0.00     0.168 C 
HETATM   22  C   UNL     1     -40.605  59.312 -49.990  1.00  0.00     0.029 C 
HETATM   23  C   UNL     1     -41.168  58.003 -50.481  1.00  0.00     0.035 C 
ENDBRANCH  18  19
ENDBRANCH   1  18
BRANCH   2  24
HETATM   24  C   UNL     1     -41.562  53.885 -52.532  1.00  0.00     0.034 A 
HETATM   25  C   UNL     1     -40.909  53.055 -53.455  1.00  0.00     0.053 A 
HETATM   26  C   UNL     1     -39.973  52.120 -53.012  1.00  0.00     0.069 A 
HETATM   27  C   UNL     1     -39.710  52.009 -51.644  1.00  0.00     0.037 A 
HETATM   28  C   UNL     1     -40.333  52.857 -50.726  1.00  0.00     0.004 A 
HETATM   29  C   UNL     1     -41.243  53.814 -51.172  1.00  0.00     0.017 A 
BRANCH  26  30
HETATM   30  O   UNL     1     -39.267  51.261 -53.809  1.00  0.00    -0.356 OA
HETATM   31  C   UNL     1     -39.982  50.137 -54.312  1.00  0.00     0.210 C 
ENDBRANCH  26  30
ENDBRANCH   2  24
TORSDOF 6
ENDMDL
MODEL 3
REMARK VINA RESULT:      -8.4      2.561      3.236
REMARK  6 active torsions:
REMARK  status: ('A' for Active; 'I' for Inactive)
REMARK    1  A    between atoms: C_6  and  C_7 
REMARK    2  A    between atoms: C_7  and  N_8 
REMARK       I    between atoms: N_8  and  C_9 
REMARK    3  A    between atoms: N_8  and  C_19 
REMARK    4  A    between atoms: C_9  and  C_10 
REMARK    5  A    between atoms: C_12  and  O_13 
REMARK    6  A    between atoms: C_19  and  C_20 
ROOT
HETATM    1  N   UNL     1     -41.829  56.978 -53.425  1.00  0.00    -0.341 N 
HETATM    2  C   UNL     1     -42.296  55.748 -52.950  1.00  0.00     0.254 C 
HETATM    3  O   UNL     1     -43.478  55.413 -53.017  1.00  0.00    -0.267 OA
ENDROOT
BRANCH   1   4
HETATM    4  C   UNL     1     -42.808  57.850 -54.088  1.00  0.00     0.170 C 
BRANCH   4   5
HETATM    5  C   UNL     1     -42.778  57.758 -55.588  1.00  0.00     0.029 A 
HETATM    6  C   UNL     1     -43.206  56.742 -56.359  1.00  0.00     0.028 A 
HETATM    7  C   UNL     1     -43.149  56.820 -57.820  1.00  0.00    -0.008 A 
HETATM    8  C   UNL     1     -42.639  57.976 -58.430  1.00  0.00     0.051 A 
HETATM    9  C   UNL     1     -43.608  55.767 -58.614  1.00  0.00     0.014 A 
HETATM   10  C   UNL     1     -42.584  58.091 -59.830  1.00  0.00    -0.034 A 
HETATM   11  N   UNL     1     -42.185  59.016 -57.606  1.00  0.00    -0.322 N 
HETATM   12  C   UNL     1     -42.057  59.322 -60.510  1.00  0.00     0.050 C 
HETATM   13  C   UNL     1     -43.052  57.021 -60.607  1.00  0.00     0.009 A 
HETATM   14  C   UNL     1     -43.559  55.868 -60.004  1.00  0.00     0.002 A 
HETATM   15  C   UNL     1     -42.211  58.979 -56.241  1.00  0.00     0.253 A 
HETATM   16  H   UNL     1     -41.807  59.861 -58.007  1.00  0.00     0.169 HD
HETATM   17  O   UNL     1     -41.774  59.918 -55.578  1.00  0.00    -0.268 OA
ENDBRANCH   4   5
ENDBRANCH   1   4
BRANCH   1  18
HETATM   18  C   UNL     1     -40.487  57.532 -53.177  1.00  0.00     0.158 C 
BRANCH  18  19
HETATM   19  C   UNL     1     -40.451  58.804 -52.315  1.00  0.00     0.139 C 
HETATM   20  O   UNL     1     -39.078  59.194 -52.090  1.00  0.00    -0.384 OA
HETATM   21  C   UNL     1     -38.928  59.544 -50.706  1.00  0.00     0.168 C 
HETATM   22  C   UNL     1     -40.324  59.692 -50.145  1.00  0.00     0.029 C 
HETATM   23  C   UNL     1     -41.080  58.657 -50.937  1.00  0.00     0.035 C 
ENDBRANCH  18  19
ENDBRANCH   1  18
BRANCH   2  24
HETATM   24  C   UNL     1     -41.370  54.773 -52.329  1.00  0.00     0.034 A 
HETATM   25  C   UNL     1     -40.945  55.020 -51.015  1.00  0.00     0.053 A 
HETATM   26  C   UNL     1     -40.114  54.106 -50.368  1.00  0.00     0.069 A 
HETATM   27  C   UNL     1     -39.698  52.957 -51.046  1.00  0.00     0.037 A 
HETATM   28  C   UNL     1     -40.148  52.691 -52.341  1.00  0.00     0.004 A 
HETATM   29  C   UNL     1     -41.005  53.588 -52.977  1.00  0.00     0.017 A 
BRANCH  26  30
HETATM   30  O   UNL     1     -39.638  54.227 -49.091  1.00  0.00    -0.356 OA
HETATM   31  C   UNL     1     -40.519  53.820 -48.049  1.00  0.00     0.210 C 
ENDBRANCH  26  30
ENDBRANCH   2  24
TORSDOF 6
ENDMDL
MODEL 4
REMARK VINA RESULT:      -8.3      2.334      7.477
REMARK  6 active torsions:
REMARK  status: ('A' for Active; 'I' for Inactive)
REMARK    1  A    between atoms: C_6  and  C_7 
REMARK    2  A    between atoms: C_7  and  N_8 
REMARK       I    between atoms: N_8  and  C_9 
REMARK    3  A    between atoms: N_8  and  C_19 
REMARK    4  A    between atoms: C_9  and  C_10 
REMARK    5  A    between atoms: C_12  and  O_13 
REMARK    6  A    between atoms: C_19  and  C_20 
ROOT
HETATM    1  N   UNL     1     -42.149  56.728 -52.600  1.00  0.00    -0.341 N 
HETATM    2  C   UNL     1     -41.525  57.383 -53.667  1.00  0.00     0.254 C 
HETATM    3  O   UNL     1     -40.304  57.525 -53.739  1.00  0.00    -0.267 OA
ENDROOT
BRANCH   1   4
HETATM    4  C   UNL     1     -41.275  56.140 -51.577  1.00  0.00     0.170 C 
BRANCH   4   5
HETATM    5  C   UNL     1     -40.924  54.702 -51.838  1.00  0.00     0.029 A 
HETATM    6  C   UNL     1     -40.875  54.069 -53.024  1.00  0.00     0.028 A 
HETATM    7  C   UNL     1     -40.471  52.665 -53.121  1.00  0.00    -0.008 A 
HETATM    8  C   UNL     1     -40.126  51.965 -51.955  1.00  0.00     0.051 A 
HETATM    9  C   UNL     1     -40.410  52.019 -54.358  1.00  0.00     0.014 A 
HETATM   10  C   UNL     1     -39.718  50.621 -52.013  1.00  0.00    -0.034 A 
HETATM   11  N   UNL     1     -40.198  52.640 -50.729  1.00  0.00    -0.322 N 
HETATM   12  C   UNL     1     -39.330  49.850 -50.785  1.00  0.00     0.050 C 
HETATM   13  C   UNL     1     -39.663  49.992 -53.267  1.00  0.00     0.009 A 
HETATM   14  C   UNL     1     -40.007  50.686 -54.429  1.00  0.00     0.002 A 
HETATM   15  C   UNL     1     -40.580  53.945 -50.594  1.00  0.00     0.253 A 
HETATM   16  H   UNL     1     -39.963  52.169 -49.868  1.00  0.00     0.169 HD
HETATM   17  O   UNL     1     -40.644  54.469 -49.484  1.00  0.00    -0.268 OA
ENDBRANCH   4   5
ENDBRANCH   1   4
BRANCH   1  18
HETATM   18  C   UNL     1     -43.599  56.718 -52.338  1.00  0.00     0.158 C 
BRANCH  18  19
HETATM   19  C   UNL     1     -44.064  57.623 -51.187  1.00  0.00     0.139 C 
HETATM   20  O   UNL     1     -45.505  57.575 -51.090  1.00  0.00    -0.384 OA
HETATM   21  C   UNL     1     -45.992  58.914 -50.911  1.00  0.00     0.168 C 
HETATM   22  C   UNL     1     -44.793  59.765 -50.554  1.00  0.00     0.029 C 
HETATM   23  C   UNL     1     -43.699  59.092 -51.344  1.00  0.00     0.035 C 
ENDBRANCH  18  19
ENDBRANCH   1  18
BRANCH   2  24
HETATM   24  C   UNL     1     -42.320  57.947 -54.782  1.00  0.00     0.034 A 
HETATM   25  C   UNL     1     -42.711  57.078 -55.811  1.00  0.00     0.053 A 
HETATM   26  C   UNL     1     -43.503  57.550 -56.857  1.00  0.00     0.069 A 
HETATM   27  C   UNL     1     -43.885  58.893 -56.877  1.00  0.00     0.037 A 
HETATM   28  C   UNL     1     -43.527  59.753 -55.836  1.00  0.00     0.004 A 
HETATM   29  C   UNL     1     -42.763  59.274 -54.773  1.00  0.00     0.017 A 
BRANCH  26  30
HETATM   30  O   UNL     1     -43.955  56.805 -57.913  1.00  0.00    -0.356 OA
HETATM   31  C   UNL     1     -43.156  55.684 -58.279  1.00  0.00     0.210 C 
ENDBRANCH  26  30
ENDBRANCH   2  24
TORSDOF 6
ENDMDL
MODEL 5
REMARK VINA RESULT:      -8.3      3.121      7.821
REMARK  6 active torsions:
REMARK  status: ('A' for Active; 'I' for Inactive)
REMARK    1  A    between atoms: C_6  and  C_7 
REMARK    2  A    between atoms: C_7  and  N_8 
REMARK       I    between atoms: N_8  and  C_9 
REMARK    3  A    between atoms: N_8  and  C_19 
REMARK    4  A    between atoms: C_9  and  C_10 
REMARK    5  A    between atoms: C_12  and  O_13 
REMARK    6  A    between atoms: C_19  and  C_20 
ROOT
HETATM    1  N   UNL     1     -41.813  56.756 -52.055  1.00  0.00    -0.341 N 
HETATM    2  C   UNL     1     -43.160  56.486 -52.316  1.00  0.00     0.254 C 
HETATM    3  O   UNL     1     -43.785  55.594 -51.743  1.00  0.00    -0.267 OA
ENDROOT
BRANCH   1   4
HETATM    4  C   UNL     1     -41.169  55.966 -50.996  1.00  0.00     0.170 C 
BRANCH   4   5
HETATM    5  C   UNL     1     -40.834  54.561 -51.412  1.00  0.00     0.029 A 
HETATM    6  C   UNL     1     -40.771  54.064 -52.661  1.00  0.00     0.028 A 
HETATM    7  C   UNL     1     -40.385  52.674 -52.908  1.00  0.00    -0.008 A 
HETATM    8  C   UNL     1     -40.073  51.842 -51.823  1.00  0.00     0.051 A 
HETATM    9  C   UNL     1     -40.309  52.171 -54.208  1.00  0.00     0.014 A 
HETATM   10  C   UNL     1     -39.684  50.506 -52.024  1.00  0.00    -0.034 A 
HETATM   11  N   UNL     1     -40.160  52.376 -50.529  1.00  0.00    -0.322 N 
HETATM   12  C   UNL     1     -39.331  49.596 -50.884  1.00  0.00     0.050 C 
HETATM   13  C   UNL     1     -39.613  50.022 -53.340  1.00  0.00     0.009 A 
HETATM   14  C   UNL     1     -39.924  50.847 -54.422  1.00  0.00     0.002 A 
HETATM   15  C   UNL     1     -40.526  53.663 -50.255  1.00  0.00     0.253 A 
HETATM   16  H   UNL     1     -39.949  51.807 -49.723  1.00  0.00     0.169 HD
HETATM   17  O   UNL     1     -40.604  54.060 -49.094  1.00  0.00    -0.268 OA
ENDBRANCH   4   5
ENDBRANCH   1   4
BRANCH   1  18
HETATM   18  C   UNL     1     -40.952  57.646 -52.852  1.00  0.00     0.158 C 
BRANCH  18  19
HETATM   19  C   UNL     1     -40.634  59.004 -52.206  1.00  0.00     0.139 C 
HETATM   20  O   UNL     1     -39.221  59.080 -51.919  1.00  0.00    -0.384 OA
HETATM   21  C   UNL     1     -39.055  59.625 -50.601  1.00  0.00     0.168 C 
HETATM   22  C   UNL     1     -40.393  60.209 -50.205  1.00  0.00     0.029 C 
HETATM   23  C   UNL     1     -41.349  59.264 -50.888  1.00  0.00     0.035 C 
ENDBRANCH  18  19
ENDBRANCH   1  18
BRANCH   2  24
HETATM   24  C   UNL     1     -43.913  57.277 -53.317  1.00  0.00     0.034 A 
HETATM   25  C   UNL     1     -44.516  58.468 -52.889  1.00  0.00     0.053 A 
HETATM   26  C   UNL     1     -45.193  59.274 -53.803  1.00  0.00     0.069 A 
HETATM   27  C   UNL     1     -45.278  58.874 -55.139  1.00  0.00     0.037 A 
HETATM   28  C   UNL     1     -44.649  57.706 -55.576  1.00  0.00     0.004 A 
HETATM   29  C   UNL     1     -43.944  56.917 -54.669  1.00  0.00     0.017 A 
BRANCH  26  30
HETATM   30  O   UNL     1     -45.815  60.458 -53.514  1.00  0.00    -0.356 OA
HETATM   31  C   UNL     1     -44.999  61.625 -53.554  1.00  0.00     0.210 C 
ENDBRANCH  26  30
ENDBRANCH   2  24
TORSDOF 6
ENDMDL
MODEL 6
REMARK VINA RESULT:      -8.2      3.040      3.632
REMARK  6 active torsions:
REMARK  status: ('A' for Active; 'I' for Inactive)
REMARK    1  A    between atoms: C_6  and  C_7 
REMARK    2  A    between atoms: C_7  and  N_8 
REMARK       I    between atoms: N_8  and  C_9 
REMARK    3  A    between atoms: N_8  and  C_19 
REMARK    4  A    between atoms: C_9  and  C_10 
REMARK    5  A    between atoms: C_12  and  O_13 
REMARK    6  A    between atoms: C_19  and  C_20 
ROOT
HETATM    1  N   UNL     1     -42.020  56.926 -54.073  1.00  0.00    -0.341 N 
HETATM    2  C   UNL     1     -42.503  55.614 -54.084  1.00  0.00     0.254 C 
HETATM    3  O   UNL     1     -43.666  55.334 -54.377  1.00  0.00    -0.267 OA
ENDROOT
BRANCH   1   4
HETATM    4  C   UNL     1     -42.949  57.981 -54.501  1.00  0.00     0.170 C 
BRANCH   4   5
HETATM    5  C   UNL     1     -42.620  58.563 -55.848  1.00  0.00     0.029 A 
HETATM    6  C   UNL     1     -42.588  57.928 -57.033  1.00  0.00     0.028 A 
HETATM    7  C   UNL     1     -42.290  58.647 -58.274  1.00  0.00    -0.008 A 
HETATM    8  C   UNL     1     -42.035  60.026 -58.227  1.00  0.00     0.051 A 
HETATM    9  C   UNL     1     -42.273  57.983 -59.502  1.00  0.00     0.014 A 
HETATM   10  C   UNL     1     -41.762  60.750 -59.400  1.00  0.00    -0.034 A 
HETATM   11  N   UNL     1     -42.060  60.664 -56.979  1.00  0.00    -0.322 N 
HETATM   12  C   UNL     1     -41.498  62.228 -59.383  1.00  0.00     0.050 C 
HETATM   13  C   UNL     1     -41.750  60.062 -60.623  1.00  0.00     0.009 A 
HETATM   14  C   UNL     1     -42.002  58.690 -60.673  1.00  0.00     0.002 A 
HETATM   15  C   UNL     1     -42.322  60.029 -55.798  1.00  0.00     0.253 A 
HETATM   16  H   UNL     1     -41.875  61.653 -56.904  1.00  0.00     0.169 HD
HETATM   17  O   UNL     1     -42.304  60.646 -54.735  1.00  0.00    -0.268 OA
ENDBRANCH   4   5
ENDBRANCH   1   4
BRANCH   1  18
HETATM   18  C   UNL     1     -40.721  57.351 -53.522  1.00  0.00     0.158 C 
BRANCH  18  19
HETATM   19  C   UNL     1     -40.783  58.505 -52.510  1.00  0.00     0.139 C 
HETATM   20  O   UNL     1     -39.484  59.127 -52.410  1.00  0.00    -0.384 OA
HETATM   21  C   UNL     1     -39.192  59.349 -51.022  1.00  0.00     0.168 C 
HETATM   22  C   UNL     1     -40.493  59.162 -50.274  1.00  0.00     0.029 C 
HETATM   23  C   UNL     1     -41.163  58.091 -51.096  1.00  0.00     0.035 C 
ENDBRANCH  18  19
ENDBRANCH   1  18
BRANCH   2  24
HETATM   24  C   UNL     1     -41.621  54.477 -53.736  1.00  0.00     0.034 A 
HETATM   25  C   UNL     1     -41.551  54.094 -52.388  1.00  0.00     0.053 A 
HETATM   26  C   UNL     1     -40.774  52.997 -52.015  1.00  0.00     0.069 A 
HETATM   27  C   UNL     1     -40.058  52.300 -52.992  1.00  0.00     0.037 A 
HETATM   28  C   UNL     1     -40.153  52.657 -54.339  1.00  0.00     0.004 A 
HETATM   29  C   UNL     1     -40.955  53.733 -54.716  1.00  0.00     0.017 A 
BRANCH  26  30
HETATM   30  O   UNL     1     -40.629  52.520 -50.741  1.00  0.00    -0.356 OA
HETATM   31  C   UNL     1     -40.082  51.210 -50.618  1.00  0.00     0.210 C 
ENDBRANCH  26  30
ENDBRANCH   2  24
TORSDOF 6
ENDMDL
MODEL 7
REMARK VINA RESULT:      -8.1      1.296      2.032
REMARK  6 active torsions:
REMARK  status: ('A' for Active; 'I' for Inactive)
REMARK    1  A    between atoms: C_6  and  C_7 
REMARK    2  A    between atoms: C_7  and  N_8 
REMARK       I    between atoms: N_8  and  C_9 
REMARK    3  A    between atoms: N_8  and  C_19 
REMARK    4  A    between atoms: C_9  and  C_10 
REMARK    5  A    between atoms: C_12  and  O_13 
REMARK    6  A    between atoms: C_19  and  C_20 
ROOT
HETATM    1  N   UNL     1     -41.959  55.860 -54.426  1.00  0.00    -0.341 N 
HETATM    2  C   UNL     1     -40.738  55.184 -54.351  1.00  0.00     0.254 C 
HETATM    3  O   UNL     1     -39.762  55.492 -55.035  1.00  0.00    -0.267 OA
ENDROOT
BRANCH   1   4
HETATM    4  C   UNL     1     -42.022  57.024 -55.320  1.00  0.00     0.170 C 
BRANCH   4   5
HETATM    5  C   UNL     1     -42.924  56.824 -56.507  1.00  0.00     0.029 A 
HETATM    6  C   UNL     1     -42.912  55.808 -57.388  1.00  0.00     0.028 A 
HETATM    7  C   UNL     1     -43.890  55.733 -58.475  1.00  0.00    -0.008 A 
HETATM    8  C   UNL     1     -44.861  56.737 -58.600  1.00  0.00     0.051 A 
HETATM    9  C   UNL     1     -43.879  54.667 -59.377  1.00  0.00     0.014 A 
HETATM   10  C   UNL     1     -45.825  56.688 -59.622  1.00  0.00    -0.034 A 
HETATM   11  N   UNL     1     -44.845  57.794 -57.679  1.00  0.00    -0.322 N 
HETATM   12  C   UNL     1     -46.884  57.741 -59.772  1.00  0.00     0.050 C 
HETATM   13  C   UNL     1     -45.796  55.607 -60.516  1.00  0.00     0.009 A 
HETATM   14  C   UNL     1     -44.830  54.606 -60.395  1.00  0.00     0.002 A 
HETATM   15  C   UNL     1     -43.944  57.909 -56.658  1.00  0.00     0.253 A 
HETATM   16  H   UNL     1     -45.524  58.539 -57.740  1.00  0.00     0.169 HD
HETATM   17  O   UNL     1     -43.973  58.876 -55.900  1.00  0.00    -0.268 OA
ENDBRANCH   4   5
ENDBRANCH   1   4
BRANCH   1  18
HETATM   18  C   UNL     1     -43.220  55.411 -53.810  1.00  0.00     0.158 C 
BRANCH  18  19
HETATM   19  C   UNL     1     -43.729  56.279 -52.649  1.00  0.00     0.139 C 
HETATM   20  O   UNL     1     -44.723  57.205 -53.140  1.00  0.00    -0.384 OA
HETATM   21  C   UNL     1     -44.457  58.497 -52.574  1.00  0.00     0.168 C 
HETATM   22  C   UNL     1     -43.475  58.279 -51.445  1.00  0.00     0.029 C 
HETATM   23  C   UNL     1     -42.661  57.124 -51.970  1.00  0.00     0.035 C 
ENDBRANCH  18  19
ENDBRANCH   1  18
BRANCH   2  24
HETATM   24  C   UNL     1     -40.557  54.042 -53.425  1.00  0.00     0.034 A 
HETATM   25  C   UNL     1     -40.099  52.831 -53.965  1.00  0.00     0.053 A 
HETATM   26  C   UNL     1     -39.864  51.740 -53.128  1.00  0.00     0.069 A 
HETATM   27  C   UNL     1     -40.107  51.862 -51.757  1.00  0.00     0.037 A 
HETATM   28  C   UNL     1     -40.530  53.077 -51.212  1.00  0.00     0.004 A 
HETATM   29  C   UNL     1     -40.733  54.177 -52.044  1.00  0.00     0.017 A 
BRANCH  26  30
HETATM   30  O   UNL     1     -39.412  50.512 -53.527  1.00  0.00    -0.356 OA
HETATM   31  C   UNL     1     -40.120  49.899 -54.600  1.00  0.00     0.210 C 
ENDBRANCH  26  30
ENDBRANCH   2  24
TORSDOF 6
ENDMDL
MODEL 8
REMARK VINA RESULT:      -7.8      1.971      7.691
REMARK  6 active torsions:
REMARK  status: ('A' for Active; 'I' for Inactive)
REMARK    1  A    between atoms: C_6  and  C_7 
REMARK    2  A    between atoms: C_7  and  N_8 
REMARK       I    between atoms: N_8  and  C_9 
REMARK    3  A    between atoms: N_8  and  C_19 
REMARK    4  A    between atoms: C_9  and  C_10 
REMARK    5  A    between atoms: C_12  and  O_13 
REMARK    6  A    between atoms: C_19  and  C_20 
ROOT
HETATM    1  N   UNL     1     -42.969  56.723 -56.214  1.00  0.00    -0.341 N 
HETATM    2  C   UNL     1     -42.846  56.939 -57.590  1.00  0.00     0.254 C 
HETATM    3  O   UNL     1     -41.830  57.408 -58.103  1.00  0.00    -0.267 OA
ENDROOT
BRANCH   1   4
HETATM    4  C   UNL     1     -41.791  57.014 -55.386  1.00  0.00     0.170 C 
BRANCH   4   5
HETATM    5  C   UNL     1     -41.362  55.862 -54.522  1.00  0.00     0.029 A 
HETATM    6  C   UNL     1     -40.985  54.632 -54.916  1.00  0.00     0.028 A 
HETATM    7  C   UNL     1     -40.550  53.623 -53.949  1.00  0.00    -0.008 A 
HETATM    8  C   UNL     1     -40.524  53.943 -52.583  1.00  0.00     0.051 A 
HETATM    9  C   UNL     1     -40.146  52.354 -54.369  1.00  0.00     0.014 A 
HETATM   10  C   UNL     1     -40.097  53.003 -51.629  1.00  0.00    -0.034 A 
HETATM   11  N   UNL     1     -40.936  55.225 -52.194  1.00  0.00    -0.322 N 
HETATM   12  C   UNL     1     -40.046  53.321 -50.162  1.00  0.00     0.050 C 
HETATM   13  C   UNL     1     -39.695  51.734 -52.073  1.00  0.00     0.009 A 
HETATM   14  C   UNL     1     -39.721  51.413 -53.432  1.00  0.00     0.002 A 
HETATM   15  C   UNL     1     -41.359  56.191 -53.062  1.00  0.00     0.253 A 
HETATM   16  H   UNL     1     -40.937  55.490 -51.220  1.00  0.00     0.169 HD
HETATM   17  O   UNL     1     -41.729  57.288 -52.649  1.00  0.00    -0.268 OA
ENDBRANCH   4   5
ENDBRANCH   1   4
BRANCH   1  18
HETATM   18  C   UNL     1     -44.220  56.382 -55.515  1.00  0.00     0.158 C 
BRANCH  18  19
HETATM   19  C   UNL     1     -44.981  57.573 -54.911  1.00  0.00     0.139 C 
HETATM   20  O   UNL     1     -44.485  58.802 -55.486  1.00  0.00    -0.384 OA
HETATM   21  C   UNL     1     -44.311  59.758 -54.429  1.00  0.00     0.168 C 
HETATM   22  C   UNL     1     -45.038  59.205 -53.224  1.00  0.00     0.029 C 
HETATM   23  C   UNL     1     -44.838  57.722 -53.404  1.00  0.00     0.035 C 
ENDBRANCH  18  19
ENDBRANCH   1  18
BRANCH   2  24
HETATM   24  C   UNL     1     -43.956  56.610 -58.513  1.00  0.00     0.034 A 
HETATM   25  C   UNL     1     -44.910  57.605 -58.770  1.00  0.00     0.053 A 
HETATM   26  C   UNL     1     -45.946  57.361 -59.671  1.00  0.00     0.069 A 
HETATM   27  C   UNL     1     -46.032  56.116 -60.298  1.00  0.00     0.037 A 
HETATM   28  C   UNL     1     -45.064  55.135 -60.071  1.00  0.00     0.004 A 
HETATM   29  C   UNL     1     -44.009  55.389 -59.196  1.00  0.00     0.017 A 
BRANCH  26  30
HETATM   30  O   UNL     1     -46.932  58.248 -60.011  1.00  0.00    -0.356 OA
HETATM   31  C   UNL     1     -47.643  57.968 -61.213  1.00  0.00     0.210 C 
ENDBRANCH  26  30
ENDBRANCH   2  24
TORSDOF 6
ENDMDL
MODEL 9
REMARK VINA RESULT:      -7.8      2.380      7.550
REMARK  6 active torsions:
REMARK  status: ('A' for Active; 'I' for Inactive)
REMARK    1  A    between atoms: C_6  and  C_7 
REMARK    2  A    between atoms: C_7  and  N_8 
REMARK       I    between atoms: N_8  and  C_9 
REMARK    3  A    between atoms: N_8  and  C_19 
REMARK    4  A    between atoms: C_9  and  C_10 
REMARK    5  A    between atoms: C_12  and  O_13 
REMARK    6  A    between atoms: C_19  and  C_20 
ROOT
HETATM    1  N   UNL     1     -43.160  57.724 -55.106  1.00  0.00    -0.341 N 
HETATM    2  C   UNL     1     -43.132  57.880 -56.495  1.00  0.00     0.254 C 
HETATM    3  O   UNL     1     -42.092  58.078 -57.123  1.00  0.00    -0.267 OA
ENDROOT
BRANCH   1   4
HETATM    4  C   UNL     1     -41.867  57.734 -54.409  1.00  0.00     0.170 C 
BRANCH   4   5
HETATM    5  C   UNL     1     -41.455  56.386 -53.884  1.00  0.00     0.029 A 
HETATM    6  C   UNL     1     -41.103  55.299 -54.593  1.00  0.00     0.028 A 
HETATM    7  C   UNL     1     -40.682  54.063 -53.931  1.00  0.00    -0.008 A 
HETATM    8  C   UNL     1     -40.642  54.010 -52.530  1.00  0.00     0.051 A 
HETATM    9  C   UNL     1     -40.304  52.943 -54.675  1.00  0.00     0.014 A 
HETATM   10  C   UNL     1     -40.228  52.845 -51.862  1.00  0.00    -0.034 A 
HETATM   11  N   UNL     1     -41.028  55.150 -51.811  1.00  0.00    -0.322 N 
HETATM   12  C   UNL     1     -40.163  52.763 -50.364  1.00  0.00     0.050 C 
HETATM   13  C   UNL     1     -39.852  51.732 -52.629  1.00  0.00     0.009 A 
HETATM   14  C   UNL     1     -39.891  51.781 -54.024  1.00  0.00     0.002 A 
HETATM   15  C   UNL     1     -41.437  56.319 -52.389  1.00  0.00     0.253 A 
HETATM   16  H   UNL     1     -41.019  55.149 -50.802  1.00  0.00     0.169 HD
HETATM   17  O   UNL     1     -41.785  57.274 -51.698  1.00  0.00    -0.268 OA
ENDBRANCH   4   5
ENDBRANCH   1   4
BRANCH   1  18
HETATM   18  C   UNL     1     -44.376  57.709 -54.275  1.00  0.00     0.158 C 
BRANCH  18  19
HETATM   19  C   UNL     1     -44.452  58.808 -53.203  1.00  0.00     0.139 C 
HETATM   20  O   UNL     1     -44.830  58.220 -51.939  1.00  0.00    -0.384 OA
HETATM   21  C   UNL     1     -45.828  59.055 -51.332  1.00  0.00     0.168 C 
HETATM   22  C   UNL     1     -45.815  60.363 -52.090  1.00  0.00     0.029 C 
HETATM   23  C   UNL     1     -45.473  59.901 -53.484  1.00  0.00     0.035 C 
ENDBRANCH  18  19
ENDBRANCH   1  18
BRANCH   2  24
HETATM   24  C   UNL     1     -44.378  57.815 -57.293  1.00  0.00     0.034 A 
HETATM   25  C   UNL     1     -44.376  57.013 -58.444  1.00  0.00     0.053 A 
HETATM   26  C   UNL     1     -45.540  56.878 -59.201  1.00  0.00     0.069 A 
HETATM   27  C   UNL     1     -46.695  57.560 -58.811  1.00  0.00     0.037 A 
HETATM   28  C   UNL     1     -46.710  58.331 -57.646  1.00  0.00     0.004 A 
HETATM   29  C   UNL     1     -45.557  58.440 -56.871  1.00  0.00     0.017 A 
BRANCH  26  30
HETATM   30  O   UNL     1     -45.669  56.124 -60.335  1.00  0.00    -0.356 OA
HETATM   31  C   UNL     1     -45.047  54.843 -60.314  1.00  0.00     0.210 C 
ENDBRANCH  26  30
ENDBRANCH   2  24
TORSDOF 6
ENDMDL
MODEL 10
REMARK VINA RESULT:      -7.7      2.730      7.439
REMARK  6 active torsions:
REMARK  status: ('A' for Active; 'I' for Inactive)
REMARK    1  A    between atoms: C_6  and  C_7 
REMARK    2  A    between atoms: C_7  and  N_8 
REMARK       I    between atoms: N_8  and  C_9 
REMARK    3  A    between atoms: N_8  and  C_19 
REMARK    4  A    between atoms: C_9  and  C_10 
REMARK    5  A    between atoms: C_12  and  O_13 
REMARK    6  A    between atoms: C_19  and  C_20 
ROOT
HETATM    1  N   UNL     1     -43.358  56.964 -53.239  1.00  0.00    -0.341 N 
HETATM    2  C   UNL     1     -43.675  57.322 -51.925  1.00  0.00     0.254 C 
HETATM    3  O   UNL     1     -44.331  56.598 -51.177  1.00  0.00    -0.267 OA
ENDROOT
BRANCH   1   4
HETATM    4  C   UNL     1     -43.785  55.632 -53.687  1.00  0.00     0.170 C 
BRANCH   4   5
HETATM    5  C   UNL     1     -42.744  54.566 -53.484  1.00  0.00     0.029 A 
HETATM    6  C   UNL     1     -42.084  54.265 -52.352  1.00  0.00     0.028 A 
HETATM    7  C   UNL     1     -41.123  53.161 -52.302  1.00  0.00    -0.008 A 
HETATM    8  C   UNL     1     -40.886  52.401 -53.457  1.00  0.00     0.051 A 
HETATM    9  C   UNL     1     -40.453  52.846 -51.119  1.00  0.00     0.014 A 
HETATM   10  C   UNL     1     -39.982  51.324 -53.441  1.00  0.00    -0.034 A 
HETATM   11  N   UNL     1     -41.574  52.742 -54.630  1.00  0.00    -0.322 N 
HETATM   12  C   UNL     1     -39.718  50.484 -54.657  1.00  0.00     0.050 C 
HETATM   13  C   UNL     1     -39.320  51.025 -52.240  1.00  0.00     0.009 A 
HETATM   14  C   UNL     1     -39.553  51.781 -51.089  1.00  0.00     0.002 A 
HETATM   15  C   UNL     1     -42.470  53.770 -54.721  1.00  0.00     0.253 A 
HETATM   16  H   UNL     1     -41.426  52.222 -55.482  1.00  0.00     0.169 HD
HETATM   17  O   UNL     1     -43.021  54.029 -55.789  1.00  0.00    -0.268 OA
ENDBRANCH   4   5
ENDBRANCH   1   4
BRANCH   1  18
HETATM   18  C   UNL     1     -42.777  57.864 -54.250  1.00  0.00     0.158 C 
BRANCH  18  19
HETATM   19  C   UNL     1     -43.292  57.661 -55.684  1.00  0.00     0.139 C 
HETATM   20  O   UNL     1     -42.179  57.374 -56.559  1.00  0.00    -0.384 OA
HETATM   21  C   UNL     1     -42.336  58.146 -57.759  1.00  0.00     0.168 C 
HETATM   22  C   UNL     1     -43.756  58.663 -57.756  1.00  0.00     0.029 C 
HETATM   23  C   UNL     1     -44.002  58.866 -56.283  1.00  0.00     0.035 C 
ENDBRANCH  18  19
ENDBRANCH   1  18
BRANCH   2  24
HETATM   24  C   UNL     1     -43.227  58.616 -51.361  1.00  0.00     0.034 A 
HETATM   25  C   UNL     1     -41.868  58.755 -51.042  1.00  0.00     0.053 A 
HETATM   26  C   UNL     1     -41.387  59.970 -50.556  1.00  0.00     0.069 A 
HETATM   27  C   UNL     1     -42.272  61.036 -50.375  1.00  0.00     0.037 A 
HETATM   28  C   UNL     1     -43.619  60.912 -50.724  1.00  0.00     0.004 A 
HETATM   29  C   UNL     1     -44.094  59.708 -51.242  1.00  0.00     0.017 A 
BRANCH  26  30
HETATM   30  O   UNL     1     -40.088  60.234 -50.215  1.00  0.00    -0.356 OA
HETATM   31  C   UNL     1     -39.106  59.353 -50.751  1.00  0.00     0.210 C 
ENDBRANCH  26  30
ENDBRANCH   2  24
TORSDOF 6
ENDMDL
