MODEL 1
REMARK VINA RESULT:      -7.9      0.000      0.000
REMARK  4 active torsions:
REMARK  status: ('A' for Active; 'I' for Inactive)
REMARK    1  A    between atoms: O_2  and  C_3 
REMARK    2  A    between atoms: C_5  and  N_6 
REMARK    3  A    between atoms: C_10  and  C_11 
REMARK    4  A    between atoms: C_22  and  O_23 
ROOT
HETATM    1  N   UNL     1     -41.500  56.057 -53.935  1.00  0.00    -0.315 N 
HETATM    2  C   UNL     1     -42.653  55.424 -54.410  1.00  0.00     0.225 C 
HETATM    3  O   UNL     1     -43.822  55.669 -54.151  1.00  0.00    -0.273 OA
HETATM    4  C   UNL     1     -42.236  54.441 -55.479  1.00  0.00     0.117 C 
HETATM    5  C   UNL     1     -40.751  54.220 -55.209  1.00  0.00     0.082 C 
HETATM    6  C   UNL     1     -40.316  55.540 -54.579  1.00  0.00     0.145 C 
ENDROOT
BRANCH   1   7
HETATM    7  C   UNL     1     -41.462  57.073 -52.939  1.00  0.00     0.073 A 
HETATM    8  C   UNL     1     -41.597  58.418 -53.320  1.00  0.00     0.069 A 
HETATM    9  C   UNL     1     -41.641  59.451 -52.376  1.00  0.00     0.070 A 
HETATM   10  C   UNL     1     -41.499  59.151 -51.025  1.00  0.00     0.039 A 
HETATM   11  C   UNL     1     -41.340  57.825 -50.621  1.00  0.00     0.042 A 
HETATM   12  C   UNL     1     -41.309  56.790 -51.566  1.00  0.00     0.095 A 
BRANCH   9  13
HETATM   13  O   UNL     1     -41.830  60.703 -52.894  1.00  0.00    -0.356 OA
HETATM   14  C   UNL     1     -42.634  60.793 -54.062  1.00  0.00     0.210 C 
ENDBRANCH   9  13
BRANCH  12  15
HETATM   15  O   UNL     1     -41.125  55.491 -51.156  1.00  0.00    -0.354 OA
HETATM   16  C   UNL     1     -42.240  54.966 -50.433  1.00  0.00     0.210 C 
ENDBRANCH  12  15
ENDBRANCH   1   7
BRANCH   5  17
HETATM   17  C   UNL     1     -40.548  53.034 -54.315  1.00  0.00     0.111 A 
HETATM   18  N   UNL     1     -40.398  51.780 -54.690  1.00  0.00    -0.233 NA
HETATM   19  C   UNL     1     -40.078  51.083 -53.551  1.00  0.00     0.085 A 
HETATM   20  C   UNL     1     -40.061  51.923 -52.446  1.00  0.00     0.062 A 
HETATM   21  C   UNL     1     -39.764  49.726 -53.387  1.00  0.00     0.034 A 
HETATM   22  N   UNL     1     -40.391  53.153 -52.953  1.00  0.00    -0.342 N 
HETATM   23  C   UNL     1     -39.742  51.488 -51.156  1.00  0.00     0.032 A 
HETATM   24  H   UNL     1     -40.447  54.010 -52.422  1.00  0.00     0.167 HD
HETATM   25  C   UNL     1     -39.424  50.133 -51.013  1.00  0.00     0.002 A 
HETATM   26  C   UNL     1     -39.434  49.263 -52.107  1.00  0.00     0.002 A 
ENDBRANCH   5  17
TORSDOF 4
ENDMDL
MODEL 2
REMARK VINA RESULT:      -7.6      2.170      3.740
REMARK  4 active torsions:
REMARK  status: ('A' for Active; 'I' for Inactive)
REMARK    1  A    between atoms: O_2  and  C_3 
REMARK    2  A    between atoms: C_5  and  N_6 
REMARK    3  A    between atoms: C_10  and  C_11 
REMARK    4  A    between atoms: C_22  and  O_23 
ROOT
HETATM    1  N   UNL     1     -42.644  56.357 -51.101  1.00  0.00    -0.315 N 
HETATM    2  C   UNL     1     -41.364  56.738 -50.688  1.00  0.00     0.225 C 
HETATM    3  O   UNL     1     -40.743  57.754 -50.961  1.00  0.00    -0.273 OA
HETATM    4  C   UNL     1     -40.889  55.735 -49.663  1.00  0.00     0.117 C 
HETATM    5  C   UNL     1     -41.775  54.517 -49.909  1.00  0.00     0.082 C 
HETATM    6  C   UNL     1     -43.059  55.132 -50.457  1.00  0.00     0.145 C 
ENDROOT
BRANCH   1   7
HETATM    7  C   UNL     1     -43.454  57.054 -52.041  1.00  0.00     0.073 A 
HETATM    8  C   UNL     1     -44.254  58.122 -51.603  1.00  0.00     0.069 A 
HETATM    9  C   UNL     1     -45.013  58.889 -52.496  1.00  0.00     0.070 A 
HETATM   10  C   UNL     1     -45.018  58.561 -53.848  1.00  0.00     0.039 A 
HETATM   11  C   UNL     1     -44.252  57.489 -54.305  1.00  0.00     0.042 A 
HETATM   12  C   UNL     1     -43.481  56.730 -53.413  1.00  0.00     0.095 A 
BRANCH   9  13
HETATM   13  O   UNL     1     -45.698  59.929 -51.930  1.00  0.00    -0.356 OA
HETATM   14  C   UNL     1     -45.438  60.190 -50.557  1.00  0.00     0.210 C 
ENDBRANCH   9  13
BRANCH  12  15
HETATM   15  O   UNL     1     -42.752  55.661 -53.874  1.00  0.00    -0.354 OA
HETATM   16  C   UNL     1     -43.530  54.737 -54.638  1.00  0.00     0.210 C 
ENDBRANCH  12  15
ENDBRANCH   1   7
BRANCH   5  17
HETATM   17  C   UNL     1     -41.113  53.566 -50.860  1.00  0.00     0.111 A 
HETATM   18  N   UNL     1     -40.458  52.467 -50.547  1.00  0.00    -0.233 NA
HETATM   19  C   UNL     1     -40.179  51.843 -51.738  1.00  0.00     0.085 A 
HETATM   20  C   UNL     1     -40.646  52.594 -52.809  1.00  0.00     0.062 A 
HETATM   21  C   UNL     1     -39.546  50.616 -51.984  1.00  0.00     0.034 A 
HETATM   22  N   UNL     1     -41.211  53.698 -52.226  1.00  0.00    -0.342 N 
HETATM   23  C   UNL     1     -40.522  52.189 -54.142  1.00  0.00     0.032 A 
HETATM   24  H   UNL     1     -41.674  54.448 -52.718  1.00  0.00     0.167 HD
HETATM   25  C   UNL     1     -39.895  50.958 -54.367  1.00  0.00     0.002 A 
HETATM   26  C   UNL     1     -39.414  50.182 -53.309  1.00  0.00     0.002 A 
ENDBRANCH   5  17
TORSDOF 4
ENDMDL
MODEL 3
REMARK VINA RESULT:      -7.5      2.854      6.733
REMARK  4 active torsions:
REMARK  status: ('A' for Active; 'I' for Inactive)
REMARK    1  A    between atoms: O_2  and  C_3 
REMARK    2  A    between atoms: C_5  and  N_6 
REMARK    3  A    between atoms: C_10  and  C_11 
REMARK    4  A    between atoms: C_22  and  O_23 
ROOT
HETATM    1  N   UNL     1     -41.594  55.770 -53.104  1.00  0.00    -0.315 N 
HETATM    2  C   UNL     1     -42.841  56.235 -52.675  1.00  0.00     0.225 C 
HETATM    3  O   UNL     1     -43.620  55.719 -51.887  1.00  0.00    -0.273 OA
HETATM    4  C   UNL     1     -43.033  57.628 -53.228  1.00  0.00     0.117 C 
HETATM    5  C   UNL     1     -42.041  57.699 -54.385  1.00  0.00     0.082 C 
HETATM    6  C   UNL     1     -40.938  56.738 -53.951  1.00  0.00     0.145 C 
ENDROOT
BRANCH   1   7
HETATM    7  C   UNL     1     -41.022  54.509 -52.777  1.00  0.00     0.073 A 
HETATM    8  C   UNL     1     -40.949  53.508 -53.760  1.00  0.00     0.069 A 
HETATM    9  C   UNL     1     -40.330  52.277 -53.515  1.00  0.00     0.070 A 
HETATM   10  C   UNL     1     -39.814  52.009 -52.251  1.00  0.00     0.039 A 
HETATM   11  C   UNL     1     -39.896  52.976 -51.249  1.00  0.00     0.042 A 
HETATM   12  C   UNL     1     -40.504  54.215 -51.499  1.00  0.00     0.095 A 
BRANCH   9  13
HETATM   13  O   UNL     1     -40.288  51.425 -54.585  1.00  0.00    -0.356 OA
HETATM   14  C   UNL     1     -39.912  50.081 -54.312  1.00  0.00     0.210 C 
ENDBRANCH   9  13
BRANCH  12  15
HETATM   15  O   UNL     1     -40.600  55.147 -50.494  1.00  0.00    -0.354 OA
HETATM   16  C   UNL     1     -41.212  54.635 -49.309  1.00  0.00     0.210 C 
ENDBRANCH  12  15
ENDBRANCH   1   7
BRANCH   5  17
HETATM   17  C   UNL     1     -42.704  57.308 -55.672  1.00  0.00     0.111 A 
HETATM   18  N   UNL     1     -43.823  57.799 -56.163  1.00  0.00    -0.233 NA
HETATM   19  C   UNL     1     -43.945  57.268 -57.424  1.00  0.00     0.085 A 
HETATM   20  C   UNL     1     -42.893  56.406 -57.700  1.00  0.00     0.062 A 
HETATM   21  C   UNL     1     -44.923  57.495 -58.403  1.00  0.00     0.034 A 
HETATM   22  N   UNL     1     -42.132  56.426 -56.560  1.00  0.00    -0.342 N 
HETATM   23  C   UNL     1     -42.746  55.740 -58.921  1.00  0.00     0.032 A 
HETATM   24  H   UNL     1     -41.266  55.925 -56.425  1.00  0.00     0.167 HD
HETATM   25  C   UNL     1     -43.727  55.985 -59.889  1.00  0.00     0.002 A 
HETATM   26  C   UNL     1     -44.799  56.846 -59.639  1.00  0.00     0.002 A 
ENDBRANCH   5  17
TORSDOF 4
ENDMDL
MODEL 4
REMARK VINA RESULT:      -7.4      2.587      6.714
REMARK  4 active torsions:
REMARK  status: ('A' for Active; 'I' for Inactive)
REMARK    1  A    between atoms: O_2  and  C_3 
REMARK    2  A    between atoms: C_5  and  N_6 
REMARK    3  A    between atoms: C_10  and  C_11 
REMARK    4  A    between atoms: C_22  and  O_23 
ROOT
HETATM    1  N   UNL     1     -41.550  54.026 -54.000  1.00  0.00    -0.315 N 
HETATM    2  C   UNL     1     -40.953  54.951 -54.862  1.00  0.00     0.225 C 
HETATM    3  O   UNL     1     -39.769  55.234 -54.979  1.00  0.00    -0.273 OA
HETATM    4  C   UNL     1     -42.018  55.467 -55.800  1.00  0.00     0.117 C 
HETATM    5  C   UNL     1     -43.324  55.143 -55.081  1.00  0.00     0.082 C 
HETATM    6  C   UNL     1     -42.966  53.908 -54.259  1.00  0.00     0.145 C 
ENDROOT
BRANCH   1   7
HETATM    7  C   UNL     1     -40.883  53.291 -52.981  1.00  0.00     0.073 A 
HETATM    8  C   UNL     1     -40.862  53.791 -51.669  1.00  0.00     0.069 A 
HETATM    9  C   UNL     1     -40.284  53.073 -50.615  1.00  0.00     0.070 A 
HETATM   10  C   UNL     1     -39.669  51.852 -50.874  1.00  0.00     0.039 A 
HETATM   11  C   UNL     1     -39.654  51.344 -52.172  1.00  0.00     0.042 A 
HETATM   12  C   UNL     1     -40.245  52.057 -53.225  1.00  0.00     0.095 A 
BRANCH   9  13
HETATM   13  O   UNL     1     -40.388  53.663 -49.385  1.00  0.00    -0.356 OA
HETATM   14  C   UNL     1     -41.316  54.734 -49.271  1.00  0.00     0.210 C 
ENDBRANCH   9  13
BRANCH  12  15
HETATM   15  O   UNL     1     -40.199  51.556 -54.504  1.00  0.00    -0.354 OA
HETATM   16  C   UNL     1     -39.906  50.158 -54.550  1.00  0.00     0.210 C 
ENDBRANCH  12  15
ENDBRANCH   1   7
BRANCH   5  17
HETATM   17  C   UNL     1     -43.770  56.308 -54.248  1.00  0.00     0.111 A 
HETATM   18  N   UNL     1     -44.127  57.498 -54.684  1.00  0.00    -0.233 NA
HETATM   19  C   UNL     1     -44.611  58.171 -53.589  1.00  0.00     0.085 A 
HETATM   20  C   UNL     1     -44.519  57.386 -52.448  1.00  0.00     0.062 A 
HETATM   21  C   UNL     1     -45.168  59.454 -53.497  1.00  0.00     0.034 A 
HETATM   22  N   UNL     1     -43.955  56.216 -52.888  1.00  0.00    -0.342 N 
HETATM   23  C   UNL     1     -44.959  57.806 -51.190  1.00  0.00     0.032 A 
HETATM   24  H   UNL     1     -43.767  55.405 -52.316  1.00  0.00     0.167 HD
HETATM   25  C   UNL     1     -45.521  59.086 -51.118  1.00  0.00     0.002 A 
HETATM   26  C   UNL     1     -45.625  59.900 -52.250  1.00  0.00     0.002 A 
ENDBRANCH   5  17
TORSDOF 4
ENDMDL
MODEL 5
REMARK VINA RESULT:      -7.2      2.451      7.010
REMARK  4 active torsions:
REMARK  status: ('A' for Active; 'I' for Inactive)
REMARK    1  A    between atoms: O_2  and  C_3 
REMARK    2  A    between atoms: C_5  and  N_6 
REMARK    3  A    between atoms: C_10  and  C_11 
REMARK    4  A    between atoms: C_22  and  O_23 
ROOT
HETATM    1  N   UNL     1     -41.713  54.289 -53.755  1.00  0.00    -0.315 N 
HETATM    2  C   UNL     1     -41.149  55.225 -54.627  1.00  0.00     0.225 C 
HETATM    3  O   UNL     1     -39.974  55.381 -54.927  1.00  0.00    -0.273 OA
HETATM    4  C   UNL     1     -42.277  55.958 -55.314  1.00  0.00     0.117 C 
HETATM    5  C   UNL     1     -43.477  55.712 -54.405  1.00  0.00     0.082 C 
HETATM    6  C   UNL     1     -43.155  54.363 -53.769  1.00  0.00     0.145 C 
ENDROOT
BRANCH   1   7
HETATM    7  C   UNL     1     -40.989  53.376 -52.937  1.00  0.00     0.073 A 
HETATM    8  C   UNL     1     -40.583  52.143 -53.472  1.00  0.00     0.069 A 
HETATM    9  C   UNL     1     -39.806  51.240 -52.737  1.00  0.00     0.070 A 
HETATM   10  C   UNL     1     -39.463  51.543 -51.423  1.00  0.00     0.039 A 
HETATM   11  C   UNL     1     -39.875  52.750 -50.859  1.00  0.00     0.042 A 
HETATM   12  C   UNL     1     -40.642  53.660 -51.601  1.00  0.00     0.095 A 
BRANCH   9  13
HETATM   13  O   UNL     1     -39.442  50.105 -53.409  1.00  0.00    -0.356 OA
HETATM   14  C   UNL     1     -39.892  49.992 -54.753  1.00  0.00     0.210 C 
ENDBRANCH   9  13
BRANCH  12  15
HETATM   15  O   UNL     1     -41.062  54.834 -51.023  1.00  0.00    -0.354 OA
HETATM   16  C   UNL     1     -42.182  54.663 -50.152  1.00  0.00     0.210 C 
ENDBRANCH  12  15
ENDBRANCH   1   7
BRANCH   5  17
HETATM   17  C   UNL     1     -43.622  56.824 -53.410  1.00  0.00     0.111 A 
HETATM   18  N   UNL     1     -42.850  57.885 -53.296  1.00  0.00    -0.233 NA
HETATM   19  C   UNL     1     -43.461  58.697 -52.372  1.00  0.00     0.085 A 
HETATM   20  C   UNL     1     -44.619  58.106 -51.884  1.00  0.00     0.062 A 
HETATM   21  C   UNL     1     -43.094  59.970 -51.913  1.00  0.00     0.034 A 
HETATM   22  N   UNL     1     -44.685  56.903 -52.539  1.00  0.00    -0.342 N 
HETATM   23  C   UNL     1     -45.457  58.717 -50.948  1.00  0.00     0.032 A 
HETATM   24  H   UNL     1     -45.424  56.222 -52.441  1.00  0.00     0.167 HD
HETATM   25  C   UNL     1     -45.079  59.991 -50.507  1.00  0.00     0.002 A 
HETATM   26  C   UNL     1     -43.919  60.610 -50.978  1.00  0.00     0.002 A 
ENDBRANCH   5  17
TORSDOF 4
ENDMDL
MODEL 6
REMARK VINA RESULT:      -7.1      2.937      6.206
REMARK  4 active torsions:
REMARK  status: ('A' for Active; 'I' for Inactive)
REMARK    1  A    between atoms: O_2  and  C_3 
REMARK    2  A    between atoms: C_5  and  N_6 
REMARK    3  A    between atoms: C_10  and  C_11 
REMARK    4  A    between atoms: C_22  and  O_23 
ROOT
HETATM    1  N   UNL     1     -42.118  55.378 -53.572  1.00  0.00    -0.315 N 
HETATM    2  C   UNL     1     -41.344  54.392 -54.194  1.00  0.00     0.225 C 
HETATM    3  O   UNL     1     -40.228  53.994 -53.896  1.00  0.00    -0.273 OA
HETATM    4  C   UNL     1     -42.197  53.733 -55.253  1.00  0.00     0.117 C 
HETATM    5  C   UNL     1     -43.309  54.745 -55.506  1.00  0.00     0.082 C 
HETATM    6  C   UNL     1     -43.431  55.465 -54.167  1.00  0.00     0.145 C 
ENDROOT
BRANCH   1   7
HETATM    7  C   UNL     1     -41.693  56.212 -52.500  1.00  0.00     0.073 A 
HETATM    8  C   UNL     1     -41.663  55.696 -51.194  1.00  0.00     0.069 A 
HETATM    9  C   UNL     1     -41.184  56.448 -50.115  1.00  0.00     0.070 A 
HETATM   10  C   UNL     1     -40.770  57.759 -50.324  1.00  0.00     0.039 A 
HETATM   11  C   UNL     1     -40.812  58.304 -51.607  1.00  0.00     0.042 A 
HETATM   12  C   UNL     1     -41.279  57.546 -52.690  1.00  0.00     0.095 A 
BRANCH   9  13
HETATM   13  O   UNL     1     -41.165  55.793 -48.914  1.00  0.00    -0.356 OA
HETATM   14  C   UNL     1     -41.063  54.376 -48.965  1.00  0.00     0.210 C 
ENDBRANCH   9  13
BRANCH  12  15
HETATM   15  O   UNL     1     -41.340  58.106 -53.944  1.00  0.00    -0.354 OA
HETATM   16  C   UNL     1     -41.466  59.529 -53.919  1.00  0.00     0.210 C 
ENDBRANCH  12  15
ENDBRANCH   1   7
BRANCH   5  17
HETATM   17  C   UNL     1     -42.946  55.653 -56.643  1.00  0.00     0.111 A 
HETATM   18  N   UNL     1     -43.062  55.393 -57.929  1.00  0.00    -0.233 NA
HETATM   19  C   UNL     1     -42.771  56.567 -58.579  1.00  0.00     0.085 A 
HETATM   20  C   UNL     1     -42.436  57.563 -57.671  1.00  0.00     0.062 A 
HETATM   21  C   UNL     1     -42.791  56.864 -59.949  1.00  0.00     0.034 A 
HETATM   22  N   UNL     1     -42.528  56.950 -56.448  1.00  0.00    -0.342 N 
HETATM   23  C   UNL     1     -42.116  58.870 -58.050  1.00  0.00     0.032 A 
HETATM   24  H   UNL     1     -42.374  57.397 -55.556  1.00  0.00     0.167 HD
HETATM   25  C   UNL     1     -42.150  59.151 -59.421  1.00  0.00     0.002 A 
HETATM   26  C   UNL     1     -42.481  58.168 -60.358  1.00  0.00     0.002 A 
ENDBRANCH   5  17
TORSDOF 4
ENDMDL
MODEL 7
REMARK VINA RESULT:      -7.0     14.630     16.652
REMARK  4 active torsions:
REMARK  status: ('A' for Active; 'I' for Inactive)
REMARK    1  A    between atoms: O_2  and  C_3 
REMARK    2  A    between atoms: C_5  and  N_6 
REMARK    3  A    between atoms: C_10  and  C_11 
REMARK    4  A    between atoms: C_22  and  O_23 
ROOT
HETATM    1  N   UNL     1     -35.592  40.668 -52.209  1.00  0.00    -0.315 N 
HETATM    2  C   UNL     1     -36.701  39.821 -52.112  1.00  0.00     0.225 C 
HETATM    3  O   UNL     1     -36.760  38.688 -51.658  1.00  0.00    -0.273 OA
HETATM    4  C   UNL     1     -37.924  40.608 -52.518  1.00  0.00     0.117 C 
HETATM    5  C   UNL     1     -37.355  41.779 -53.315  1.00  0.00     0.082 C 
HETATM    6  C   UNL     1     -35.973  41.973 -52.699  1.00  0.00     0.145 C 
ENDROOT
BRANCH   1   7
HETATM    7  C   UNL     1     -34.251  40.319 -51.889  1.00  0.00     0.073 A 
HETATM    8  C   UNL     1     -33.767  40.555 -50.592  1.00  0.00     0.069 A 
HETATM    9  C   UNL     1     -32.481  40.164 -50.201  1.00  0.00     0.070 A 
HETATM   10  C   UNL     1     -31.634  39.568 -51.131  1.00  0.00     0.039 A 
HETATM   11  C   UNL     1     -32.081  39.344 -52.433  1.00  0.00     0.042 A 
HETATM   12  C   UNL     1     -33.375  39.724 -52.820  1.00  0.00     0.095 A 
BRANCH   9  13
HETATM   13  O   UNL     1     -32.171  40.412 -48.892  1.00  0.00    -0.356 OA
HETATM   14  C   UNL     1     -31.653  39.320 -48.144  1.00  0.00     0.210 C 
ENDBRANCH   9  13
BRANCH  12  15
HETATM   15  O   UNL     1     -33.792  39.520 -54.113  1.00  0.00    -0.354 OA
HETATM   16  C   UNL     1     -33.353  40.540 -55.012  1.00  0.00     0.210 C 
ENDBRANCH  12  15
ENDBRANCH   1   7
BRANCH   5  17
HETATM   17  C   UNL     1     -37.319  41.453 -54.778  1.00  0.00     0.111 A 
HETATM   18  N   UNL     1     -37.754  40.350 -55.351  1.00  0.00    -0.233 NA
HETATM   19  C   UNL     1     -37.669  40.569 -56.704  1.00  0.00     0.085 A 
HETATM   20  C   UNL     1     -37.138  41.825 -56.967  1.00  0.00     0.062 A 
HETATM   21  C   UNL     1     -38.048  39.745 -57.773  1.00  0.00     0.034 A 
HETATM   22  N   UNL     1     -36.898  42.356 -55.726  1.00  0.00    -0.342 N 
HETATM   23  C   UNL     1     -36.959  42.327 -58.259  1.00  0.00     0.032 A 
HETATM   24  H   UNL     1     -36.531  43.280 -55.545  1.00  0.00     0.167 HD
HETATM   25  C   UNL     1     -37.351  41.494 -59.314  1.00  0.00     0.002 A 
HETATM   26  C   UNL     1     -37.886  40.225 -59.080  1.00  0.00     0.002 A 
ENDBRANCH   5  17
TORSDOF 4
ENDMDL
MODEL 8
REMARK VINA RESULT:      -7.0      2.778      6.759
REMARK  4 active torsions:
REMARK  status: ('A' for Active; 'I' for Inactive)
REMARK    1  A    between atoms: O_2  and  C_3 
REMARK    2  A    between atoms: C_5  and  N_6 
REMARK    3  A    between atoms: C_10  and  C_11 
REMARK    4  A    between atoms: C_22  and  O_23 
ROOT
HETATM    1  N   UNL     1     -42.246  55.346 -51.218  1.00  0.00    -0.315 N 
HETATM    2  C   UNL     1     -43.625  55.374 -50.986  1.00  0.00     0.225 C 
HETATM    3  O   UNL     1     -44.372  54.449 -50.704  1.00  0.00    -0.273 OA
HETATM    4  C   UNL     1     -44.063  56.819 -50.970  1.00  0.00     0.117 C 
HETATM    5  C   UNL     1     -42.938  57.549 -51.697  1.00  0.00     0.082 C 
HETATM    6  C   UNL     1     -41.720  56.677 -51.406  1.00  0.00     0.145 C 
ENDROOT
BRANCH   1   7
HETATM    7  C   UNL     1     -41.440  54.175 -51.280  1.00  0.00     0.073 A 
HETATM    8  C   UNL     1     -41.057  53.666 -52.532  1.00  0.00     0.069 A 
HETATM    9  C   UNL     1     -40.204  52.562 -52.649  1.00  0.00     0.070 A 
HETATM   10  C   UNL     1     -39.758  51.915 -51.501  1.00  0.00     0.039 A 
HETATM   11  C   UNL     1     -40.143  52.385 -50.246  1.00  0.00     0.042 A 
HETATM   12  C   UNL     1     -40.987  53.500 -50.128  1.00  0.00     0.095 A 
BRANCH   9  13
HETATM   13  O   UNL     1     -39.877  52.215 -53.932  1.00  0.00    -0.356 OA
HETATM   14  C   UNL     1     -40.175  50.882 -54.325  1.00  0.00     0.210 C 
ENDBRANCH   9  13
BRANCH  12  15
HETATM   15  O   UNL     1     -41.378  53.935 -48.885  1.00  0.00    -0.354 OA
HETATM   16  C   UNL     1     -40.308  53.972 -47.939  1.00  0.00     0.210 C 
ENDBRANCH  12  15
ENDBRANCH   1   7
BRANCH   5  17
HETATM   17  C   UNL     1     -43.249  57.674 -53.159  1.00  0.00     0.111 A 
HETATM   18  N   UNL     1     -42.555  57.169 -54.159  1.00  0.00    -0.233 NA
HETATM   19  C   UNL     1     -43.304  57.394 -55.287  1.00  0.00     0.085 A 
HETATM   20  C   UNL     1     -44.469  58.082 -54.977  1.00  0.00     0.062 A 
HETATM   21  C   UNL     1     -43.060  57.019 -56.617  1.00  0.00     0.034 A 
HETATM   22  N   UNL     1     -44.398  58.273 -53.622  1.00  0.00    -0.342 N 
HETATM   23  C   UNL     1     -45.434  58.426 -55.929  1.00  0.00     0.032 A 
HETATM   24  H   UNL     1     -45.102  58.723 -53.055  1.00  0.00     0.167 HD
HETATM   25  C   UNL     1     -45.178  58.036 -57.249  1.00  0.00     0.002 A 
HETATM   26  C   UNL     1     -44.013  57.345 -57.591  1.00  0.00     0.002 A 
ENDBRANCH   5  17
TORSDOF 4
ENDMDL
MODEL 9
REMARK VINA RESULT:      -7.0      2.496      7.254
REMARK  4 active torsions:
REMARK  status: ('A' for Active; 'I' for Inactive)
REMARK    1  A    between atoms: O_2  and  C_3 
REMARK    2  A    between atoms: C_5  and  N_6 
REMARK    3  A    between atoms: C_10  and  C_11 
REMARK    4  A    between atoms: C_22  and  O_23 
ROOT
HETATM    1  N   UNL     1     -41.771  54.795 -52.011  1.00  0.00    -0.315 N 
HETATM    2  C   UNL     1     -43.100  54.728 -51.581  1.00  0.00     0.225 C 
HETATM    3  O   UNL     1     -43.826  53.749 -51.491  1.00  0.00    -0.273 OA
HETATM    4  C   UNL     1     -43.488  56.090 -51.055  1.00  0.00     0.117 C 
HETATM    5  C   UNL     1     -42.458  57.027 -51.679  1.00  0.00     0.082 C 
HETATM    6  C   UNL     1     -41.238  56.128 -51.854  1.00  0.00     0.145 C 
ENDROOT
BRANCH   1   7
HETATM    7  C   UNL     1     -41.018  53.715 -52.550  1.00  0.00     0.073 A 
HETATM    8  C   UNL     1     -40.374  52.821 -51.679  1.00  0.00     0.069 A 
HETATM    9  C   UNL     1     -39.682  51.699 -52.153  1.00  0.00     0.070 A 
HETATM   10  C   UNL     1     -39.584  51.484 -53.524  1.00  0.00     0.039 A 
HETATM   11  C   UNL     1     -40.193  52.370 -54.411  1.00  0.00     0.042 A 
HETATM   12  C   UNL     1     -40.898  53.486 -53.936  1.00  0.00     0.095 A 
BRANCH   9  13
HETATM   13  O   UNL     1     -39.153  50.891 -51.183  1.00  0.00    -0.356 OA
HETATM   14  C   UNL     1     -39.800  49.643 -50.974  1.00  0.00     0.210 C 
ENDBRANCH   9  13
BRANCH  12  15
HETATM   15  O   UNL     1     -41.471  54.364 -54.823  1.00  0.00    -0.354 OA
HETATM   16  C   UNL     1     -42.817  54.024 -55.162  1.00  0.00     0.210 C 
ENDBRANCH  12  15
ENDBRANCH   1   7
BRANCH   5  17
HETATM   17  C   UNL     1     -42.974  57.593 -52.968  1.00  0.00     0.111 A 
HETATM   18  N   UNL     1     -42.257  58.101 -53.949  1.00  0.00    -0.233 NA
HETATM   19  C   UNL     1     -43.137  58.333 -54.977  1.00  0.00     0.085 A 
HETATM   20  C   UNL     1     -44.430  57.989 -54.607  1.00  0.00     0.062 A 
HETATM   21  C   UNL     1     -42.899  58.819 -56.271  1.00  0.00     0.034 A 
HETATM   22  N   UNL     1     -44.305  57.548 -53.315  1.00  0.00    -0.342 N 
HETATM   23  C   UNL     1     -45.529  58.098 -55.465  1.00  0.00     0.032 A 
HETATM   24  H   UNL     1     -45.056  57.192 -52.742  1.00  0.00     0.167 HD
HETATM   25  C   UNL     1     -45.271  58.577 -56.755  1.00  0.00     0.002 A 
HETATM   26  C   UNL     1     -43.980  58.932 -57.155  1.00  0.00     0.002 A 
ENDBRANCH   5  17
TORSDOF 4
ENDMDL
MODEL 10
REMARK VINA RESULT:      -6.9      2.690      4.176
REMARK  4 active torsions:
REMARK  status: ('A' for Active; 'I' for Inactive)
REMARK    1  A    between atoms: O_2  and  C_3 
REMARK    2  A    between atoms: C_5  and  N_6 
REMARK    3  A    between atoms: C_10  and  C_11 
REMARK    4  A    between atoms: C_22  and  O_23 
ROOT
HETATM    1  N   UNL     1     -42.419  55.663 -55.321  1.00  0.00    -0.315 N 
HETATM    2  C   UNL     1     -42.616  54.287 -55.475  1.00  0.00     0.225 C 
HETATM    3  O   UNL     1     -43.607  53.696 -55.877  1.00  0.00    -0.273 OA
HETATM    4  C   UNL     1     -41.297  53.598 -55.215  1.00  0.00     0.117 C 
HETATM    5  C   UNL     1     -40.496  54.631 -54.429  1.00  0.00     0.082 C 
HETATM    6  C   UNL     1     -41.061  55.957 -54.930  1.00  0.00     0.145 C 
ENDROOT
BRANCH   1   7
HETATM    7  C   UNL     1     -43.410  56.668 -55.506  1.00  0.00     0.073 A 
HETATM    8  C   UNL     1     -43.670  57.151 -56.799  1.00  0.00     0.069 A 
HETATM    9  C   UNL     1     -44.683  58.085 -57.048  1.00  0.00     0.070 A 
HETATM   10  C   UNL     1     -45.425  58.590 -55.985  1.00  0.00     0.039 A 
HETATM   11  C   UNL     1     -45.171  58.145 -54.688  1.00  0.00     0.042 A 
HETATM   12  C   UNL     1     -44.165  57.200 -54.441  1.00  0.00     0.095 A 
BRANCH   9  13
HETATM   13  O   UNL     1     -44.854  58.420 -58.363  1.00  0.00    -0.356 OA
HETATM   14  C   UNL     1     -45.135  57.353 -59.259  1.00  0.00     0.210 C 
ENDBRANCH   9  13
BRANCH  12  15
HETATM   15  O   UNL     1     -43.908  56.791 -53.154  1.00  0.00    -0.354 OA
HETATM   16  C   UNL     1     -43.905  57.866 -52.213  1.00  0.00     0.210 C 
ENDBRANCH  12  15
ENDBRANCH   1   7
BRANCH   5  17
HETATM   17  C   UNL     1     -40.672  54.424 -52.954  1.00  0.00     0.111 A 
HETATM   18  N   UNL     1     -40.342  53.352 -52.264  1.00  0.00    -0.233 NA
HETATM   19  C   UNL     1     -40.530  53.682 -50.944  1.00  0.00     0.085 A 
HETATM   20  C   UNL     1     -41.017  54.977 -50.824  1.00  0.00     0.062 A 
HETATM   21  C   UNL     1     -40.285  52.930 -49.786  1.00  0.00     0.034 A 
HETATM   22  N   UNL     1     -41.125  55.418 -52.117  1.00  0.00    -0.342 N 
HETATM   23  C   UNL     1     -41.279  55.587 -49.594  1.00  0.00     0.032 A 
HETATM   24  H   UNL     1     -41.428  56.339 -52.399  1.00  0.00     0.167 HD
HETATM   25  C   UNL     1     -41.020  54.824 -48.449  1.00  0.00     0.002 A 
HETATM   26  C   UNL     1     -40.532  53.518 -48.539  1.00  0.00     0.002 A 
ENDBRANCH   5  17
TORSDOF 4
ENDMDL
