MODEL 1
REMARK VINA RESULT:      -7.5      0.000      0.000
REMARK  9 active torsions:
REMARK  status: ('A' for Active; 'I' for Inactive)
REMARK    1  A    between atoms: C_2  and  C_3 
REMARK       I    between atoms: C_3  and  N_4 
REMARK    2  A    between atoms: N_4  and  N_5 
REMARK    3  A    between atoms: N_5  and  C_6 
REMARK    4  A    between atoms: C_6  and  N_7 
REMARK    5  A    between atoms: N_7  and  C_8 
REMARK    6  A    between atoms: C_18  and  N_19 
REMARK    7  A    between atoms: N_19  and  C_20 
REMARK    8  A    between atoms: C_20  and  N_21 
REMARK    9  A    between atoms: N_21  and  C_22 
ROOT
HETATM    1  C   UNL     1     -41.606  56.611 -54.805  1.00  0.00     0.019 A 
HETATM    2  C   UNL     1     -42.955  56.388 -55.096  1.00  0.00     0.033 A 
HETATM    3  C   UNL     1     -43.418  55.071 -55.195  1.00  0.00     0.019 A 
HETATM    4  C   UNL     1     -42.542  53.988 -55.033  1.00  0.00     0.030 A 
HETATM    5  C   UNL     1     -41.190  54.208 -54.776  1.00  0.00     0.033 A 
HETATM    6  C   UNL     1     -40.735  55.527 -54.648  1.00  0.00     0.030 A 
ENDROOT
BRANCH   2   7
HETATM    7  C   UNL     1     -43.931  57.503 -55.265  1.00  0.00     0.270 C 
HETATM    8  N   UNL     1     -45.209  57.152 -55.655  1.00  0.00    -0.264 N 
HETATM    9  H   UNL     1     -45.514  56.206 -55.851  1.00  0.00     0.190 HD
HETATM   10  O   UNL     1     -43.603  58.668 -55.054  1.00  0.00    -0.266 OA
BRANCH   8  11
HETATM   11  N   UNL     1     -46.115  58.172 -55.978  1.00  0.00    -0.274 N 
HETATM   12  H   UNL     1     -46.023  58.990 -55.385  1.00  0.00     0.189 HD
BRANCH  11  13
HETATM   13  C   UNL     1     -46.486  58.375 -57.273  1.00  0.00     0.186 C 
HETATM   14  S   UNL     1     -47.132  59.802 -57.873  1.00  0.00    -0.040 SA
BRANCH  13  15
HETATM   15  N   UNL     1     -46.261  57.371 -58.157  1.00  0.00    -0.361 N 
HETATM   16  H   UNL     1     -46.995  56.672 -58.115  1.00  0.00     0.162 HD
BRANCH  15  17
HETATM   17  C   UNL     1     -45.345  57.230 -59.297  1.00  0.00     0.083 C 
HETATM   18  C   UNL     1     -44.001  57.944 -59.097  1.00  0.00     0.025 C 
HETATM   19  C   UNL     1     -42.831  57.038 -58.736  1.00  0.00     0.002 C 
HETATM   20  C   UNL     1     -42.746  55.841 -59.667  1.00  0.00     0.000 C 
HETATM   21  C   UNL     1     -44.016  55.006 -59.613  1.00  0.00     0.002 C 
HETATM   22  C   UNL     1     -45.276  55.818 -59.898  1.00  0.00     0.025 C 
ENDBRANCH  15  17
ENDBRANCH  13  15
ENDBRANCH  11  13
ENDBRANCH   8  11
ENDBRANCH   2   7
BRANCH   5  23
HETATM   23  N   UNL     1     -40.237  53.197 -54.549  1.00  0.00    -0.338 N 
HETATM   24  H   UNL     1     -39.689  52.942 -55.357  1.00  0.00     0.168 HD
BRANCH  23  25
HETATM   25  C   UNL     1     -40.032  52.331 -53.514  1.00  0.00     0.151 C 
HETATM   26  S   UNL     1     -39.712  50.696 -53.568  1.00  0.00    -0.047 SA
BRANCH  25  27
HETATM   27  N   UNL     1     -39.968  52.941 -52.280  1.00  0.00    -0.265 NA
HETATM   28  H   UNL     1     -39.051  52.741 -51.891  1.00  0.00     0.130 HD
BRANCH  27  29
HETATM   29  C   UNL     1     -41.013  52.873 -51.235  1.00  0.00     0.062 C 
HETATM   30  C   UNL     1     -40.352  53.039 -49.854  1.00  0.00     0.020 C 
HETATM   31  C   UNL     1     -39.900  54.480 -49.597  1.00  0.00     0.002 C 
HETATM   32  C   UNL     1     -41.045  55.473 -49.767  1.00  0.00     0.000 C 
HETATM   33  C   UNL     1     -41.734  55.316 -51.120  1.00  0.00     0.002 C 
HETATM   34  C   UNL     1     -42.176  53.872 -51.348  1.00  0.00     0.020 C 
ENDBRANCH  27  29
ENDBRANCH  25  27
ENDBRANCH  23  25
ENDBRANCH   5  23
TORSDOF 9
ENDMDL
MODEL 2
REMARK VINA RESULT:      -7.1      2.210      3.533
REMARK  9 active torsions:
REMARK  status: ('A' for Active; 'I' for Inactive)
REMARK    1  A    between atoms: C_2  and  C_3 
REMARK       I    between atoms: C_3  and  N_4 
REMARK    2  A    between atoms: N_4  and  N_5 
REMARK    3  A    between atoms: N_5  and  C_6 
REMARK    4  A    between atoms: C_6  and  N_7 
REMARK    5  A    between atoms: N_7  and  C_8 
REMARK    6  A    between atoms: C_18  and  N_19 
REMARK    7  A    between atoms: N_19  and  C_20 
REMARK    8  A    between atoms: C_20  and  N_21 
REMARK    9  A    between atoms: N_21  and  C_22 
ROOT
HETATM    1  C   UNL     1     -44.817  57.665 -52.447  1.00  0.00     0.019 A 
HETATM    2  C   UNL     1     -44.281  58.247 -53.599  1.00  0.00     0.033 A 
HETATM    3  C   UNL     1     -42.890  58.361 -53.716  1.00  0.00     0.019 A 
HETATM    4  C   UNL     1     -42.045  57.925 -52.686  1.00  0.00     0.030 A 
HETATM    5  C   UNL     1     -42.580  57.375 -51.522  1.00  0.00     0.033 A 
HETATM    6  C   UNL     1     -43.970  57.235 -51.420  1.00  0.00     0.030 A 
ENDROOT
BRANCH   2   7
HETATM    7  C   UNL     1     -45.134  58.715 -54.730  1.00  0.00     0.270 C 
HETATM    8  N   UNL     1     -45.806  57.741 -55.442  1.00  0.00    -0.264 N 
HETATM    9  H   UNL     1     -45.741  56.746 -55.263  1.00  0.00     0.190 HD
HETATM   10  O   UNL     1     -45.232  59.911 -54.993  1.00  0.00    -0.266 OA
BRANCH   8  11
HETATM   11  N   UNL     1     -46.493  58.116 -56.605  1.00  0.00    -0.274 N 
HETATM   12  H   UNL     1     -47.158  58.866 -56.452  1.00  0.00     0.189 HD
BRANCH  11  13
HETATM   13  C   UNL     1     -45.868  58.070 -57.815  1.00  0.00     0.186 C 
HETATM   14  S   UNL     1     -45.824  59.331 -58.920  1.00  0.00    -0.040 SA
BRANCH  13  15
HETATM   15  N   UNL     1     -45.179  56.944 -58.126  1.00  0.00    -0.361 N 
HETATM   16  H   UNL     1     -45.799  56.210 -58.453  1.00  0.00     0.162 HD
BRANCH  15  17
HETATM   17  C   UNL     1     -43.750  56.669 -58.323  1.00  0.00     0.083 C 
HETATM   18  C   UNL     1     -43.357  56.483 -59.795  1.00  0.00     0.025 C 
HETATM   19  C   UNL     1     -42.665  57.678 -60.440  1.00  0.00     0.002 C 
HETATM   20  C   UNL     1     -41.530  58.197 -59.573  1.00  0.00     0.000 C 
HETATM   21  C   UNL     1     -42.032  58.631 -58.204  1.00  0.00     0.002 C 
HETATM   22  C   UNL     1     -42.803  57.534 -57.476  1.00  0.00     0.025 C 
ENDBRANCH  15  17
ENDBRANCH  13  15
ENDBRANCH  11  13
ENDBRANCH   8  11
ENDBRANCH   2   7
BRANCH   5  23
HETATM   23  N   UNL     1     -41.823  56.863 -50.451  1.00  0.00    -0.338 N 
HETATM   24  H   UNL     1     -41.541  57.548 -49.765  1.00  0.00     0.168 HD
BRANCH  23  25
HETATM   25  C   UNL     1     -41.205  55.665 -50.241  1.00  0.00     0.151 C 
HETATM   26  S   UNL     1     -40.965  54.849 -48.807  1.00  0.00    -0.047 SA
BRANCH  25  27
HETATM   27  N   UNL     1     -40.848  55.009 -51.400  1.00  0.00    -0.265 NA
HETATM   28  H   UNL     1     -40.916  55.680 -52.160  1.00  0.00     0.130 HD
BRANCH  27  29
HETATM   29  C   UNL     1     -41.344  53.681 -51.821  1.00  0.00     0.062 C 
HETATM   30  C   UNL     1     -42.770  53.833 -52.384  1.00  0.00     0.020 C 
HETATM   31  C   UNL     1     -42.780  54.499 -53.763  1.00  0.00     0.002 C 
HETATM   32  C   UNL     1     -41.885  53.764 -54.756  1.00  0.00     0.000 C 
HETATM   33  C   UNL     1     -40.471  53.579 -54.213  1.00  0.00     0.002 C 
HETATM   34  C   UNL     1     -40.490  52.910 -52.841  1.00  0.00     0.020 C 
ENDBRANCH  27  29
ENDBRANCH  25  27
ENDBRANCH  23  25
ENDBRANCH   5  23
TORSDOF 9
ENDMDL
MODEL 3
REMARK VINA RESULT:      -6.9      2.236      8.341
REMARK  9 active torsions:
REMARK  status: ('A' for Active; 'I' for Inactive)
REMARK    1  A    between atoms: C_2  and  C_3 
REMARK       I    between atoms: C_3  and  N_4 
REMARK    2  A    between atoms: N_4  and  N_5 
REMARK    3  A    between atoms: N_5  and  C_6 
REMARK    4  A    between atoms: C_6  and  N_7 
REMARK    5  A    between atoms: N_7  and  C_8 
REMARK    6  A    between atoms: C_18  and  N_19 
REMARK    7  A    between atoms: N_19  and  C_20 
REMARK    8  A    between atoms: C_20  and  N_21 
REMARK    9  A    between atoms: N_21  and  C_22 
ROOT
HETATM    1  C   UNL     1     -43.676  56.123 -53.796  1.00  0.00     0.019 A 
HETATM    2  C   UNL     1     -43.296  57.084 -52.854  1.00  0.00     0.033 A 
HETATM    3  C   UNL     1     -43.894  58.349 -52.897  1.00  0.00     0.019 A 
HETATM    4  C   UNL     1     -44.839  58.663 -53.884  1.00  0.00     0.030 A 
HETATM    5  C   UNL     1     -45.194  57.717 -54.845  1.00  0.00     0.033 A 
HETATM    6  C   UNL     1     -44.616  56.443 -54.781  1.00  0.00     0.030 A 
ENDROOT
BRANCH   2   7
HETATM    7  C   UNL     1     -42.305  56.798 -51.776  1.00  0.00     0.270 C 
HETATM    8  N   UNL     1     -42.670  55.856 -50.834  1.00  0.00    -0.264 N 
HETATM    9  H   UNL     1     -43.560  55.372 -50.815  1.00  0.00     0.190 HD
HETATM   10  O   UNL     1     -41.219  57.372 -51.748  1.00  0.00    -0.266 OA
BRANCH   8  11
HETATM   11  N   UNL     1     -41.843  55.668 -49.718  1.00  0.00    -0.274 N 
HETATM   12  H   UNL     1     -42.194  56.119 -48.880  1.00  0.00     0.189 HD
BRANCH  11  13
HETATM   13  C   UNL     1     -41.158  54.501 -49.561  1.00  0.00     0.186 C 
HETATM   14  S   UNL     1     -40.425  54.003 -48.137  1.00  0.00    -0.040 SA
BRANCH  13  15
HETATM   15  N   UNL     1     -41.116  53.649 -50.615  1.00  0.00    -0.361 N 
HETATM   16  H   UNL     1     -42.004  53.175 -50.741  1.00  0.00     0.162 HD
BRANCH  15  17
HETATM   17  C   UNL     1     -40.167  53.475 -51.723  1.00  0.00     0.083 C 
HETATM   18  C   UNL     1     -39.374  52.162 -51.652  1.00  0.00     0.025 C 
HETATM   19  C   UNL     1     -39.847  51.065 -52.597  1.00  0.00     0.002 C 
HETATM   20  C   UNL     1     -40.024  51.588 -54.013  1.00  0.00     0.000 C 
HETATM   21  C   UNL     1     -41.042  52.717 -54.063  1.00  0.00     0.002 C 
HETATM   22  C   UNL     1     -40.712  53.861 -53.107  1.00  0.00     0.025 C 
ENDBRANCH  15  17
ENDBRANCH  13  15
ENDBRANCH  11  13
ENDBRANCH   8  11
ENDBRANCH   2   7
BRANCH   5  23
HETATM   23  N   UNL     1     -46.163  57.911 -55.846  1.00  0.00    -0.338 N 
HETATM   24  H   UNL     1     -46.999  57.354 -55.742  1.00  0.00     0.168 HD
BRANCH  23  25
HETATM   25  C   UNL     1     -46.135  58.542 -57.056  1.00  0.00     0.151 C 
HETATM   26  S   UNL     1     -46.520  60.123 -57.420  1.00  0.00    -0.047 SA
BRANCH  25  27
HETATM   27  N   UNL     1     -45.597  57.781 -58.071  1.00  0.00    -0.265 NA
HETATM   28  H   UNL     1     -45.612  56.813 -57.764  1.00  0.00     0.130 HD
BRANCH  27  29
HETATM   29  C   UNL     1     -44.348  58.086 -58.803  1.00  0.00     0.062 C 
HETATM   30  C   UNL     1     -43.154  57.508 -58.019  1.00  0.00     0.020 C 
HETATM   31  C   UNL     1     -43.080  55.982 -58.117  1.00  0.00     0.002 C 
HETATM   32  C   UNL     1     -43.051  55.507 -59.566  1.00  0.00     0.000 C 
HETATM   33  C   UNL     1     -44.211  56.083 -60.373  1.00  0.00     0.002 C 
HETATM   34  C   UNL     1     -44.260  57.605 -60.261  1.00  0.00     0.020 C 
ENDBRANCH  27  29
ENDBRANCH  25  27
ENDBRANCH  23  25
ENDBRANCH   5  23
TORSDOF 9
ENDMDL
MODEL 4
REMARK VINA RESULT:      -6.9      2.700      8.567
REMARK  9 active torsions:
REMARK  status: ('A' for Active; 'I' for Inactive)
REMARK    1  A    between atoms: C_2  and  C_3 
REMARK       I    between atoms: C_3  and  N_4 
REMARK    2  A    between atoms: N_4  and  N_5 
REMARK    3  A    between atoms: N_5  and  C_6 
REMARK    4  A    between atoms: C_6  and  N_7 
REMARK    5  A    between atoms: N_7  and  C_8 
REMARK    6  A    between atoms: C_18  and  N_19 
REMARK    7  A    between atoms: N_19  and  C_20 
REMARK    8  A    between atoms: C_20  and  N_21 
REMARK    9  A    between atoms: N_21  and  C_22 
ROOT
HETATM    1  C   UNL     1     -43.279  55.446 -57.960  1.00  0.00     0.019 A 
HETATM    2  C   UNL     1     -42.975  55.913 -56.678  1.00  0.00     0.033 A 
HETATM    3  C   UNL     1     -42.464  57.209 -56.533  1.00  0.00     0.019 A 
HETATM    4  C   UNL     1     -42.234  58.020 -57.653  1.00  0.00     0.030 A 
HETATM    5  C   UNL     1     -42.505  57.543 -58.935  1.00  0.00     0.033 A 
HETATM    6  C   UNL     1     -43.043  56.258 -59.075  1.00  0.00     0.030 A 
ENDROOT
BRANCH   2   7
HETATM    7  C   UNL     1     -43.212  55.097 -55.453  1.00  0.00     0.270 C 
HETATM    8  N   UNL     1     -43.495  55.791 -54.293  1.00  0.00    -0.264 N 
HETATM    9  H   UNL     1     -43.530  56.801 -54.217  1.00  0.00     0.190 HD
HETATM   10  O   UNL     1     -43.165  53.870 -55.492  1.00  0.00    -0.266 OA
BRANCH   8  11
HETATM   11  N   UNL     1     -43.570  55.080 -53.087  1.00  0.00    -0.274 N 
HETATM   12  H   UNL     1     -44.278  54.353 -53.096  1.00  0.00     0.189 HD
BRANCH  11  13
HETATM   13  C   UNL     1     -42.444  54.848 -52.356  1.00  0.00     0.186 C 
HETATM   14  S   UNL     1     -41.762  55.935 -51.276  1.00  0.00    -0.040 SA
BRANCH  13  15
HETATM   15  N   UNL     1     -41.865  53.627 -52.461  1.00  0.00    -0.361 N 
HETATM   16  H   UNL     1     -42.557  52.886 -52.424  1.00  0.00     0.162 HD
BRANCH  15  17
HETATM   17  C   UNL     1     -40.521  53.189 -52.863  1.00  0.00     0.083 C 
HETATM   18  C   UNL     1     -39.745  52.481 -51.743  1.00  0.00     0.025 C 
HETATM   19  C   UNL     1     -39.686  50.963 -51.852  1.00  0.00     0.002 C 
HETATM   20  C   UNL     1     -39.272  50.521 -53.246  1.00  0.00     0.000 C 
HETATM   21  C   UNL     1     -40.246  51.027 -54.299  1.00  0.00     0.002 C 
HETATM   22  C   UNL     1     -40.442  52.540 -54.253  1.00  0.00     0.025 C 
ENDBRANCH  15  17
ENDBRANCH  13  15
ENDBRANCH  11  13
ENDBRANCH   8  11
ENDBRANCH   2   7
BRANCH   5  23
HETATM   23  N   UNL     1     -42.357  58.288 -60.120  1.00  0.00    -0.338 N 
HETATM   24  H   UNL     1     -41.455  58.205 -60.563  1.00  0.00     0.168 HD
BRANCH  23  25
HETATM   25  C   UNL     1     -43.107  59.273 -60.696  1.00  0.00     0.151 C 
HETATM   26  S   UNL     1     -42.627  60.782 -61.219  1.00  0.00    -0.047 SA
BRANCH  25  27
HETATM   27  N   UNL     1     -44.401  58.896 -60.980  1.00  0.00    -0.265 NA
HETATM   28  H   UNL     1     -44.457  58.734 -61.981  1.00  0.00     0.130 HD
BRANCH  27  29
HETATM   29  C   UNL     1     -45.620  59.573 -60.485  1.00  0.00     0.062 C 
HETATM   30  C   UNL     1     -46.842  58.682 -60.775  1.00  0.00     0.020 C 
HETATM   31  C   UNL     1     -46.900  57.459 -59.855  1.00  0.00     0.002 C 
HETATM   32  C   UNL     1     -46.862  57.855 -58.382  1.00  0.00     0.000 C 
HETATM   33  C   UNL     1     -45.672  58.758 -58.070  1.00  0.00     0.002 C 
HETATM   34  C   UNL     1     -45.641  59.969 -58.999  1.00  0.00     0.020 C 
ENDBRANCH  27  29
ENDBRANCH  25  27
ENDBRANCH  23  25
ENDBRANCH   5  23
TORSDOF 9
ENDMDL
MODEL 5
REMARK VINA RESULT:      -6.9      2.258      4.093
REMARK  9 active torsions:
REMARK  status: ('A' for Active; 'I' for Inactive)
REMARK    1  A    between atoms: C_2  and  C_3 
REMARK       I    between atoms: C_3  and  N_4 
REMARK    2  A    between atoms: N_4  and  N_5 
REMARK    3  A    between atoms: N_5  and  C_6 
REMARK    4  A    between atoms: C_6  and  N_7 
REMARK    5  A    between atoms: N_7  and  C_8 
REMARK    6  A    between atoms: C_18  and  N_19 
REMARK    7  A    between atoms: N_19  and  C_20 
REMARK    8  A    between atoms: C_20  and  N_21 
REMARK    9  A    between atoms: N_21  and  C_22 
ROOT
HETATM    1  C   UNL     1     -42.829  53.874 -55.233  1.00  0.00     0.019 A 
HETATM    2  C   UNL     1     -42.302  55.101 -55.644  1.00  0.00     0.033 A 
HETATM    3  C   UNL     1     -40.966  55.398 -55.348  1.00  0.00     0.019 A 
HETATM    4  C   UNL     1     -40.173  54.494 -54.627  1.00  0.00     0.030 A 
HETATM    5  C   UNL     1     -40.707  53.284 -54.187  1.00  0.00     0.033 A 
HETATM    6  C   UNL     1     -42.035  52.977 -54.510  1.00  0.00     0.030 A 
ENDROOT
BRANCH   2   7
HETATM    7  C   UNL     1     -43.098  56.092 -56.424  1.00  0.00     0.270 C 
HETATM    8  N   UNL     1     -44.134  56.716 -55.757  1.00  0.00    -0.264 N 
HETATM    9  H   UNL     1     -44.397  56.530 -54.796  1.00  0.00     0.190 HD
HETATM   10  O   UNL     1     -42.826  56.339 -57.596  1.00  0.00    -0.266 OA
BRANCH   8  11
HETATM   11  N   UNL     1     -45.005  57.535 -56.487  1.00  0.00    -0.274 N 
HETATM   12  H   UNL     1     -45.780  57.027 -56.900  1.00  0.00     0.189 HD
BRANCH  11  13
HETATM   13  C   UNL     1     -45.240  58.816 -56.086  1.00  0.00     0.186 C 
HETATM   14  S   UNL     1     -45.147  60.164 -57.080  1.00  0.00    -0.040 SA
BRANCH  13  15
HETATM   15  N   UNL     1     -45.638  59.012 -54.805  1.00  0.00    -0.361 N 
HETATM   16  H   UNL     1     -46.539  58.580 -54.628  1.00  0.00     0.162 HD
BRANCH  15  17
HETATM   17  C   UNL     1     -44.938  59.480 -53.601  1.00  0.00     0.083 C 
HETATM   18  C   UNL     1     -45.715  60.545 -52.814  1.00  0.00     0.025 C 
HETATM   19  C   UNL     1     -46.414  60.043 -51.557  1.00  0.00     0.002 C 
HETATM   20  C   UNL     1     -45.478  59.216 -50.692  1.00  0.00     0.000 C 
HETATM   21  C   UNL     1     -44.951  58.006 -51.447  1.00  0.00     0.002 C 
HETATM   22  C   UNL     1     -44.277  58.372 -52.767  1.00  0.00     0.025 C 
ENDBRANCH  15  17
ENDBRANCH  13  15
ENDBRANCH  11  13
ENDBRANCH   8  11
ENDBRANCH   2   7
BRANCH   5  23
HETATM   23  N   UNL     1     -39.988  52.288 -53.500  1.00  0.00    -0.338 N 
HETATM   24  H   UNL     1     -39.608  51.559 -54.086  1.00  0.00     0.168 HD
BRANCH  23  25
HETATM   25  C   UNL     1     -39.866  51.977 -52.176  1.00  0.00     0.151 C 
HETATM   26  S   UNL     1     -39.462  50.518 -51.478  1.00  0.00    -0.047 SA
BRANCH  25  27
HETATM   27  N   UNL     1     -39.979  53.063 -51.335  1.00  0.00    -0.265 NA
HETATM   28  H   UNL     1     -39.092  53.164 -50.851  1.00  0.00     0.130 HD
BRANCH  27  29
HETATM   29  C   UNL     1     -41.114  53.326 -50.423  1.00  0.00     0.062 C 
HETATM   30  C   UNL     1     -40.646  54.269 -49.299  1.00  0.00     0.020 C 
HETATM   31  C   UNL     1     -40.445  55.705 -49.794  1.00  0.00     0.002 C 
HETATM   32  C   UNL     1     -41.699  56.253 -50.468  1.00  0.00     0.000 C 
HETATM   33  C   UNL     1     -42.199  55.326 -51.572  1.00  0.00     0.002 C 
HETATM   34  C   UNL     1     -42.393  53.903 -51.051  1.00  0.00     0.020 C 
ENDBRANCH  27  29
ENDBRANCH  25  27
ENDBRANCH  23  25
ENDBRANCH   5  23
TORSDOF 9
ENDMDL
MODEL 6
REMARK VINA RESULT:      -6.9      2.503      4.122
REMARK  9 active torsions:
REMARK  status: ('A' for Active; 'I' for Inactive)
REMARK    1  A    between atoms: C_2  and  C_3 
REMARK       I    between atoms: C_3  and  N_4 
REMARK    2  A    between atoms: N_4  and  N_5 
REMARK    3  A    between atoms: N_5  and  C_6 
REMARK    4  A    between atoms: C_6  and  N_7 
REMARK    5  A    between atoms: N_7  and  C_8 
REMARK    6  A    between atoms: C_18  and  N_19 
REMARK    7  A    between atoms: N_19  and  C_20 
REMARK    8  A    between atoms: C_20  and  N_21 
REMARK    9  A    between atoms: N_21  and  C_22 
ROOT
HETATM    1  C   UNL     1     -43.186  54.587 -54.478  1.00  0.00     0.019 A 
HETATM    2  C   UNL     1     -42.380  55.442 -55.234  1.00  0.00     0.033 A 
HETATM    3  C   UNL     1     -41.281  56.056 -54.621  1.00  0.00     0.019 A 
HETATM    4  C   UNL     1     -41.005  55.841 -53.263  1.00  0.00     0.030 A 
HETATM    5  C   UNL     1     -41.827  55.015 -52.499  1.00  0.00     0.033 A 
HETATM    6  C   UNL     1     -42.909  54.380 -53.122  1.00  0.00     0.030 A 
ENDROOT
BRANCH   2   7
HETATM    7  C   UNL     1     -42.622  55.695 -56.684  1.00  0.00     0.270 C 
HETATM    8  N   UNL     1     -42.033  56.823 -57.222  1.00  0.00    -0.264 N 
HETATM    9  H   UNL     1     -41.476  57.489 -56.700  1.00  0.00     0.190 HD
HETATM   10  O   UNL     1     -43.303  54.923 -57.355  1.00  0.00    -0.266 OA
BRANCH   8  11
HETATM   11  N   UNL     1     -42.358  57.187 -58.536  1.00  0.00    -0.274 N 
HETATM   12  H   UNL     1     -42.655  56.402 -59.106  1.00  0.00     0.189 HD
BRANCH  11  13
HETATM   13  C   UNL     1     -42.927  58.398 -58.792  1.00  0.00     0.186 C 
HETATM   14  S   UNL     1     -42.242  59.599 -59.740  1.00  0.00    -0.040 SA
BRANCH  13  15
HETATM   15  N   UNL     1     -44.168  58.627 -58.294  1.00  0.00    -0.361 N 
HETATM   16  H   UNL     1     -44.868  58.079 -58.781  1.00  0.00     0.162 HD
BRANCH  15  17
HETATM   17  C   UNL     1     -44.648  59.286 -57.071  1.00  0.00     0.083 C 
HETATM   18  C   UNL     1     -45.713  58.478 -56.316  1.00  0.00     0.025 C 
HETATM   19  C   UNL     1     -45.215  57.742 -55.079  1.00  0.00     0.002 C 
HETATM   20  C   UNL     1     -44.399  58.655 -54.179  1.00  0.00     0.000 C 
HETATM   21  C   UNL     1     -43.187  59.213 -54.909  1.00  0.00     0.002 C 
HETATM   22  C   UNL     1     -43.549  59.926 -56.209  1.00  0.00     0.025 C 
ENDBRANCH  15  17
ENDBRANCH  13  15
ENDBRANCH  11  13
ENDBRANCH   8  11
ENDBRANCH   2   7
BRANCH   5  23
HETATM   23  N   UNL     1     -41.614  54.695 -51.145  1.00  0.00    -0.338 N 
HETATM   24  H   UNL     1     -41.847  55.429 -50.493  1.00  0.00     0.168 HD
BRANCH  23  25
HETATM   25  C   UNL     1     -40.958  53.670 -50.527  1.00  0.00     0.151 C 
HETATM   26  S   UNL     1     -40.499  53.534 -48.930  1.00  0.00    -0.047 SA
BRANCH  25  27
HETATM   27  N   UNL     1     -40.769  52.564 -51.327  1.00  0.00    -0.265 NA
HETATM   28  H   UNL     1     -41.049  51.749 -50.789  1.00  0.00     0.130 HD
BRANCH  27  29
HETATM   29  C   UNL     1     -39.556  52.280 -52.125  1.00  0.00     0.062 C 
HETATM   30  C   UNL     1     -39.084  50.844 -51.827  1.00  0.00     0.020 C 
HETATM   31  C   UNL     1     -39.996  49.791 -52.462  1.00  0.00     0.002 C 
HETATM   32  C   UNL     1     -40.150  50.004 -53.964  1.00  0.00     0.000 C 
HETATM   33  C   UNL     1     -40.595  51.427 -54.291  1.00  0.00     0.002 C 
HETATM   34  C   UNL     1     -39.667  52.456 -53.649  1.00  0.00     0.020 C 
ENDBRANCH  27  29
ENDBRANCH  25  27
ENDBRANCH  23  25
ENDBRANCH   5  23
TORSDOF 9
ENDMDL
MODEL 7
REMARK VINA RESULT:      -6.8      3.148      4.149
REMARK  9 active torsions:
REMARK  status: ('A' for Active; 'I' for Inactive)
REMARK    1  A    between atoms: C_2  and  C_3 
REMARK       I    between atoms: C_3  and  N_4 
REMARK    2  A    between atoms: N_4  and  N_5 
REMARK    3  A    between atoms: N_5  and  C_6 
REMARK    4  A    between atoms: C_6  and  N_7 
REMARK    5  A    between atoms: N_7  and  C_8 
REMARK    6  A    between atoms: C_18  and  N_19 
REMARK    7  A    between atoms: N_19  and  C_20 
REMARK    8  A    between atoms: C_20  and  N_21 
REMARK    9  A    between atoms: N_21  and  C_22 
ROOT
HETATM    1  C   UNL     1     -40.916  59.074 -52.628  1.00  0.00     0.019 A 
HETATM    2  C   UNL     1     -42.201  59.432 -53.046  1.00  0.00     0.033 A 
HETATM    3  C   UNL     1     -43.306  58.845 -52.417  1.00  0.00     0.019 A 
HETATM    4  C   UNL     1     -43.133  57.893 -51.402  1.00  0.00     0.030 A 
HETATM    5  C   UNL     1     -41.852  57.510 -51.007  1.00  0.00     0.033 A 
HETATM    6  C   UNL     1     -40.749  58.120 -51.617  1.00  0.00     0.030 A 
ENDROOT
BRANCH   2   7
HETATM    7  C   UNL     1     -42.441  60.447 -54.111  1.00  0.00     0.270 C 
HETATM    8  N   UNL     1     -41.903  60.178 -55.354  1.00  0.00    -0.264 N 
HETATM    9  H   UNL     1     -41.347  59.361 -55.579  1.00  0.00     0.190 HD
HETATM   10  O   UNL     1     -43.097  61.460 -53.882  1.00  0.00    -0.266 OA
BRANCH   8  11
HETATM   11  N   UNL     1     -41.968  61.171 -56.342  1.00  0.00    -0.274 N 
HETATM   12  H   UNL     1     -41.685  62.086 -56.007  1.00  0.00     0.189 HD
BRANCH  11  13
HETATM   13  C   UNL     1     -41.690  60.866 -57.641  1.00  0.00     0.186 C 
HETATM   14  S   UNL     1     -41.207  61.973 -58.804  1.00  0.00    -0.040 SA
BRANCH  13  15
HETATM   15  N   UNL     1     -41.748  59.561 -58.007  1.00  0.00    -0.361 N 
HETATM   16  H   UNL     1     -40.946  59.045 -57.662  1.00  0.00     0.162 HD
BRANCH  15  17
HETATM   17  C   UNL     1     -42.823  58.725 -58.558  1.00  0.00     0.083 C 
HETATM   18  C   UNL     1     -42.558  58.250 -59.993  1.00  0.00     0.025 C 
HETATM   19  C   UNL     1     -42.098  56.803 -60.125  1.00  0.00     0.002 C 
HETATM   20  C   UNL     1     -42.990  55.862 -59.332  1.00  0.00     0.000 C 
HETATM   21  C   UNL     1     -42.994  56.217 -57.854  1.00  0.00     0.002 C 
HETATM   22  C   UNL     1     -43.381  57.670 -57.590  1.00  0.00     0.025 C 
ENDBRANCH  15  17
ENDBRANCH  13  15
ENDBRANCH  11  13
ENDBRANCH   8  11
ENDBRANCH   2   7
BRANCH   5  23
HETATM   23  N   UNL     1     -41.566  56.603 -49.970  1.00  0.00    -0.338 N 
HETATM   24  H   UNL     1     -41.623  56.991 -49.040  1.00  0.00     0.168 HD
BRANCH  23  25
HETATM   25  C   UNL     1     -41.020  55.352 -49.955  1.00  0.00     0.151 C 
HETATM   26  S   UNL     1     -40.756  54.342 -48.655  1.00  0.00    -0.047 SA
BRANCH  25  27
HETATM   27  N   UNL     1     -40.775  54.835 -51.209  1.00  0.00    -0.265 NA
HETATM   28  H   UNL     1     -40.748  55.615 -51.858  1.00  0.00     0.130 HD
BRANCH  27  29
HETATM   29  C   UNL     1     -41.468  53.672 -51.806  1.00  0.00     0.062 C 
HETATM   30  C   UNL     1     -42.835  54.127 -52.349  1.00  0.00     0.020 C 
HETATM   31  C   UNL     1     -42.703  54.963 -53.626  1.00  0.00     0.002 C 
HETATM   32  C   UNL     1     -41.914  54.230 -54.705  1.00  0.00     0.000 C 
HETATM   33  C   UNL     1     -40.562  53.746 -54.188  1.00  0.00     0.002 C 
HETATM   34  C   UNL     1     -40.723  52.914 -52.918  1.00  0.00     0.020 C 
ENDBRANCH  27  29
ENDBRANCH  25  27
ENDBRANCH  23  25
ENDBRANCH   5  23
TORSDOF 9
ENDMDL
MODEL 8
REMARK VINA RESULT:      -6.6      2.776      8.028
REMARK  9 active torsions:
REMARK  status: ('A' for Active; 'I' for Inactive)
REMARK    1  A    between atoms: C_2  and  C_3 
REMARK       I    between atoms: C_3  and  N_4 
REMARK    2  A    between atoms: N_4  and  N_5 
REMARK    3  A    between atoms: N_5  and  C_6 
REMARK    4  A    between atoms: C_6  and  N_7 
REMARK    5  A    between atoms: N_7  and  C_8 
REMARK    6  A    between atoms: C_18  and  N_19 
REMARK    7  A    between atoms: N_19  and  C_20 
REMARK    8  A    between atoms: C_20  and  N_21 
REMARK    9  A    between atoms: N_21  and  C_22 
ROOT
HETATM    1  C   UNL     1     -41.540  58.565 -52.995  1.00  0.00     0.019 A 
HETATM    2  C   UNL     1     -42.746  58.102 -52.460  1.00  0.00     0.033 A 
HETATM    3  C   UNL     1     -43.939  58.384 -53.135  1.00  0.00     0.019 A 
HETATM    4  C   UNL     1     -43.935  59.141 -54.315  1.00  0.00     0.030 A 
HETATM    5  C   UNL     1     -42.737  59.632 -54.833  1.00  0.00     0.033 A 
HETATM    6  C   UNL     1     -41.541  59.323 -54.171  1.00  0.00     0.030 A 
ENDROOT
BRANCH   2   7
HETATM    7  C   UNL     1     -42.806  57.283 -51.215  1.00  0.00     0.270 C 
HETATM    8  N   UNL     1     -41.604  57.032 -50.582  1.00  0.00    -0.264 N 
HETATM    9  H   UNL     1     -40.699  57.343 -50.914  1.00  0.00     0.190 HD
HETATM   10  O   UNL     1     -43.878  56.871 -50.781  1.00  0.00    -0.266 OA
BRANCH   8  11
HETATM   11  N   UNL     1     -41.590  56.140 -49.500  1.00  0.00    -0.274 N 
HETATM   12  H   UNL     1     -42.462  56.128 -48.981  1.00  0.00     0.189 HD
BRANCH  11  13
HETATM   13  C   UNL     1     -40.895  54.971 -49.584  1.00  0.00     0.186 C 
HETATM   14  S   UNL     1     -40.463  54.016 -48.274  1.00  0.00    -0.040 SA
BRANCH  13  15
HETATM   15  N   UNL     1     -40.581  54.513 -50.821  1.00  0.00    -0.361 N 
HETATM   16  H   UNL     1     -39.642  54.788 -51.089  1.00  0.00     0.162 HD
BRANCH  15  17
HETATM   17  C   UNL     1     -41.203  53.519 -51.707  1.00  0.00     0.083 C 
HETATM   18  C   UNL     1     -42.596  53.928 -52.207  1.00  0.00     0.025 C 
HETATM   19  C   UNL     1     -42.646  54.444 -53.640  1.00  0.00     0.002 C 
HETATM   20  C   UNL     1     -41.911  53.514 -54.591  1.00  0.00     0.000 C 
HETATM   21  C   UNL     1     -40.449  53.364 -54.201  1.00  0.00     0.002 C 
HETATM   22  C   UNL     1     -40.261  52.910 -52.756  1.00  0.00     0.025 C 
ENDBRANCH  15  17
ENDBRANCH  13  15
ENDBRANCH  11  13
ENDBRANCH   8  11
ENDBRANCH   2   7
BRANCH   5  23
HETATM   23  N   UNL     1     -42.614  60.357 -56.032  1.00  0.00    -0.338 N 
HETATM   24  H   UNL     1     -41.941  61.109 -56.006  1.00  0.00     0.168 HD
BRANCH  23  25
HETATM   25  C   UNL     1     -43.364  60.399 -57.172  1.00  0.00     0.151 C 
HETATM   26  S   UNL     1     -44.144  61.701 -57.862  1.00  0.00    -0.047 SA
BRANCH  25  27
HETATM   27  N   UNL     1     -43.356  59.223 -57.889  1.00  0.00    -0.265 NA
HETATM   28  H   UNL     1     -44.150  58.672 -57.575  1.00  0.00     0.130 HD
BRANCH  27  29
HETATM   29  C   UNL     1     -42.173  58.365 -58.117  1.00  0.00     0.062 C 
HETATM   30  C   UNL     1     -42.350  57.048 -57.338  1.00  0.00     0.020 C 
HETATM   31  C   UNL     1     -43.394  56.130 -57.980  1.00  0.00     0.002 C 
HETATM   32  C   UNL     1     -43.077  55.848 -59.445  1.00  0.00     0.000 C 
HETATM   33  C   UNL     1     -42.873  57.136 -60.238  1.00  0.00     0.002 C 
HETATM   34  C   UNL     1     -41.826  58.030 -59.577  1.00  0.00     0.020 C 
ENDBRANCH  27  29
ENDBRANCH  25  27
ENDBRANCH  23  25
ENDBRANCH   5  23
TORSDOF 9
ENDMDL
MODEL 9
REMARK VINA RESULT:      -6.6      2.760      3.878
REMARK  9 active torsions:
REMARK  status: ('A' for Active; 'I' for Inactive)
REMARK    1  A    between atoms: C_2  and  C_3 
REMARK       I    between atoms: C_3  and  N_4 
REMARK    2  A    between atoms: N_4  and  N_5 
REMARK    3  A    between atoms: N_5  and  C_6 
REMARK    4  A    between atoms: C_6  and  N_7 
REMARK    5  A    between atoms: N_7  and  C_8 
REMARK    6  A    between atoms: C_18  and  N_19 
REMARK    7  A    between atoms: N_19  and  C_20 
REMARK    8  A    between atoms: C_20  and  N_21 
REMARK    9  A    between atoms: N_21  and  C_22 
ROOT
HETATM    1  C   UNL     1     -41.115  56.073 -54.237  1.00  0.00     0.019 A 
HETATM    2  C   UNL     1     -42.297  56.148 -54.978  1.00  0.00     0.033 A 
HETATM    3  C   UNL     1     -43.416  55.426 -54.543  1.00  0.00     0.019 A 
HETATM    4  C   UNL     1     -43.349  54.618 -53.399  1.00  0.00     0.030 A 
HETATM    5  C   UNL     1     -42.160  54.516 -52.678  1.00  0.00     0.033 A 
HETATM    6  C   UNL     1     -41.052  55.262 -53.098  1.00  0.00     0.030 A 
ENDROOT
BRANCH   2   7
HETATM    7  C   UNL     1     -42.426  57.001 -56.194  1.00  0.00     0.270 C 
HETATM    8  N   UNL     1     -42.213  56.382 -57.410  1.00  0.00    -0.264 N 
HETATM    9  H   UNL     1     -41.957  55.408 -57.525  1.00  0.00     0.190 HD
HETATM   10  O   UNL     1     -42.720  58.191 -56.103  1.00  0.00    -0.266 OA
BRANCH   8  11
HETATM   11  N   UNL     1     -42.168  57.172 -58.567  1.00  0.00    -0.274 N 
HETATM   12  H   UNL     1     -41.319  57.041 -59.107  1.00  0.00     0.189 HD
BRANCH  11  13
HETATM   13  C   UNL     1     -43.312  57.447 -59.254  1.00  0.00     0.186 C 
HETATM   14  S   UNL     1     -44.061  56.399 -60.328  1.00  0.00    -0.040 SA
BRANCH  13  15
HETATM   15  N   UNL     1     -43.926  58.631 -59.007  1.00  0.00    -0.361 N 
HETATM   16  H   UNL     1     -44.489  58.585 -58.165  1.00  0.00     0.162 HD
BRANCH  15  17
HETATM   17  C   UNL     1     -43.740  59.985 -59.547  1.00  0.00     0.083 C 
HETATM   18  C   UNL     1     -42.957  60.917 -58.611  1.00  0.00     0.025 C 
HETATM   19  C   UNL     1     -41.500  61.147 -58.994  1.00  0.00     0.002 C 
HETATM   20  C   UNL     1     -41.361  61.509 -60.463  1.00  0.00     0.000 C 
HETATM   21  C   UNL     1     -41.910  60.410 -61.359  1.00  0.00     0.002 C 
HETATM   22  C   UNL     1     -43.355  60.040 -61.033  1.00  0.00     0.025 C 
ENDBRANCH  15  17
ENDBRANCH  13  15
ENDBRANCH  11  13
ENDBRANCH   8  11
ENDBRANCH   2   7
BRANCH   5  23
HETATM   23  N   UNL     1     -41.998  53.775 -51.493  1.00  0.00    -0.338 N 
HETATM   24  H   UNL     1     -42.845  53.631 -50.963  1.00  0.00     0.168 HD
BRANCH  23  25
HETATM   25  C   UNL     1     -40.897  53.379 -50.789  1.00  0.00     0.151 C 
HETATM   26  S   UNL     1     -40.150  54.135 -49.505  1.00  0.00    -0.047 SA
BRANCH  25  27
HETATM   27  N   UNL     1     -40.437  52.126 -51.131  1.00  0.00    -0.265 NA
HETATM   28  H   UNL     1     -40.391  51.577 -50.278  1.00  0.00     0.130 HD
BRANCH  27  29
HETATM   29  C   UNL     1     -39.274  51.848 -52.003  1.00  0.00     0.062 C 
HETATM   30  C   UNL     1     -38.905  50.357 -51.886  1.00  0.00     0.020 C 
HETATM   31  C   UNL     1     -39.914  49.452 -52.598  1.00  0.00     0.002 C 
HETATM   32  C   UNL     1     -40.097  49.847 -54.061  1.00  0.00     0.000 C 
HETATM   33  C   UNL     1     -40.441  51.327 -54.208  1.00  0.00     0.002 C 
HETATM   34  C   UNL     1     -39.418  52.205 -53.491  1.00  0.00     0.020 C 
ENDBRANCH  27  29
ENDBRANCH  25  27
ENDBRANCH  23  25
ENDBRANCH   5  23
TORSDOF 9
ENDMDL
MODEL 10
REMARK VINA RESULT:      -6.6      2.742      8.300
REMARK  9 active torsions:
REMARK  status: ('A' for Active; 'I' for Inactive)
REMARK    1  A    between atoms: C_2  and  C_3 
REMARK       I    between atoms: C_3  and  N_4 
REMARK    2  A    between atoms: N_4  and  N_5 
REMARK    3  A    between atoms: N_5  and  C_6 
REMARK    4  A    between atoms: C_6  and  N_7 
REMARK    5  A    between atoms: N_7  and  C_8 
REMARK    6  A    between atoms: C_18  and  N_19 
REMARK    7  A    between atoms: N_19  and  C_20 
REMARK    8  A    between atoms: C_20  and  N_21 
REMARK    9  A    between atoms: N_21  and  C_22 
ROOT
HETATM    1  C   UNL     1     -41.459  57.266 -53.592  1.00  0.00     0.019 A 
HETATM    2  C   UNL     1     -42.726  56.844 -53.179  1.00  0.00     0.033 A 
HETATM    3  C   UNL     1     -43.854  57.528 -53.647  1.00  0.00     0.019 A 
HETATM    4  C   UNL     1     -43.720  58.637 -54.495  1.00  0.00     0.030 A 
HETATM    5  C   UNL     1     -42.456  59.080 -54.881  1.00  0.00     0.033 A 
HETATM    6  C   UNL     1     -41.331  58.375 -54.435  1.00  0.00     0.030 A 
ENDROOT
BRANCH   2   7
HETATM    7  C   UNL     1     -42.924  55.664 -52.288  1.00  0.00     0.270 C 
HETATM    8  N   UNL     1     -42.548  55.816 -50.968  1.00  0.00    -0.264 N 
HETATM    9  H   UNL     1     -42.132  56.653 -50.578  1.00  0.00     0.190 HD
HETATM   10  O   UNL     1     -43.411  54.622 -52.719  1.00  0.00    -0.266 OA
BRANCH   8  11
HETATM   11  N   UNL     1     -42.569  54.691 -50.131  1.00  0.00    -0.274 N 
HETATM   12  H   UNL     1     -43.460  54.207 -50.135  1.00  0.00     0.189 HD
BRANCH  11  13
HETATM   13  C   UNL     1     -41.447  53.935 -49.970  1.00  0.00     0.186 C 
HETATM   14  S   UNL     1     -40.390  54.052 -48.673  1.00  0.00    -0.040 SA
BRANCH  13  15
HETATM   15  N   UNL     1     -41.197  52.974 -50.893  1.00  0.00    -0.361 N 
HETATM   16  H   UNL     1     -42.024  52.416 -51.078  1.00  0.00     0.162 HD
BRANCH  15  17
HETATM   17  C   UNL     1     -40.088  52.753 -51.832  1.00  0.00     0.083 C 
HETATM   18  C   UNL     1     -39.359  51.419 -51.618  1.00  0.00     0.025 C 
HETATM   19  C   UNL     1     -39.709  50.321 -52.614  1.00  0.00     0.002 C 
HETATM   20  C   UNL     1     -39.639  50.825 -54.046  1.00  0.00     0.000 C 
HETATM   21  C   UNL     1     -40.598  51.983 -54.273  1.00  0.00     0.002 C 
HETATM   22  C   UNL     1     -40.391  53.132 -53.290  1.00  0.00     0.025 C 
ENDBRANCH  15  17
ENDBRANCH  13  15
ENDBRANCH  11  13
ENDBRANCH   8  11
ENDBRANCH   2   7
BRANCH   5  23
HETATM   23  N   UNL     1     -42.211  60.148 -55.764  1.00  0.00    -0.338 N 
HETATM   24  H   UNL     1     -41.769  60.952 -55.345  1.00  0.00     0.168 HD
BRANCH  23  25
HETATM   25  C   UNL     1     -42.633  60.417 -57.034  1.00  0.00     0.151 C 
HETATM   26  S   UNL     1     -43.131  61.869 -57.685  1.00  0.00    -0.047 SA
BRANCH  25  27
HETATM   27  N   UNL     1     -42.506  59.354 -57.902  1.00  0.00    -0.265 NA
HETATM   28  H   UNL     1     -41.753  59.577 -58.546  1.00  0.00     0.130 HD
BRANCH  27  29
HETATM   29  C   UNL     1     -43.621  58.682 -58.605  1.00  0.00     0.062 C 
HETATM   30  C   UNL     1     -43.186  58.364 -60.048  1.00  0.00     0.020 C 
HETATM   31  C   UNL     1     -42.183  57.209 -60.109  1.00  0.00     0.002 C 
HETATM   32  C   UNL     1     -42.715  55.956 -59.420  1.00  0.00     0.000 C 
HETATM   33  C   UNL     1     -43.175  56.248 -57.995  1.00  0.00     0.002 C 
HETATM   34  C   UNL     1     -44.177  57.400 -57.963  1.00  0.00     0.020 C 
ENDBRANCH  27  29
ENDBRANCH  25  27
ENDBRANCH  23  25
ENDBRANCH   5  23
TORSDOF 9
ENDMDL
