MODEL 1
REMARK VINA RESULT:      -8.6      0.000      0.000
REMARK  8 active torsions:
REMARK  status: ('A' for Active; 'I' for Inactive)
REMARK    1  A    between atoms: C_3  and  S_4 
REMARK    2  A    between atoms: S_4  and  C_5 
REMARK    3  A    between atoms: C_5  and  C_6 
REMARK       I    between atoms: C_6  and  N_7 
REMARK    4  A    between atoms: N_7  and  C_8 
REMARK    5  A    between atoms: C_8  and  C_9 
REMARK    6  A    between atoms: C_9  and  C_10 
REMARK    7  A    between atoms: C_19  and  C_20 
REMARK    8  A    between atoms: C_25  and  O_26 
ROOT
HETATM    1  C   UNL     1     -42.372  58.781 -52.337  1.00  0.00     0.160 C 
HETATM    2  N   UNL     1     -43.518  58.233 -51.659  1.00  0.00    -0.310 N 
HETATM    3  C   UNL     1     -44.626  58.884 -51.189  1.00  0.00     0.191 A 
HETATM    4  N   UNL     1     -45.455  58.019 -50.650  1.00  0.00    -0.122 NA
HETATM    5  N   UNL     1     -44.878  56.780 -50.729  1.00  0.00    -0.126 NA
HETATM    6  C   UNL     1     -43.717  56.908 -51.345  1.00  0.00     0.188 A 
ENDROOT
BRANCH   3   7
HETATM    7  S   UNL     1     -44.876  60.592 -51.268  1.00  0.00    -0.081 SA
BRANCH   7   8
HETATM    8  C   UNL     1     -44.099  61.145 -49.723  1.00  0.00     0.185 C 
BRANCH   8   9
HETATM    9  C   UNL     1     -45.084  61.191 -48.567  1.00  0.00     0.227 C 
HETATM   10  N   UNL     1     -44.520  61.103 -47.316  1.00  0.00    -0.360 N 
HETATM   11  H   UNL     1     -43.503  61.087 -47.238  1.00  0.00     0.162 HD
HETATM   12  O   UNL     1     -46.299  61.245 -48.749  1.00  0.00    -0.273 OA
BRANCH  10  13
HETATM   13  C   UNL     1     -45.299  61.002 -46.099  1.00  0.00     0.127 C 
BRANCH  13  14
HETATM   14  C   UNL     1     -45.717  62.384 -45.594  1.00  0.00     0.058 C 
BRANCH  14  15
HETATM   15  C   UNL     1     -44.779  62.913 -44.540  1.00  0.00    -0.057 A 
HETATM   16  C   UNL     1     -44.017  62.033 -43.760  1.00  0.00     0.007 A 
HETATM   17  C   UNL     1     -43.156  62.525 -42.779  1.00  0.00     0.001 A 
HETATM   18  C   UNL     1     -43.053  63.898 -42.563  1.00  0.00     0.000 A 
HETATM   19  C   UNL     1     -43.813  64.782 -43.329  1.00  0.00     0.001 A 
HETATM   20  C   UNL     1     -44.673  64.292 -44.311  1.00  0.00     0.007 A 
ENDBRANCH  14  15
ENDBRANCH  13  14
ENDBRANCH  10  13
ENDBRANCH   8   9
ENDBRANCH   7   8
ENDBRANCH   3   7
BRANCH   6  21
HETATM   21  C   UNL     1     -42.834  55.818 -51.619  1.00  0.00     0.125 A 
HETATM   22  O   UNL     1     -41.856  55.397 -50.756  1.00  0.00    -0.303 OA
HETATM   23  C   UNL     1     -41.195  54.355 -51.339  1.00  0.00     0.119 A 
HETATM   24  C   UNL     1     -41.749  54.083 -52.583  1.00  0.00     0.003 A 
HETATM   25  C   UNL     1     -40.114  53.661 -50.781  1.00  0.00     0.102 A 
HETATM   26  C   UNL     1     -42.793  55.027 -52.756  1.00  0.00     0.055 A 
HETATM   27  C   UNL     1     -41.214  53.034 -53.346  1.00  0.00     0.014 A 
HETATM   28  C   UNL     1     -40.139  52.307 -52.820  1.00  0.00     0.004 A 
HETATM   29  C   UNL     1     -39.601  52.615 -51.563  1.00  0.00     0.040 A 
BRANCH  25  30
HETATM   30  O   UNL     1     -39.664  54.041 -49.549  1.00  0.00    -0.353 OA
HETATM   31  C   UNL     1     -40.411  53.587 -48.427  1.00  0.00     0.210 C 
ENDBRANCH  25  30
ENDBRANCH   6  21
TORSDOF 8
ENDMDL
MODEL 2
REMARK VINA RESULT:      -8.5      6.039     10.123
REMARK  8 active torsions:
REMARK  status: ('A' for Active; 'I' for Inactive)
REMARK    1  A    between atoms: C_3  and  S_4 
REMARK    2  A    between atoms: S_4  and  C_5 
REMARK    3  A    between atoms: C_5  and  C_6 
REMARK       I    between atoms: C_6  and  N_7 
REMARK    4  A    between atoms: N_7  and  C_8 
REMARK    5  A    between atoms: C_8  and  C_9 
REMARK    6  A    between atoms: C_9  and  C_10 
REMARK    7  A    between atoms: C_19  and  C_20 
REMARK    8  A    between atoms: C_25  and  O_26 
ROOT
HETATM    1  C   UNL     1     -44.064  57.428 -54.013  1.00  0.00     0.160 C 
HETATM    2  N   UNL     1     -42.770  56.798 -54.068  1.00  0.00    -0.310 N 
HETATM    3  C   UNL     1     -41.857  56.630 -53.065  1.00  0.00     0.191 A 
HETATM    4  N   UNL     1     -40.807  55.985 -53.521  1.00  0.00    -0.122 NA
HETATM    5  N   UNL     1     -41.006  55.751 -54.855  1.00  0.00    -0.126 NA
HETATM    6  C   UNL     1     -42.192  56.232 -55.182  1.00  0.00     0.188 A 
ENDROOT
BRANCH   3   7
HETATM    7  S   UNL     1     -42.048  57.208 -51.448  1.00  0.00    -0.081 SA
BRANCH   7   8
HETATM    8  C   UNL     1     -43.284  56.050 -50.792  1.00  0.00     0.185 C 
BRANCH   8   9
HETATM    9  C   UNL     1     -42.783  54.616 -50.787  1.00  0.00     0.227 C 
HETATM   10  N   UNL     1     -41.602  54.414 -50.112  1.00  0.00    -0.360 N 
HETATM   11  H   UNL     1     -41.184  55.197 -49.610  1.00  0.00     0.162 HD
HETATM   12  O   UNL     1     -43.368  53.720 -51.393  1.00  0.00    -0.273 OA
BRANCH  10  13
HETATM   13  C   UNL     1     -40.901  53.145 -50.102  1.00  0.00     0.127 C 
BRANCH  13  14
HETATM   14  C   UNL     1     -39.724  53.157 -51.079  1.00  0.00     0.058 C 
BRANCH  14  15
HETATM   15  C   UNL     1     -39.842  52.079 -52.126  1.00  0.00    -0.057 A 
HETATM   16  C   UNL     1     -40.401  52.364 -53.378  1.00  0.00     0.007 A 
HETATM   17  C   UNL     1     -40.518  51.363 -54.343  1.00  0.00     0.001 A 
HETATM   18  C   UNL     1     -40.084  50.068 -54.063  1.00  0.00     0.000 A 
HETATM   19  C   UNL     1     -39.534  49.773 -52.816  1.00  0.00     0.001 A 
HETATM   20  C   UNL     1     -39.415  50.773 -51.851  1.00  0.00     0.007 A 
ENDBRANCH  14  15
ENDBRANCH  13  14
ENDBRANCH  10  13
ENDBRANCH   8   9
ENDBRANCH   7   8
ENDBRANCH   3   7
BRANCH   6  21
HETATM   21  C   UNL     1     -42.749  56.160 -56.497  1.00  0.00     0.125 A 
HETATM   22  O   UNL     1     -42.995  57.258 -57.279  1.00  0.00    -0.303 OA
HETATM   23  C   UNL     1     -43.540  56.829 -58.454  1.00  0.00     0.119 A 
HETATM   24  C   UNL     1     -43.639  55.444 -58.449  1.00  0.00     0.003 A 
HETATM   25  C   UNL     1     -43.948  57.651 -59.511  1.00  0.00     0.102 A 
HETATM   26  C   UNL     1     -43.135  55.025 -57.191  1.00  0.00     0.055 A 
HETATM   27  C   UNL     1     -44.168  54.800 -59.578  1.00  0.00     0.014 A 
HETATM   28  C   UNL     1     -44.579  55.585 -60.662  1.00  0.00     0.004 A 
HETATM   29  C   UNL     1     -44.471  56.982 -60.628  1.00  0.00     0.040 A 
BRANCH  25  30
HETATM   30  O   UNL     1     -43.801  59.003 -59.378  1.00  0.00    -0.353 OA
HETATM   31  C   UNL     1     -42.607  59.570 -59.903  1.00  0.00     0.210 C 
ENDBRANCH  25  30
ENDBRANCH   6  21
TORSDOF 8
ENDMDL
MODEL 3
REMARK VINA RESULT:      -8.5      5.948     10.362
REMARK  8 active torsions:
REMARK  status: ('A' for Active; 'I' for Inactive)
REMARK    1  A    between atoms: C_3  and  S_4 
REMARK    2  A    between atoms: S_4  and  C_5 
REMARK    3  A    between atoms: C_5  and  C_6 
REMARK       I    between atoms: C_6  and  N_7 
REMARK    4  A    between atoms: N_7  and  C_8 
REMARK    5  A    between atoms: C_8  and  C_9 
REMARK    6  A    between atoms: C_9  and  C_10 
REMARK    7  A    between atoms: C_19  and  C_20 
REMARK    8  A    between atoms: C_25  and  O_26 
ROOT
HETATM    1  C   UNL     1     -44.305  57.203 -54.299  1.00  0.00     0.160 C 
HETATM    2  N   UNL     1     -43.271  58.057 -54.821  1.00  0.00    -0.310 N 
HETATM    3  C   UNL     1     -42.454  58.922 -54.148  1.00  0.00     0.191 A 
HETATM    4  N   UNL     1     -41.628  59.501 -54.989  1.00  0.00    -0.122 NA
HETATM    5  N   UNL     1     -41.921  59.045 -56.246  1.00  0.00    -0.126 NA
HETATM    6  C   UNL     1     -42.904  58.169 -56.144  1.00  0.00     0.188 A 
ENDROOT
BRANCH   3   7
HETATM    7  S   UNL     1     -42.523  59.225 -52.448  1.00  0.00    -0.081 SA
BRANCH   7   8
HETATM    8  C   UNL     1     -41.161  58.189 -51.839  1.00  0.00     0.185 C 
BRANCH   8   9
HETATM    9  C   UNL     1     -41.565  56.730 -51.702  1.00  0.00     0.227 C 
HETATM   10  N   UNL     1     -41.103  55.902 -52.699  1.00  0.00    -0.360 N 
HETATM   11  H   UNL     1     -40.478  56.289 -53.406  1.00  0.00     0.162 HD
HETATM   12  O   UNL     1     -42.297  56.340 -50.796  1.00  0.00    -0.273 OA
BRANCH  10  13
HETATM   13  C   UNL     1     -41.484  54.509 -52.813  1.00  0.00     0.127 C 
BRANCH  13  14
HETATM   14  C   UNL     1     -40.668  53.800 -53.894  1.00  0.00     0.058 C 
BRANCH  14  15
HETATM   15  C   UNL     1     -40.280  52.400 -53.490  1.00  0.00    -0.057 A 
HETATM   16  C   UNL     1     -40.338  51.351 -54.416  1.00  0.00     0.007 A 
HETATM   17  C   UNL     1     -39.987  50.055 -54.037  1.00  0.00     0.001 A 
HETATM   18  C   UNL     1     -39.584  49.794 -52.728  1.00  0.00     0.000 A 
HETATM   19  C   UNL     1     -39.532  50.830 -51.796  1.00  0.00     0.001 A 
HETATM   20  C   UNL     1     -39.880  52.127 -52.175  1.00  0.00     0.007 A 
ENDBRANCH  14  15
ENDBRANCH  13  14
ENDBRANCH  10  13
ENDBRANCH   8   9
ENDBRANCH   7   8
ENDBRANCH   3   7
BRANCH   6  21
HETATM   21  C   UNL     1     -43.471  57.470 -57.255  1.00  0.00     0.125 A 
HETATM   22  O   UNL     1     -44.653  57.824 -57.851  1.00  0.00    -0.303 OA
HETATM   23  C   UNL     1     -44.902  56.940 -58.859  1.00  0.00     0.119 A 
HETATM   24  C   UNL     1     -43.873  56.010 -58.934  1.00  0.00     0.003 A 
HETATM   25  C   UNL     1     -46.025  56.951 -59.696  1.00  0.00     0.102 A 
HETATM   26  C   UNL     1     -42.965  56.355 -57.901  1.00  0.00     0.055 A 
HETATM   27  C   UNL     1     -43.934  55.012 -59.919  1.00  0.00     0.014 A 
HETATM   28  C   UNL     1     -45.035  54.995 -60.784  1.00  0.00     0.004 A 
HETATM   29  C   UNL     1     -46.059  55.945 -60.673  1.00  0.00     0.040 A 
BRANCH  25  30
HETATM   30  O   UNL     1     -46.968  57.921 -59.505  1.00  0.00    -0.353 OA
HETATM   31  C   UNL     1     -47.186  58.822 -60.583  1.00  0.00     0.210 C 
ENDBRANCH  25  30
ENDBRANCH   6  21
TORSDOF 8
ENDMDL
MODEL 4
REMARK VINA RESULT:      -8.3      2.797     10.334
REMARK  8 active torsions:
REMARK  status: ('A' for Active; 'I' for Inactive)
REMARK    1  A    between atoms: C_3  and  S_4 
REMARK    2  A    between atoms: S_4  and  C_5 
REMARK    3  A    between atoms: C_5  and  C_6 
REMARK       I    between atoms: C_6  and  N_7 
REMARK    4  A    between atoms: N_7  and  C_8 
REMARK    5  A    between atoms: C_8  and  C_9 
REMARK    6  A    between atoms: C_9  and  C_10 
REMARK    7  A    between atoms: C_19  and  C_20 
REMARK    8  A    between atoms: C_25  and  O_26 
ROOT
HETATM    1  C   UNL     1     -44.279  57.604 -51.304  1.00  0.00     0.160 C 
HETATM    2  N   UNL     1     -44.763  58.628 -52.192  1.00  0.00    -0.310 N 
HETATM    3  C   UNL     1     -44.902  58.587 -53.552  1.00  0.00     0.191 A 
HETATM    4  N   UNL     1     -45.400  59.724 -53.983  1.00  0.00    -0.122 NA
HETATM    5  N   UNL     1     -45.561  60.548 -52.902  1.00  0.00    -0.126 NA
HETATM    6  C   UNL     1     -45.187  59.886 -51.823  1.00  0.00     0.188 A 
ENDROOT
BRANCH   3   7
HETATM    7  S   UNL     1     -44.459  57.248 -54.550  1.00  0.00    -0.081 SA
BRANCH   7   8
HETATM    8  C   UNL     1     -42.747  57.668 -54.982  1.00  0.00     0.185 C 
BRANCH   8   9
HETATM    9  C   UNL     1     -41.737  56.879 -54.165  1.00  0.00     0.227 C 
HETATM   10  N   UNL     1     -41.641  55.546 -54.487  1.00  0.00    -0.360 N 
HETATM   11  H   UNL     1     -42.181  55.193 -55.277  1.00  0.00     0.162 HD
HETATM   12  O   UNL     1     -41.099  57.393 -53.247  1.00  0.00    -0.273 OA
BRANCH  10  13
HETATM   13  C   UNL     1     -40.831  54.605 -53.739  1.00  0.00     0.127 C 
BRANCH  13  14
HETATM   14  C   UNL     1     -40.402  53.427 -54.616  1.00  0.00     0.058 C 
BRANCH  14  15
HETATM   15  C   UNL     1     -40.103  52.193 -53.804  1.00  0.00    -0.057 A 
HETATM   16  C   UNL     1     -40.105  50.928 -54.407  1.00  0.00     0.007 A 
HETATM   17  C   UNL     1     -39.838  49.786 -53.652  1.00  0.00     0.001 A 
HETATM   18  C   UNL     1     -39.573  49.896 -52.289  1.00  0.00     0.000 A 
HETATM   19  C   UNL     1     -39.577  51.149 -51.677  1.00  0.00     0.001 A 
HETATM   20  C   UNL     1     -39.843  52.292 -52.431  1.00  0.00     0.007 A 
ENDBRANCH  14  15
ENDBRANCH  13  14
ENDBRANCH  10  13
ENDBRANCH   8   9
ENDBRANCH   7   8
ENDBRANCH   3   7
BRANCH   6  21
HETATM   21  C   UNL     1     -45.228  60.425 -50.500  1.00  0.00     0.125 A 
HETATM   22  O   UNL     1     -45.750  59.755 -49.423  1.00  0.00    -0.303 OA
HETATM   23  C   UNL     1     -45.643  60.563 -48.329  1.00  0.00     0.119 A 
HETATM   24  C   UNL     1     -45.037  61.761 -48.686  1.00  0.00     0.003 A 
HETATM   25  C   UNL     1     -46.081  60.248 -47.037  1.00  0.00     0.102 A 
HETATM   26  C   UNL     1     -44.780  61.665 -50.076  1.00  0.00     0.055 A 
HETATM   27  C   UNL     1     -44.825  62.732 -47.695  1.00  0.00     0.014 A 
HETATM   28  C   UNL     1     -45.239  62.452 -46.387  1.00  0.00     0.004 A 
HETATM   29  C   UNL     1     -45.854  61.235 -46.065  1.00  0.00     0.040 A 
BRANCH  25  30
HETATM   30  O   UNL     1     -46.670  59.033 -46.828  1.00  0.00    -0.353 OA
HETATM   31  C   UNL     1     -47.331  58.849 -45.583  1.00  0.00     0.210 C 
ENDBRANCH  25  30
ENDBRANCH   6  21
TORSDOF 8
ENDMDL
MODEL 5
REMARK VINA RESULT:      -8.2      6.118     10.092
REMARK  8 active torsions:
REMARK  status: ('A' for Active; 'I' for Inactive)
REMARK    1  A    between atoms: C_3  and  S_4 
REMARK    2  A    between atoms: S_4  and  C_5 
REMARK    3  A    between atoms: C_5  and  C_6 
REMARK       I    between atoms: C_6  and  N_7 
REMARK    4  A    between atoms: N_7  and  C_8 
REMARK    5  A    between atoms: C_8  and  C_9 
REMARK    6  A    between atoms: C_9  and  C_10 
REMARK    7  A    between atoms: C_19  and  C_20 
REMARK    8  A    between atoms: C_25  and  O_26 
ROOT
HETATM    1  C   UNL     1     -44.780  57.308 -53.876  1.00  0.00     0.160 C 
HETATM    2  N   UNL     1     -43.373  57.403 -53.585  1.00  0.00    -0.310 N 
HETATM    3  C   UNL     1     -42.744  57.330 -52.373  1.00  0.00     0.191 A 
HETATM    4  N   UNL     1     -41.446  57.443 -52.538  1.00  0.00    -0.122 NA
HETATM    5  N   UNL     1     -41.207  57.630 -53.873  1.00  0.00    -0.126 NA
HETATM    6  C   UNL     1     -42.366  57.597 -54.503  1.00  0.00     0.188 A 
ENDROOT
BRANCH   3   7
HETATM    7  S   UNL     1     -43.545  57.147 -50.853  1.00  0.00    -0.081 SA
BRANCH   7   8
HETATM    8  C   UNL     1     -43.834  55.355 -50.809  1.00  0.00     0.185 C 
BRANCH   8   9
HETATM    9  C   UNL     1     -42.702  54.573 -51.453  1.00  0.00     0.227 C 
HETATM   10  N   UNL     1     -41.484  54.686 -50.824  1.00  0.00    -0.360 N 
HETATM   11  H   UNL     1     -41.431  55.211 -49.951  1.00  0.00     0.162 HD
HETATM   12  O   UNL     1     -42.860  53.935 -52.492  1.00  0.00    -0.273 OA
BRANCH  10  13
HETATM   13  C   UNL     1     -40.260  54.121 -51.356  1.00  0.00     0.127 C 
BRANCH  13  14
HETATM   14  C   UNL     1     -40.026  52.708 -50.821  1.00  0.00     0.058 C 
BRANCH  14  15
HETATM   15  C   UNL     1     -39.896  51.693 -51.928  1.00  0.00    -0.057 A 
HETATM   16  C   UNL     1     -40.060  52.076 -53.265  1.00  0.00     0.007 A 
HETATM   17  C   UNL     1     -39.948  51.134 -54.288  1.00  0.00     0.001 A 
HETATM   18  C   UNL     1     -39.680  49.800 -53.984  1.00  0.00     0.000 A 
HETATM   19  C   UNL     1     -39.523  49.407 -52.655  1.00  0.00     0.001 A 
HETATM   20  C   UNL     1     -39.633  50.349 -51.632  1.00  0.00     0.007 A 
ENDBRANCH  14  15
ENDBRANCH  13  14
ENDBRANCH  10  13
ENDBRANCH   8   9
ENDBRANCH   7   8
ENDBRANCH   3   7
BRANCH   6  21
HETATM   21  C   UNL     1     -42.512  57.745 -55.918  1.00  0.00     0.125 A 
HETATM   22  O   UNL     1     -42.951  56.745 -56.745  1.00  0.00    -0.303 OA
HETATM   23  C   UNL     1     -42.952  57.221 -58.024  1.00  0.00     0.119 A 
HETATM   24  C   UNL     1     -42.525  58.542 -58.034  1.00  0.00     0.003 A 
HETATM   25  C   UNL     1     -43.320  56.495 -59.164  1.00  0.00     0.102 A 
HETATM   26  C   UNL     1     -42.241  58.867 -56.684  1.00  0.00     0.055 A 
HETATM   27  C   UNL     1     -42.463  59.223 -59.260  1.00  0.00     0.014 A 
HETATM   28  C   UNL     1     -42.833  58.537 -60.423  1.00  0.00     0.004 A 
HETATM   29  C   UNL     1     -43.252  57.201 -60.375  1.00  0.00     0.040 A 
BRANCH  25  30
HETATM   30  O   UNL     1     -43.714  55.197 -59.009  1.00  0.00    -0.353 OA
HETATM   31  C   UNL     1     -44.581  54.669 -60.004  1.00  0.00     0.210 C 
ENDBRANCH  25  30
ENDBRANCH   6  21
TORSDOF 8
ENDMDL
MODEL 6
REMARK VINA RESULT:      -8.1      6.311      9.498
REMARK  8 active torsions:
REMARK  status: ('A' for Active; 'I' for Inactive)
REMARK    1  A    between atoms: C_3  and  S_4 
REMARK    2  A    between atoms: S_4  and  C_5 
REMARK    3  A    between atoms: C_5  and  C_6 
REMARK       I    between atoms: C_6  and  N_7 
REMARK    4  A    between atoms: N_7  and  C_8 
REMARK    5  A    between atoms: C_8  and  C_9 
REMARK    6  A    between atoms: C_9  and  C_10 
REMARK    7  A    between atoms: C_19  and  C_20 
REMARK    8  A    between atoms: C_25  and  O_26 
ROOT
HETATM    1  C   UNL     1     -40.501  58.217 -53.287  1.00  0.00     0.160 C 
HETATM    2  N   UNL     1     -41.882  57.904 -53.546  1.00  0.00    -0.310 N 
HETATM    3  C   UNL     1     -42.925  58.758 -53.776  1.00  0.00     0.191 A 
HETATM    4  N   UNL     1     -44.024  58.071 -53.991  1.00  0.00    -0.122 NA
HETATM    5  N   UNL     1     -43.719  56.743 -53.867  1.00  0.00    -0.126 NA
HETATM    6  C   UNL     1     -42.429  56.642 -53.608  1.00  0.00     0.188 A 
ENDROOT
BRANCH   3   7
HETATM    7  S   UNL     1     -42.812  60.482 -53.757  1.00  0.00    -0.081 SA
BRANCH   7   8
HETATM    8  C   UNL     1     -43.273  60.896 -55.464  1.00  0.00     0.185 C 
BRANCH   8   9
HETATM    9  C   UNL     1     -42.482  60.094 -56.484  1.00  0.00     0.227 C 
HETATM   10  N   UNL     1     -43.116  58.972 -56.963  1.00  0.00    -0.360 N 
HETATM   11  H   UNL     1     -44.076  58.791 -56.670  1.00  0.00     0.162 HD
HETATM   12  O   UNL     1     -41.336  60.403 -56.808  1.00  0.00    -0.273 OA
BRANCH  10  13
HETATM   13  C   UNL     1     -42.478  58.014 -57.842  1.00  0.00     0.127 C 
BRANCH  13  14
HETATM   14  C   UNL     1     -43.085  56.620 -57.674  1.00  0.00     0.058 C 
BRANCH  14  15
HETATM   15  C   UNL     1     -44.018  56.264 -58.803  1.00  0.00    -0.057 A 
HETATM   16  C   UNL     1     -44.956  57.194 -59.269  1.00  0.00     0.007 A 
HETATM   17  C   UNL     1     -45.824  56.860 -60.308  1.00  0.00     0.001 A 
HETATM   18  C   UNL     1     -45.768  55.593 -60.886  1.00  0.00     0.000 A 
HETATM   19  C   UNL     1     -44.843  54.657 -60.424  1.00  0.00     0.001 A 
HETATM   20  C   UNL     1     -43.973  54.991 -59.386  1.00  0.00     0.007 A 
ENDBRANCH  14  15
ENDBRANCH  13  14
ENDBRANCH  10  13
ENDBRANCH   8   9
ENDBRANCH   7   8
ENDBRANCH   3   7
BRANCH   6  21
HETATM   21  C   UNL     1     -41.745  55.400 -53.426  1.00  0.00     0.125 A 
HETATM   22  O   UNL     1     -41.423  54.884 -52.197  1.00  0.00    -0.303 OA
HETATM   23  C   UNL     1     -40.765  53.704 -52.391  1.00  0.00     0.119 A 
HETATM   24  C   UNL     1     -40.668  53.438 -53.751  1.00  0.00     0.003 A 
HETATM   25  C   UNL     1     -40.254  52.880 -51.381  1.00  0.00     0.102 A 
HETATM   26  C   UNL     1     -41.293  54.530 -54.404  1.00  0.00     0.055 A 
HETATM   27  C   UNL     1     -40.030  52.258 -54.165  1.00  0.00     0.014 A 
HETATM   28  C   UNL     1     -39.514  51.400 -53.185  1.00  0.00     0.004 A 
HETATM   29  C   UNL     1     -39.624  51.706 -51.822  1.00  0.00     0.040 A 
BRANCH  25  30
HETATM   30  O   UNL     1     -40.414  53.269 -50.082  1.00  0.00    -0.353 OA
HETATM   31  C   UNL     1     -39.561  54.307 -49.617  1.00  0.00     0.210 C 
ENDBRANCH  25  30
ENDBRANCH   6  21
TORSDOF 8
ENDMDL
MODEL 7
REMARK VINA RESULT:      -8.1      5.178      8.506
REMARK  8 active torsions:
REMARK  status: ('A' for Active; 'I' for Inactive)
REMARK    1  A    between atoms: C_3  and  S_4 
REMARK    2  A    between atoms: S_4  and  C_5 
REMARK    3  A    between atoms: C_5  and  C_6 
REMARK       I    between atoms: C_6  and  N_7 
REMARK    4  A    between atoms: N_7  and  C_8 
REMARK    5  A    between atoms: C_8  and  C_9 
REMARK    6  A    between atoms: C_9  and  C_10 
REMARK    7  A    between atoms: C_19  and  C_20 
REMARK    8  A    between atoms: C_25  and  O_26 
ROOT
HETATM    1  C   UNL     1     -43.625  57.416 -51.601  1.00  0.00     0.160 C 
HETATM    2  N   UNL     1     -42.576  58.230 -52.156  1.00  0.00    -0.310 N 
HETATM    3  C   UNL     1     -42.449  59.592 -52.139  1.00  0.00     0.191 A 
HETATM    4  N   UNL     1     -41.334  59.943 -52.738  1.00  0.00    -0.122 NA
HETATM    5  N   UNL     1     -40.726  58.804 -53.193  1.00  0.00    -0.126 NA
HETATM    6  C   UNL     1     -41.468  57.773 -52.835  1.00  0.00     0.188 A 
ENDROOT
BRANCH   3   7
HETATM    7  S   UNL     1     -43.603  60.682 -51.456  1.00  0.00    -0.081 SA
BRANCH   7   8
HETATM    8  C   UNL     1     -44.402  61.345 -52.946  1.00  0.00     0.185 C 
BRANCH   8   9
HETATM    9  C   UNL     1     -44.545  60.298 -54.037  1.00  0.00     0.227 C 
HETATM   10  N   UNL     1     -43.656  60.417 -55.080  1.00  0.00    -0.360 N 
HETATM   11  H   UNL     1     -42.931  61.132 -55.025  1.00  0.00     0.162 HD
HETATM   12  O   UNL     1     -45.431  59.445 -54.009  1.00  0.00    -0.273 OA
BRANCH  10  13
HETATM   13  C   UNL     1     -43.715  59.594 -56.271  1.00  0.00     0.127 C 
BRANCH  13  14
HETATM   14  C   UNL     1     -42.442  58.761 -56.431  1.00  0.00     0.058 C 
BRANCH  14  15
HETATM   15  C   UNL     1     -42.546  57.774 -57.566  1.00  0.00    -0.057 A 
HETATM   16  C   UNL     1     -42.069  58.105 -58.840  1.00  0.00     0.007 A 
HETATM   17  C   UNL     1     -42.174  57.194 -59.891  1.00  0.00     0.001 A 
HETATM   18  C   UNL     1     -42.762  55.948 -59.681  1.00  0.00     0.000 A 
HETATM   19  C   UNL     1     -43.247  55.612 -58.417  1.00  0.00     0.001 A 
HETATM   20  C   UNL     1     -43.141  56.522 -57.365  1.00  0.00     0.007 A 
ENDBRANCH  14  15
ENDBRANCH  13  14
ENDBRANCH  10  13
ENDBRANCH   8   9
ENDBRANCH   7   8
ENDBRANCH   3   7
BRANCH   6  21
HETATM   21  C   UNL     1     -41.141  56.413 -53.127  1.00  0.00     0.125 A 
HETATM   22  O   UNL     1     -40.933  55.458 -52.165  1.00  0.00    -0.303 OA
HETATM   23  C   UNL     1     -40.626  54.285 -52.790  1.00  0.00     0.119 A 
HETATM   24  C   UNL     1     -40.646  54.467 -54.167  1.00  0.00     0.003 A 
HETATM   25  C   UNL     1     -40.327  53.075 -52.152  1.00  0.00     0.102 A 
HETATM   26  C   UNL     1     -40.971  55.831 -54.372  1.00  0.00     0.055 A 
HETATM   27  C   UNL     1     -40.364  53.370 -54.997  1.00  0.00     0.014 A 
HETATM   28  C   UNL     1     -40.070  52.139 -54.399  1.00  0.00     0.004 A 
HETATM   29  C   UNL     1     -40.052  51.995 -53.005  1.00  0.00     0.040 A 
BRANCH  25  30
HETATM   30  O   UNL     1     -40.336  53.041 -50.787  1.00  0.00    -0.353 OA
HETATM   31  C   UNL     1     -40.380  51.756 -50.180  1.00  0.00     0.210 C 
ENDBRANCH  25  30
ENDBRANCH   6  21
TORSDOF 8
ENDMDL
MODEL 8
REMARK VINA RESULT:      -8.0      5.225      9.414
REMARK  8 active torsions:
REMARK  status: ('A' for Active; 'I' for Inactive)
REMARK    1  A    between atoms: C_3  and  S_4 
REMARK    2  A    between atoms: S_4  and  C_5 
REMARK    3  A    between atoms: C_5  and  C_6 
REMARK       I    between atoms: C_6  and  N_7 
REMARK    4  A    between atoms: N_7  and  C_8 
REMARK    5  A    between atoms: C_8  and  C_9 
REMARK    6  A    between atoms: C_9  and  C_10 
REMARK    7  A    between atoms: C_19  and  C_20 
REMARK    8  A    between atoms: C_25  and  O_26 
ROOT
HETATM    1  C   UNL     1     -44.658  59.694 -54.455  1.00  0.00     0.160 C 
HETATM    2  N   UNL     1     -43.296  59.649 -53.990  1.00  0.00    -0.310 N 
HETATM    3  C   UNL     1     -42.831  59.633 -52.703  1.00  0.00     0.191 A 
HETATM    4  N   UNL     1     -41.520  59.567 -52.705  1.00  0.00    -0.122 NA
HETATM    5  N   UNL     1     -41.101  59.577 -54.009  1.00  0.00    -0.126 NA
HETATM    6  C   UNL     1     -42.170  59.616 -54.781  1.00  0.00     0.188 A 
ENDROOT
BRANCH   3   7
HETATM    7  S   UNL     1     -43.825  59.717 -51.293  1.00  0.00    -0.081 SA
BRANCH   7   8
HETATM    8  C   UNL     1     -44.494  58.030 -51.219  1.00  0.00     0.185 C 
BRANCH   8   9
HETATM    9  C   UNL     1     -43.469  56.986 -51.630  1.00  0.00     0.227 C 
HETATM   10  N   UNL     1     -42.410  56.838 -50.766  1.00  0.00    -0.360 N 
HETATM   11  H   UNL     1     -42.412  57.367 -49.894  1.00  0.00     0.162 HD
HETATM   12  O   UNL     1     -43.560  56.366 -52.687  1.00  0.00    -0.273 OA
BRANCH  10  13
HETATM   13  C   UNL     1     -41.270  55.988 -51.046  1.00  0.00     0.127 C 
BRANCH  13  14
HETATM   14  C   UNL     1     -41.571  54.529 -50.696  1.00  0.00     0.058 C 
BRANCH  14  15
HETATM   15  C   UNL     1     -40.958  53.569 -51.684  1.00  0.00    -0.057 A 
HETATM   16  C   UNL     1     -41.310  53.622 -53.038  1.00  0.00     0.007 A 
HETATM   17  C   UNL     1     -40.749  52.726 -53.949  1.00  0.00     0.001 A 
HETATM   18  C   UNL     1     -39.837  51.766 -53.514  1.00  0.00     0.000 A 
HETATM   19  C   UNL     1     -39.486  51.700 -52.166  1.00  0.00     0.001 A 
HETATM   20  C   UNL     1     -40.046  52.596 -51.255  1.00  0.00     0.007 A 
ENDBRANCH  14  15
ENDBRANCH  13  14
ENDBRANCH  10  13
ENDBRANCH   8   9
ENDBRANCH   7   8
ENDBRANCH   3   7
BRANCH   6  21
HETATM   21  C   UNL     1     -42.125  59.625 -56.210  1.00  0.00     0.125 A 
HETATM   22  O   UNL     1     -42.264  58.500 -56.981  1.00  0.00    -0.303 OA
HETATM   23  C   UNL     1     -42.152  58.867 -58.290  1.00  0.00     0.119 A 
HETATM   24  C   UNL     1     -41.953  60.238 -58.380  1.00  0.00     0.003 A 
HETATM   25  C   UNL     1     -42.219  58.000 -59.389  1.00  0.00     0.102 A 
HETATM   26  C   UNL     1     -41.932  60.713 -57.044  1.00  0.00     0.055 A 
HETATM   27  C   UNL     1     -41.822  60.821 -59.650  1.00  0.00     0.014 A 
HETATM   28  C   UNL     1     -41.894  59.991 -60.775  1.00  0.00     0.004 A 
HETATM   29  C   UNL     1     -42.088  58.609 -60.646  1.00  0.00     0.040 A 
BRANCH  25  30
HETATM   30  O   UNL     1     -42.411  56.668 -59.155  1.00  0.00    -0.353 OA
HETATM   31  C   UNL     1     -43.748  56.191 -59.232  1.00  0.00     0.210 C 
ENDBRANCH  25  30
ENDBRANCH   6  21
TORSDOF 8
ENDMDL
MODEL 9
REMARK VINA RESULT:      -7.7      6.321      9.050
REMARK  8 active torsions:
REMARK  status: ('A' for Active; 'I' for Inactive)
REMARK    1  A    between atoms: C_3  and  S_4 
REMARK    2  A    between atoms: S_4  and  C_5 
REMARK    3  A    between atoms: C_5  and  C_6 
REMARK       I    between atoms: C_6  and  N_7 
REMARK    4  A    between atoms: N_7  and  C_8 
REMARK    5  A    between atoms: C_8  and  C_9 
REMARK    6  A    between atoms: C_9  and  C_10 
REMARK    7  A    between atoms: C_19  and  C_20 
REMARK    8  A    between atoms: C_25  and  O_26 
ROOT
HETATM    1  C   UNL     1     -41.192  57.641 -53.099  1.00  0.00     0.160 C 
HETATM    2  N   UNL     1     -42.467  57.223 -53.621  1.00  0.00    -0.310 N 
HETATM    3  C   UNL     1     -43.547  57.991 -53.958  1.00  0.00     0.191 A 
HETATM    4  N   UNL     1     -44.510  57.227 -54.418  1.00  0.00    -0.122 NA
HETATM    5  N   UNL     1     -44.083  55.928 -54.353  1.00  0.00    -0.126 NA
HETATM    6  C   UNL     1     -42.850  55.927 -53.882  1.00  0.00     0.188 A 
ENDROOT
BRANCH   3   7
HETATM    7  S   UNL     1     -43.633  59.708 -53.776  1.00  0.00    -0.081 SA
BRANCH   7   8
HETATM    8  C   UNL     1     -45.302  60.055 -54.403  1.00  0.00     0.185 C 
BRANCH   8   9
HETATM    9  C   UNL     1     -45.334  60.179 -55.917  1.00  0.00     0.227 C 
HETATM   10  N   UNL     1     -46.142  59.269 -56.559  1.00  0.00    -0.360 N 
HETATM   11  H   UNL     1     -46.709  58.635 -55.996  1.00  0.00     0.162 HD
HETATM   12  O   UNL     1     -44.641  60.997 -56.518  1.00  0.00    -0.273 OA
BRANCH  10  13
HETATM   13  C   UNL     1     -46.207  59.145 -58.001  1.00  0.00     0.127 C 
BRANCH  13  14
HETATM   14  C   UNL     1     -45.928  57.708 -58.445  1.00  0.00     0.058 C 
BRANCH  14  15
HETATM   15  C   UNL     1     -44.539  57.545 -59.009  1.00  0.00    -0.057 A 
HETATM   16  C   UNL     1     -43.806  58.664 -59.424  1.00  0.00     0.007 A 
HETATM   17  C   UNL     1     -42.524  58.510 -59.954  1.00  0.00     0.001 A 
HETATM   18  C   UNL     1     -41.968  57.239 -60.080  1.00  0.00     0.000 A 
HETATM   19  C   UNL     1     -42.693  56.118 -59.678  1.00  0.00     0.001 A 
HETATM   20  C   UNL     1     -43.974  56.271 -59.146  1.00  0.00     0.007 A 
ENDBRANCH  14  15
ENDBRANCH  13  14
ENDBRANCH  10  13
ENDBRANCH   8   9
ENDBRANCH   7   8
ENDBRANCH   3   7
BRANCH   6  21
HETATM   21  C   UNL     1     -42.070  54.745 -53.686  1.00  0.00     0.125 A 
HETATM   22  O   UNL     1     -41.328  54.503 -52.560  1.00  0.00    -0.303 OA
HETATM   23  C   UNL     1     -40.702  53.300 -52.714  1.00  0.00     0.119 A 
HETATM   24  C   UNL     1     -41.045  52.745 -53.940  1.00  0.00     0.003 A 
HETATM   25  C   UNL     1     -39.836  52.707 -51.786  1.00  0.00     0.102 A 
HETATM   26  C   UNL     1     -41.916  53.678 -54.556  1.00  0.00     0.055 A 
HETATM   27  C   UNL     1     -40.510  51.495 -54.289  1.00  0.00     0.014 A 
HETATM   28  C   UNL     1     -39.648  50.863 -53.385  1.00  0.00     0.004 A 
HETATM   29  C   UNL     1     -39.318  51.457 -52.160  1.00  0.00     0.040 A 
BRANCH  25  30
HETATM   30  O   UNL     1     -39.579  53.370 -50.621  1.00  0.00    -0.353 OA
HETATM   31  C   UNL     1     -40.469  53.129 -49.538  1.00  0.00     0.210 C 
ENDBRANCH  25  30
ENDBRANCH   6  21
TORSDOF 8
ENDMDL
MODEL 10
REMARK VINA RESULT:      -7.6      6.550     10.017
REMARK  8 active torsions:
REMARK  status: ('A' for Active; 'I' for Inactive)
REMARK    1  A    between atoms: C_3  and  S_4 
REMARK    2  A    between atoms: S_4  and  C_5 
REMARK    3  A    between atoms: C_5  and  C_6 
REMARK       I    between atoms: C_6  and  N_7 
REMARK    4  A    between atoms: N_7  and  C_8 
REMARK    5  A    between atoms: C_8  and  C_9 
REMARK    6  A    between atoms: C_9  and  C_10 
REMARK    7  A    between atoms: C_19  and  C_20 
REMARK    8  A    between atoms: C_25  and  O_26 
ROOT
HETATM    1  C   UNL     1     -43.121  56.850 -52.625  1.00  0.00     0.160 C 
HETATM    2  N   UNL     1     -42.569  56.570 -53.925  1.00  0.00    -0.310 N 
HETATM    3  C   UNL     1     -42.724  57.271 -55.090  1.00  0.00     0.191 A 
HETATM    4  N   UNL     1     -42.037  56.696 -56.050  1.00  0.00    -0.122 NA
HETATM    5  N   UNL     1     -41.445  55.576 -55.530  1.00  0.00    -0.126 NA
HETATM    6  C   UNL     1     -41.758  55.506 -54.249  1.00  0.00     0.188 A 
ENDROOT
BRANCH   3   7
HETATM    7  S   UNL     1     -43.702  58.684 -55.269  1.00  0.00    -0.081 SA
BRANCH   7   8
HETATM    8  C   UNL     1     -42.444  59.965 -55.535  1.00  0.00     0.185 C 
BRANCH   8   9
HETATM    9  C   UNL     1     -42.059  60.099 -56.999  1.00  0.00     0.227 C 
HETATM   10  N   UNL     1     -42.851  59.398 -57.877  1.00  0.00    -0.360 N 
HETATM   11  H   UNL     1     -43.667  58.905 -57.513  1.00  0.00     0.162 HD
HETATM   12  O   UNL     1     -41.074  60.744 -57.356  1.00  0.00    -0.273 OA
BRANCH  10  13
HETATM   13  C   UNL     1     -42.569  59.297 -59.294  1.00  0.00     0.127 C 
BRANCH  13  14
HETATM   14  C   UNL     1     -42.127  57.882 -59.670  1.00  0.00     0.058 C 
BRANCH  14  15
HETATM   15  C   UNL     1     -43.294  56.940 -59.817  1.00  0.00    -0.057 A 
HETATM   16  C   UNL     1     -43.159  55.585 -59.491  1.00  0.00     0.007 A 
HETATM   17  C   UNL     1     -44.239  54.713 -59.636  1.00  0.00     0.001 A 
HETATM   18  C   UNL     1     -45.459  55.186 -60.115  1.00  0.00     0.000 A 
HETATM   19  C   UNL     1     -45.602  56.531 -60.450  1.00  0.00     0.001 A 
HETATM   20  C   UNL     1     -44.524  57.405 -60.304  1.00  0.00     0.007 A 
ENDBRANCH  14  15
ENDBRANCH  13  14
ENDBRANCH  10  13
ENDBRANCH   8   9
ENDBRANCH   7   8
ENDBRANCH   3   7
BRANCH   6  21
HETATM   21  C   UNL     1     -41.307  54.471 -53.372  1.00  0.00     0.125 A 
HETATM   22  O   UNL     1     -40.588  53.382 -53.789  1.00  0.00    -0.303 OA
HETATM   23  C   UNL     1     -40.342  52.594 -52.703  1.00  0.00     0.119 A 
HETATM   24  C   UNL     1     -40.889  53.175 -51.566  1.00  0.00     0.003 A 
HETATM   25  C   UNL     1     -39.649  51.377 -52.718  1.00  0.00     0.102 A 
HETATM   26  C   UNL     1     -41.508  54.373 -52.005  1.00  0.00     0.055 A 
HETATM   27  C   UNL     1     -40.737  52.523 -50.333  1.00  0.00     0.014 A 
HETATM   28  C   UNL     1     -40.042  51.308 -50.303  1.00  0.00     0.004 A 
HETATM   29  C   UNL     1     -39.509  50.747 -51.471  1.00  0.00     0.040 A 
BRANCH  25  30
HETATM   30  O   UNL     1     -39.171  50.916 -53.911  1.00  0.00    -0.353 OA
HETATM   31  C   UNL     1     -39.917  49.885 -54.544  1.00  0.00     0.210 C 
ENDBRANCH  25  30
ENDBRANCH   6  21
TORSDOF 8
ENDMDL
