MODEL 1
REMARK VINA RESULT:      -7.2      0.000      0.000
REMARK  9 active torsions:
REMARK  status: ('A' for Active; 'I' for Inactive)
REMARK    1  A    between atoms: C_2  and  C_3 
REMARK    2  A    between atoms: C_3  and  O_4 
REMARK    3  A    between atoms: O_4  and  C_5 
REMARK    4  A    between atoms: C_8  and  C_9 
REMARK    5  A    between atoms: C_13  and  C_14 
REMARK       I    between atoms: C_14  and  N_15 
REMARK    6  A    between atoms: N_15  and  N_16 
REMARK    7  A    between atoms: C_17  and  C_18 
REMARK    8  A    between atoms: C_21  and  O_22 
REMARK    9  A    between atoms: O_22  and  C_23 
ROOT
HETATM    1  C   UNL     1     -42.361  55.129 -54.863  1.00  0.00     0.089 A 
HETATM    2  N   UNL     1     -43.448  55.697 -54.319  1.00  0.00    -0.174 NA
HETATM    3  N   UNL     1     -43.991  56.414 -55.314  1.00  0.00    -0.272 N 
HETATM    4  H   UNL     1     -44.842  56.938 -55.139  1.00  0.00     0.189 HD
HETATM    5  C   UNL     1     -43.322  56.319 -56.503  1.00  0.00     0.121 A 
HETATM    6  C   UNL     1     -42.239  55.508 -56.231  1.00  0.00     0.071 A 
ENDROOT
BRANCH   5   7
HETATM    7  C   UNL     1     -43.813  56.978 -57.688  1.00  0.00     0.289 C 
HETATM    8  N   UNL     1     -44.533  56.161 -58.547  1.00  0.00    -0.242 N 
HETATM    9  H   UNL     1     -44.674  55.184 -58.327  1.00  0.00     0.192 HD
HETATM   10  O   UNL     1     -43.603  58.172 -57.881  1.00  0.00    -0.264 OA
BRANCH   8  11
HETATM   11  N   UNL     1     -45.146  56.689 -59.646  1.00  0.00    -0.184 NA
HETATM   12  C   UNL     1     -46.436  56.776 -59.582  1.00  0.00     0.150 C 
BRANCH  12  13
HETATM   13  C   UNL     1     -47.230  57.362 -60.679  1.00  0.00    -0.017 A 
HETATM   14  C   UNL     1     -47.405  58.743 -60.777  1.00  0.00     0.016 A 
HETATM   15  C   UNL     1     -48.176  59.268 -61.816  1.00  0.00     0.037 A 
HETATM   16  C   UNL     1     -48.768  58.427 -62.763  1.00  0.00     0.068 A 
HETATM   17  C   UNL     1     -48.588  57.046 -62.659  1.00  0.00     0.037 A 
HETATM   18  C   UNL     1     -47.821  56.512 -61.617  1.00  0.00     0.016 A 
BRANCH  16  19
HETATM   19  O   UNL     1     -49.493  59.074 -63.724  1.00  0.00    -0.352 OA
BRANCH  19  20
HETATM   20  C   UNL     1     -50.443  60.042 -63.283  1.00  0.00     0.171 C 
HETATM   21  C   UNL     1     -51.732  59.312 -62.947  1.00  0.00     0.034 C 
ENDBRANCH  19  20
ENDBRANCH  16  19
ENDBRANCH  12  13
ENDBRANCH   8  11
ENDBRANCH   5   7
BRANCH   1  22
HETATM   22  C   UNL     1     -41.499  54.223 -54.101  1.00  0.00    -0.005 A 
HETATM   23  C   UNL     1     -41.362  54.377 -52.714  1.00  0.00     0.016 A 
HETATM   24  C   UNL     1     -40.586  53.486 -51.962  1.00  0.00     0.037 A 
HETATM   25  C   UNL     1     -39.931  52.428 -52.589  1.00  0.00     0.068 A 
HETATM   26  C   UNL     1     -40.035  52.288 -53.974  1.00  0.00     0.037 A 
HETATM   27  C   UNL     1     -40.815  53.174 -54.726  1.00  0.00     0.016 A 
BRANCH  25  28
HETATM   28  O   UNL     1     -39.163  51.480 -51.972  1.00  0.00    -0.351 OA
BRANCH  28  29
HETATM   29  C   UNL     1     -39.495  50.116 -52.235  1.00  0.00     0.175 C 
BRANCH  29  30
HETATM   30  C   UNL     1     -39.842  49.457 -50.903  1.00  0.00     0.022 C 
HETATM   31  C   UNL     1     -40.335  50.469 -49.884  1.00  0.00     0.007 C 
ENDBRANCH  29  30
ENDBRANCH  28  29
ENDBRANCH  25  28
ENDBRANCH   1  22
TORSDOF 9
ENDMDL
MODEL 2
REMARK VINA RESULT:      -7.0     16.777     21.535
REMARK  9 active torsions:
REMARK  status: ('A' for Active; 'I' for Inactive)
REMARK    1  A    between atoms: C_2  and  C_3 
REMARK    2  A    between atoms: C_3  and  O_4 
REMARK    3  A    between atoms: O_4  and  C_5 
REMARK    4  A    between atoms: C_8  and  C_9 
REMARK    5  A    between atoms: C_13  and  C_14 
REMARK       I    between atoms: C_14  and  N_15 
REMARK    6  A    between atoms: N_15  and  N_16 
REMARK    7  A    between atoms: C_17  and  C_18 
REMARK    8  A    between atoms: C_21  and  O_22 
REMARK    9  A    between atoms: O_22  and  C_23 
ROOT
HETATM    1  C   UNL     1     -37.281  40.967 -56.778  1.00  0.00     0.089 A 
HETATM    2  N   UNL     1     -37.520  42.275 -56.596  1.00  0.00    -0.174 NA
HETATM    3  N   UNL     1     -37.126  42.518 -55.337  1.00  0.00    -0.272 N 
HETATM    4  H   UNL     1     -37.206  43.461 -54.967  1.00  0.00     0.189 HD
HETATM    5  C   UNL     1     -36.610  41.430 -54.690  1.00  0.00     0.121 A 
HETATM    6  C   UNL     1     -36.724  40.397 -55.598  1.00  0.00     0.071 A 
ENDROOT
BRANCH   5   7
HETATM    7  C   UNL     1     -36.082  41.540 -53.352  1.00  0.00     0.289 C 
HETATM    8  N   UNL     1     -35.853  40.328 -52.720  1.00  0.00    -0.242 N 
HETATM    9  H   UNL     1     -36.060  39.457 -53.191  1.00  0.00     0.192 HD
HETATM   10  O   UNL     1     -35.853  42.638 -52.851  1.00  0.00    -0.264 OA
BRANCH   8  11
HETATM   11  N   UNL     1     -35.251  40.294 -51.495  1.00  0.00    -0.184 NA
HETATM   12  C   UNL     1     -34.325  39.401 -51.350  1.00  0.00     0.150 C 
BRANCH  12  13
HETATM   13  C   UNL     1     -33.560  39.273 -50.095  1.00  0.00    -0.017 A 
HETATM   14  C   UNL     1     -32.435  40.064 -49.858  1.00  0.00     0.016 A 
HETATM   15  C   UNL     1     -31.721  39.909 -48.668  1.00  0.00     0.037 A 
HETATM   16  C   UNL     1     -32.125  38.976 -47.709  1.00  0.00     0.068 A 
HETATM   17  C   UNL     1     -33.252  38.188 -47.952  1.00  0.00     0.037 A 
HETATM   18  C   UNL     1     -33.969  38.334 -49.145  1.00  0.00     0.016 A 
BRANCH  16  19
HETATM   19  O   UNL     1     -31.336  38.930 -46.593  1.00  0.00    -0.352 OA
BRANCH  19  20
HETATM   20  C   UNL     1     -30.348  39.948 -46.450  1.00  0.00     0.171 C 
HETATM   21  C   UNL     1     -30.028  40.085 -44.972  1.00  0.00     0.034 C 
ENDBRANCH  19  20
ENDBRANCH  16  19
ENDBRANCH  12  13
ENDBRANCH   8  11
ENDBRANCH   5   7
BRANCH   1  22
HETATM   22  C   UNL     1     -37.545  40.305 -58.058  1.00  0.00    -0.005 A 
HETATM   23  C   UNL     1     -37.150  40.907 -59.261  1.00  0.00     0.016 A 
HETATM   24  C   UNL     1     -37.344  40.263 -60.490  1.00  0.00     0.037 A 
HETATM   25  C   UNL     1     -37.940  39.005 -60.532  1.00  0.00     0.068 A 
HETATM   26  C   UNL     1     -38.367  38.413 -59.342  1.00  0.00     0.037 A 
HETATM   27  C   UNL     1     -38.169  39.053 -58.113  1.00  0.00     0.016 A 
BRANCH  25  28
HETATM   28  O   UNL     1     -38.169  38.262 -61.657  1.00  0.00    -0.351 OA
BRANCH  28  29
HETATM   29  C   UNL     1     -39.234  37.311 -61.591  1.00  0.00     0.175 C 
BRANCH  29  30
HETATM   30  C   UNL     1     -40.425  37.894 -62.346  1.00  0.00     0.022 C 
HETATM   31  C   UNL     1     -41.623  38.103 -61.436  1.00  0.00     0.007 C 
ENDBRANCH  29  30
ENDBRANCH  28  29
ENDBRANCH  25  28
ENDBRANCH   1  22
TORSDOF 9
ENDMDL
MODEL 3
REMARK VINA RESULT:      -6.8      9.753     12.008
REMARK  9 active torsions:
REMARK  status: ('A' for Active; 'I' for Inactive)
REMARK    1  A    between atoms: C_2  and  C_3 
REMARK    2  A    between atoms: C_3  and  O_4 
REMARK    3  A    between atoms: O_4  and  C_5 
REMARK    4  A    between atoms: C_8  and  C_9 
REMARK    5  A    between atoms: C_13  and  C_14 
REMARK       I    between atoms: C_14  and  N_15 
REMARK    6  A    between atoms: N_15  and  N_16 
REMARK    7  A    between atoms: C_17  and  C_18 
REMARK    8  A    between atoms: C_21  and  O_22 
REMARK    9  A    between atoms: O_22  and  C_23 
ROOT
HETATM    1  C   UNL     1     -45.244  61.497 -46.364  1.00  0.00     0.089 A 
HETATM    2  N   UNL     1     -45.842  60.298 -46.300  1.00  0.00    -0.174 NA
HETATM    3  N   UNL     1     -45.923  59.891 -47.575  1.00  0.00    -0.272 N 
HETATM    4  H   UNL     1     -46.343  58.990 -47.781  1.00  0.00     0.189 HD
HETATM    5  C   UNL     1     -45.377  60.760 -48.477  1.00  0.00     0.121 A 
HETATM    6  C   UNL     1     -44.950  61.830 -47.717  1.00  0.00     0.071 A 
ENDROOT
BRANCH   5   7
HETATM    7  C   UNL     1     -45.326  60.441 -49.883  1.00  0.00     0.289 C 
HETATM    8  N   UNL     1     -44.327  59.547 -50.236  1.00  0.00    -0.242 N 
HETATM    9  H   UNL     1     -43.699  59.176 -49.536  1.00  0.00     0.192 HD
HETATM   10  O   UNL     1     -46.130  60.930 -50.672  1.00  0.00    -0.264 OA
BRANCH   8  11
HETATM   11  N   UNL     1     -44.245  59.078 -51.516  1.00  0.00    -0.184 NA
HETATM   12  C   UNL     1     -43.554  57.995 -51.674  1.00  0.00     0.150 C 
BRANCH  12  13
HETATM   13  C   UNL     1     -43.409  57.351 -52.994  1.00  0.00    -0.017 A 
HETATM   14  C   UNL     1     -43.181  58.114 -54.140  1.00  0.00     0.016 A 
HETATM   15  C   UNL     1     -43.066  57.480 -55.378  1.00  0.00     0.037 A 
HETATM   16  C   UNL     1     -43.168  56.090 -55.482  1.00  0.00     0.068 A 
HETATM   17  C   UNL     1     -43.395  55.333 -54.331  1.00  0.00     0.037 A 
HETATM   18  C   UNL     1     -43.517  55.962 -53.086  1.00  0.00     0.016 A 
BRANCH  16  19
HETATM   19  O   UNL     1     -43.035  55.602 -56.752  1.00  0.00    -0.352 OA
BRANCH  19  20
HETATM   20  C   UNL     1     -43.104  56.543 -57.822  1.00  0.00     0.171 C 
HETATM   21  C   UNL     1     -43.153  55.765 -59.126  1.00  0.00     0.034 C 
ENDBRANCH  19  20
ENDBRANCH  16  19
ENDBRANCH  12  13
ENDBRANCH   8  11
ENDBRANCH   5   7
BRANCH   1  22
HETATM   22  C   UNL     1     -44.933  62.270 -45.159  1.00  0.00    -0.005 A 
HETATM   23  C   UNL     1     -44.088  61.738 -44.175  1.00  0.00     0.016 A 
HETATM   24  C   UNL     1     -43.736  62.486 -43.044  1.00  0.00     0.037 A 
HETATM   25  C   UNL     1     -44.228  63.779 -42.881  1.00  0.00     0.068 A 
HETATM   26  C   UNL     1     -45.097  64.303 -43.839  1.00  0.00     0.037 A 
HETATM   27  C   UNL     1     -45.445  63.560 -44.972  1.00  0.00     0.016 A 
BRANCH  25  28
HETATM   28  O   UNL     1     -43.948  64.619 -41.839  1.00  0.00    -0.351 OA
BRANCH  28  29
HETATM   29  C   UNL     1     -43.788  64.015 -40.554  1.00  0.00     0.175 C 
BRANCH  29  30
HETATM   30  C   UNL     1     -44.939  64.488 -39.671  1.00  0.00     0.022 C 
HETATM   31  C   UNL     1     -46.014  63.425 -39.529  1.00  0.00     0.007 C 
ENDBRANCH  29  30
ENDBRANCH  28  29
ENDBRANCH  25  28
ENDBRANCH   1  22
TORSDOF 9
ENDMDL
MODEL 4
REMARK VINA RESULT:      -6.7     16.509     22.982
REMARK  9 active torsions:
REMARK  status: ('A' for Active; 'I' for Inactive)
REMARK    1  A    between atoms: C_2  and  C_3 
REMARK    2  A    between atoms: C_3  and  O_4 
REMARK    3  A    between atoms: O_4  and  C_5 
REMARK    4  A    between atoms: C_8  and  C_9 
REMARK    5  A    between atoms: C_13  and  C_14 
REMARK       I    between atoms: C_14  and  N_15 
REMARK    6  A    between atoms: N_15  and  N_16 
REMARK    7  A    between atoms: C_17  and  C_18 
REMARK    8  A    between atoms: C_21  and  O_22 
REMARK    9  A    between atoms: O_22  and  C_23 
ROOT
HETATM    1  C   UNL     1     -35.225  41.487 -53.256  1.00  0.00     0.089 A 
HETATM    2  N   UNL     1     -35.274  42.445 -52.317  1.00  0.00    -0.174 NA
HETATM    3  N   UNL     1     -34.767  41.867 -51.218  1.00  0.00    -0.272 N 
HETATM    4  H   UNL     1     -34.695  42.409 -50.362  1.00  0.00     0.189 HD
HETATM    5  C   UNL     1     -34.359  40.575 -51.401  1.00  0.00     0.121 A 
HETATM    6  C   UNL     1     -34.671  40.292 -52.715  1.00  0.00     0.071 A 
ENDROOT
BRANCH   5   7
HETATM    7  C   UNL     1     -33.732  39.834 -50.334  1.00  0.00     0.289 C 
HETATM    8  N   UNL     1     -32.350  39.940 -50.290  1.00  0.00    -0.242 N 
HETATM    9  H   UNL     1     -31.857  40.497 -50.975  1.00  0.00     0.192 HD
HETATM   10  O   UNL     1     -34.403  39.183 -49.537  1.00  0.00    -0.264 OA
BRANCH   8  11
HETATM   11  N   UNL     1     -31.649  39.378 -49.262  1.00  0.00    -0.184 NA
HETATM   12  C   UNL     1     -31.517  40.114 -48.206  1.00  0.00     0.150 C 
BRANCH  12  13
HETATM   13  C   UNL     1     -30.817  39.625 -47.002  1.00  0.00    -0.017 A 
HETATM   14  C   UNL     1     -30.040  40.487 -46.227  1.00  0.00     0.016 A 
HETATM   15  C   UNL     1     -29.375  39.993 -45.103  1.00  0.00     0.037 A 
HETATM   16  C   UNL     1     -29.485  38.647 -44.741  1.00  0.00     0.068 A 
HETATM   17  C   UNL     1     -30.265  37.791 -45.521  1.00  0.00     0.037 A 
HETATM   18  C   UNL     1     -30.930  38.278 -46.652  1.00  0.00     0.016 A 
BRANCH  16  19
HETATM   19  O   UNL     1     -28.783  38.300 -43.620  1.00  0.00    -0.352 OA
BRANCH  19  20
HETATM   20  C   UNL     1     -28.920  39.143 -42.479  1.00  0.00     0.171 C 
HETATM   21  C   UNL     1     -27.531  39.406 -41.923  1.00  0.00     0.034 C 
ENDBRANCH  19  20
ENDBRANCH  16  19
ENDBRANCH  12  13
ENDBRANCH   8  11
ENDBRANCH   5   7
BRANCH   1  22
HETATM   22  C   UNL     1     -35.661  41.733 -54.633  1.00  0.00    -0.005 A 
HETATM   23  C   UNL     1     -34.723  41.784 -55.674  1.00  0.00     0.016 A 
HETATM   24  C   UNL     1     -35.127  41.962 -57.003  1.00  0.00     0.037 A 
HETATM   25  C   UNL     1     -36.480  42.096 -57.310  1.00  0.00     0.068 A 
HETATM   26  C   UNL     1     -37.417  42.082 -56.276  1.00  0.00     0.037 A 
HETATM   27  C   UNL     1     -37.015  41.897 -54.948  1.00  0.00     0.016 A 
BRANCH  25  28
HETATM   28  O   UNL     1     -37.008  42.255 -58.561  1.00  0.00    -0.351 OA
BRANCH  28  29
HETATM   29  C   UNL     1     -37.055  41.092 -59.389  1.00  0.00     0.175 C 
BRANCH  29  30
HETATM   30  C   UNL     1     -38.335  40.333 -59.052  1.00  0.00     0.022 C 
HETATM   31  C   UNL     1     -38.043  38.931 -58.545  1.00  0.00     0.007 C 
ENDBRANCH  29  30
ENDBRANCH  28  29
ENDBRANCH  25  28
ENDBRANCH   1  22
TORSDOF 9
ENDMDL
MODEL 5
REMARK VINA RESULT:      -6.6      4.525      5.744
REMARK  9 active torsions:
REMARK  status: ('A' for Active; 'I' for Inactive)
REMARK    1  A    between atoms: C_2  and  C_3 
REMARK    2  A    between atoms: C_3  and  O_4 
REMARK    3  A    between atoms: O_4  and  C_5 
REMARK    4  A    between atoms: C_8  and  C_9 
REMARK    5  A    between atoms: C_13  and  C_14 
REMARK       I    between atoms: C_14  and  N_15 
REMARK    6  A    between atoms: N_15  and  N_16 
REMARK    7  A    between atoms: C_17  and  C_18 
REMARK    8  A    between atoms: C_21  and  O_22 
REMARK    9  A    between atoms: O_22  and  C_23 
ROOT
HETATM    1  C   UNL     1     -42.167  54.849 -55.128  1.00  0.00     0.089 A 
HETATM    2  N   UNL     1     -43.192  54.289 -55.788  1.00  0.00    -0.174 NA
HETATM    3  N   UNL     1     -43.511  55.180 -56.738  1.00  0.00    -0.272 N 
HETATM    4  H   UNL     1     -44.271  54.970 -57.379  1.00  0.00     0.189 HD
HETATM    5  C   UNL     1     -42.720  56.295 -56.751  1.00  0.00     0.121 A 
HETATM    6  C   UNL     1     -41.851  56.118 -55.693  1.00  0.00     0.071 A 
ENDROOT
BRANCH   5   7
HETATM    7  C   UNL     1     -42.891  57.319 -57.752  1.00  0.00     0.289 C 
HETATM    8  N   UNL     1     -42.427  58.572 -57.381  1.00  0.00    -0.242 N 
HETATM    9  H   UNL     1     -42.014  58.717 -56.469  1.00  0.00     0.192 HD
HETATM   10  O   UNL     1     -43.398  57.061 -58.840  1.00  0.00    -0.264 OA
BRANCH   8  11
HETATM   11  N   UNL     1     -42.428  59.599 -58.280  1.00  0.00    -0.184 NA
HETATM   12  C   UNL     1     -41.363  60.335 -58.293  1.00  0.00     0.150 C 
BRANCH  12  13
HETATM   13  C   UNL     1     -41.207  61.458 -59.238  1.00  0.00    -0.017 A 
HETATM   14  C   UNL     1     -40.351  62.522 -58.949  1.00  0.00     0.016 A 
HETATM   15  C   UNL     1     -40.236  63.579 -59.853  1.00  0.00     0.037 A 
HETATM   16  C   UNL     1     -40.961  63.580 -61.049  1.00  0.00     0.068 A 
HETATM   17  C   UNL     1     -41.815  62.511 -61.332  1.00  0.00     0.037 A 
HETATM   18  C   UNL     1     -41.939  61.450 -60.427  1.00  0.00     0.016 A 
BRANCH  16  19
HETATM   19  O   UNL     1     -40.752  64.675 -61.840  1.00  0.00    -0.352 OA
BRANCH  19  20
HETATM   20  C   UNL     1     -40.228  64.444 -63.146  1.00  0.00     0.171 C 
HETATM   21  C   UNL     1     -38.833  63.864 -62.994  1.00  0.00     0.034 C 
ENDBRANCH  19  20
ENDBRANCH  16  19
ENDBRANCH  12  13
ENDBRANCH   8  11
ENDBRANCH   5   7
BRANCH   1  22
HETATM   22  C   UNL     1     -41.496  54.165 -54.021  1.00  0.00    -0.005 A 
HETATM   23  C   UNL     1     -41.841  54.459 -52.694  1.00  0.00     0.016 A 
HETATM   24  C   UNL     1     -41.248  53.775 -51.625  1.00  0.00     0.037 A 
HETATM   25  C   UNL     1     -40.298  52.786 -51.869  1.00  0.00     0.068 A 
HETATM   26  C   UNL     1     -39.924  52.511 -53.185  1.00  0.00     0.037 A 
HETATM   27  C   UNL     1     -40.519  53.190 -54.255  1.00  0.00     0.016 A 
BRANCH  25  28
HETATM   28  O   UNL     1     -39.661  52.033 -50.922  1.00  0.00    -0.351 OA
BRANCH  28  29
HETATM   29  C   UNL     1     -40.369  50.896 -50.425  1.00  0.00     0.175 C 
BRANCH  29  30
HETATM   30  C   UNL     1     -39.535  49.657 -50.734  1.00  0.00     0.022 C 
HETATM   31  C   UNL     1     -39.645  49.252 -52.194  1.00  0.00     0.007 C 
ENDBRANCH  29  30
ENDBRANCH  28  29
ENDBRANCH  25  28
ENDBRANCH   1  22
TORSDOF 9
ENDMDL
MODEL 6
REMARK VINA RESULT:      -6.5      1.782      2.155
REMARK  9 active torsions:
REMARK  status: ('A' for Active; 'I' for Inactive)
REMARK    1  A    between atoms: C_2  and  C_3 
REMARK    2  A    between atoms: C_3  and  O_4 
REMARK    3  A    between atoms: O_4  and  C_5 
REMARK    4  A    between atoms: C_8  and  C_9 
REMARK    5  A    between atoms: C_13  and  C_14 
REMARK       I    between atoms: C_14  and  N_15 
REMARK    6  A    between atoms: N_15  and  N_16 
REMARK    7  A    between atoms: C_17  and  C_18 
REMARK    8  A    between atoms: C_21  and  O_22 
REMARK    9  A    between atoms: O_22  and  C_23 
ROOT
HETATM    1  C   UNL     1     -42.834  55.460 -53.564  1.00  0.00     0.089 A 
HETATM    2  N   UNL     1     -43.565  55.882 -52.521  1.00  0.00    -0.174 NA
HETATM    3  N   UNL     1     -44.364  56.831 -53.030  1.00  0.00    -0.272 N 
HETATM    4  H   UNL     1     -45.025  57.302 -52.419  1.00  0.00     0.189 HD
HETATM    5  C   UNL     1     -44.210  57.034 -54.373  1.00  0.00     0.121 A 
HETATM    6  C   UNL     1     -43.198  56.171 -54.743  1.00  0.00     0.071 A 
ENDROOT
BRANCH   5   7
HETATM    7  C   UNL     1     -45.040  57.975 -55.085  1.00  0.00     0.289 C 
HETATM    8  N   UNL     1     -45.362  57.597 -56.379  1.00  0.00    -0.242 N 
HETATM    9  H   UNL     1     -45.016  56.727 -56.761  1.00  0.00     0.192 HD
HETATM   10  O   UNL     1     -45.424  59.011 -54.548  1.00  0.00    -0.264 OA
BRANCH   8  11
HETATM   11  N   UNL     1     -46.232  58.347 -57.118  1.00  0.00    -0.184 NA
HETATM   12  C   UNL     1     -46.271  58.077 -58.383  1.00  0.00     0.150 C 
BRANCH  12  13
HETATM   13  C   UNL     1     -47.191  58.779 -59.299  1.00  0.00    -0.017 A 
HETATM   14  C   UNL     1     -47.293  58.401 -60.638  1.00  0.00     0.016 A 
HETATM   15  C   UNL     1     -48.159  59.094 -61.486  1.00  0.00     0.037 A 
HETATM   16  C   UNL     1     -48.930  60.157 -61.007  1.00  0.00     0.068 A 
HETATM   17  C   UNL     1     -48.823  60.529 -59.665  1.00  0.00     0.037 A 
HETATM   18  C   UNL     1     -47.953  59.842 -58.811  1.00  0.00     0.016 A 
BRANCH  16  19
HETATM   19  O   UNL     1     -49.734  60.745 -61.944  1.00  0.00    -0.352 OA
BRANCH  19  20
HETATM   20  C   UNL     1     -51.103  60.941 -61.597  1.00  0.00     0.171 C 
HETATM   21  C   UNL     1     -51.828  59.620 -61.790  1.00  0.00     0.034 C 
ENDBRANCH  19  20
ENDBRANCH  16  19
ENDBRANCH  12  13
ENDBRANCH   8  11
ENDBRANCH   5   7
BRANCH   1  22
HETATM   22  C   UNL     1     -41.849  54.384 -53.431  1.00  0.00    -0.005 A 
HETATM   23  C   UNL     1     -41.217  54.150 -52.202  1.00  0.00     0.016 A 
HETATM   24  C   UNL     1     -40.315  53.090 -52.043  1.00  0.00     0.037 A 
HETATM   25  C   UNL     1     -40.030  52.249 -53.117  1.00  0.00     0.068 A 
HETATM   26  C   UNL     1     -40.629  52.495 -54.353  1.00  0.00     0.037 A 
HETATM   27  C   UNL     1     -41.535  53.550 -54.511  1.00  0.00     0.016 A 
BRANCH  25  28
HETATM   28  O   UNL     1     -39.189  51.171 -53.091  1.00  0.00    -0.351 OA
BRANCH  28  29
HETATM   29  C   UNL     1     -39.801  49.881 -53.065  1.00  0.00     0.175 C 
BRANCH  29  30
HETATM   30  C   UNL     1     -39.344  49.175 -51.791  1.00  0.00     0.022 C 
HETATM   31  C   UNL     1     -39.951  49.802 -50.549  1.00  0.00     0.007 C 
ENDBRANCH  29  30
ENDBRANCH  28  29
ENDBRANCH  25  28
ENDBRANCH   1  22
TORSDOF 9
ENDMDL
MODEL 7
REMARK VINA RESULT:      -6.1      2.216      2.892
REMARK  9 active torsions:
REMARK  status: ('A' for Active; 'I' for Inactive)
REMARK    1  A    between atoms: C_2  and  C_3 
REMARK    2  A    between atoms: C_3  and  O_4 
REMARK    3  A    between atoms: O_4  and  C_5 
REMARK    4  A    between atoms: C_8  and  C_9 
REMARK    5  A    between atoms: C_13  and  C_14 
REMARK       I    between atoms: C_14  and  N_15 
REMARK    6  A    between atoms: N_15  and  N_16 
REMARK    7  A    between atoms: C_17  and  C_18 
REMARK    8  A    between atoms: C_21  and  O_22 
REMARK    9  A    between atoms: O_22  and  C_23 
ROOT
HETATM    1  C   UNL     1     -42.469  57.457 -53.822  1.00  0.00     0.089 A 
HETATM    2  N   UNL     1     -41.639  58.457 -54.158  1.00  0.00    -0.174 NA
HETATM    3  N   UNL     1     -42.106  58.903 -55.334  1.00  0.00    -0.272 N 
HETATM    4  H   UNL     1     -41.634  59.677 -55.792  1.00  0.00     0.189 HD
HETATM    5  C   UNL     1     -43.227  58.257 -55.774  1.00  0.00     0.121 A 
HETATM    6  C   UNL     1     -43.471  57.290 -54.820  1.00  0.00     0.071 A 
ENDROOT
BRANCH   5   7
HETATM    7  C   UNL     1     -43.889  58.660 -56.990  1.00  0.00     0.289 C 
HETATM    8  N   UNL     1     -44.148  57.626 -57.877  1.00  0.00    -0.242 N 
HETATM    9  H   UNL     1     -43.872  56.679 -57.655  1.00  0.00     0.192 HD
HETATM   10  O   UNL     1     -44.198  59.833 -57.184  1.00  0.00    -0.264 OA
BRANCH   8  11
HETATM   11  N   UNL     1     -44.870  57.858 -59.012  1.00  0.00    -0.184 NA
HETATM   12  C   UNL     1     -46.033  57.292 -59.064  1.00  0.00     0.150 C 
BRANCH  12  13
HETATM   13  C   UNL     1     -46.940  57.484 -60.212  1.00  0.00    -0.017 A 
HETATM   14  C   UNL     1     -47.461  56.389 -60.903  1.00  0.00     0.016 A 
HETATM   15  C   UNL     1     -48.303  56.600 -61.996  1.00  0.00     0.037 A 
HETATM   16  C   UNL     1     -48.638  57.896 -62.401  1.00  0.00     0.068 A 
HETATM   17  C   UNL     1     -48.114  58.987 -61.704  1.00  0.00     0.037 A 
HETATM   18  C   UNL     1     -47.264  58.783 -60.610  1.00  0.00     0.016 A 
BRANCH  16  19
HETATM   19  O   UNL     1     -49.470  57.958 -63.483  1.00  0.00    -0.352 OA
BRANCH  19  20
HETATM   20  C   UNL     1     -50.352  59.075 -63.564  1.00  0.00     0.171 C 
HETATM   21  C   UNL     1     -51.504  58.831 -62.605  1.00  0.00     0.034 C 
ENDBRANCH  19  20
ENDBRANCH  16  19
ENDBRANCH  12  13
ENDBRANCH   8  11
ENDBRANCH   5   7
BRANCH   1  22
HETATM   22  C   UNL     1     -42.320  56.720 -52.565  1.00  0.00    -0.005 A 
HETATM   23  C   UNL     1     -43.182  55.657 -52.261  1.00  0.00     0.016 A 
HETATM   24  C   UNL     1     -43.020  54.906 -51.090  1.00  0.00     0.037 A 
HETATM   25  C   UNL     1     -41.991  55.212 -50.202  1.00  0.00     0.068 A 
HETATM   26  C   UNL     1     -41.150  56.290 -50.479  1.00  0.00     0.037 A 
HETATM   27  C   UNL     1     -41.307  57.038 -51.652  1.00  0.00     0.016 A 
BRANCH  25  28
HETATM   28  O   UNL     1     -41.711  54.550 -49.039  1.00  0.00    -0.351 OA
BRANCH  28  29
HETATM   29  C   UNL     1     -40.451  53.879 -48.971  1.00  0.00     0.175 C 
BRANCH  29  30
HETATM   30  C   UNL     1     -40.522  52.662 -49.889  1.00  0.00     0.022 C 
HETATM   31  C   UNL     1     -39.675  52.846 -51.136  1.00  0.00     0.007 C 
ENDBRANCH  29  30
ENDBRANCH  28  29
ENDBRANCH  25  28
ENDBRANCH   1  22
TORSDOF 9
ENDMDL
MODEL 8
REMARK VINA RESULT:      -6.1      1.796      2.285
REMARK  9 active torsions:
REMARK  status: ('A' for Active; 'I' for Inactive)
REMARK    1  A    between atoms: C_2  and  C_3 
REMARK    2  A    between atoms: C_3  and  O_4 
REMARK    3  A    between atoms: O_4  and  C_5 
REMARK    4  A    between atoms: C_8  and  C_9 
REMARK    5  A    between atoms: C_13  and  C_14 
REMARK       I    between atoms: C_14  and  N_15 
REMARK    6  A    between atoms: N_15  and  N_16 
REMARK    7  A    between atoms: C_17  and  C_18 
REMARK    8  A    between atoms: C_21  and  O_22 
REMARK    9  A    between atoms: O_22  and  C_23 
ROOT
HETATM    1  C   UNL     1     -42.564  55.137 -55.108  1.00  0.00     0.089 A 
HETATM    2  N   UNL     1     -42.568  54.901 -56.429  1.00  0.00    -0.174 NA
HETATM    3  N   UNL     1     -43.349  55.864 -56.943  1.00  0.00    -0.272 N 
HETATM    4  H   UNL     1     -43.501  55.895 -57.947  1.00  0.00     0.189 HD
HETATM    5  C   UNL     1     -43.838  56.743 -56.017  1.00  0.00     0.121 A 
HETATM    6  C   UNL     1     -43.364  56.277 -54.808  1.00  0.00     0.071 A 
ENDROOT
BRANCH   5   7
HETATM    7  C   UNL     1     -44.641  57.873 -56.415  1.00  0.00     0.289 C 
HETATM    8  N   UNL     1     -45.251  57.741 -57.653  1.00  0.00    -0.242 N 
HETATM    9  H   UNL     1     -45.113  56.906 -58.206  1.00  0.00     0.192 HD
HETATM   10  O   UNL     1     -44.763  58.851 -55.682  1.00  0.00    -0.264 OA
BRANCH   8  11
HETATM   11  N   UNL     1     -46.127  58.692 -58.093  1.00  0.00    -0.184 NA
HETATM   12  C   UNL     1     -46.741  58.420 -59.199  1.00  0.00     0.150 C 
BRANCH  12  13
HETATM   13  C   UNL     1     -47.744  59.336 -59.776  1.00  0.00    -0.017 A 
HETATM   14  C   UNL     1     -48.350  60.319 -58.991  1.00  0.00     0.016 A 
HETATM   15  C   UNL     1     -49.308  61.161 -59.558  1.00  0.00     0.037 A 
HETATM   16  C   UNL     1     -49.661  61.036 -60.905  1.00  0.00     0.068 A 
HETATM   17  C   UNL     1     -49.050  60.052 -61.685  1.00  0.00     0.037 A 
HETATM   18  C   UNL     1     -48.093  59.200 -61.121  1.00  0.00     0.016 A 
BRANCH  16  19
HETATM   19  O   UNL     1     -50.610  61.924 -61.329  1.00  0.00    -0.352 OA
BRANCH  19  20
HETATM   20  C   UNL     1     -51.731  61.394 -62.034  1.00  0.00     0.171 C 
HETATM   21  C   UNL     1     -52.711  60.849 -61.009  1.00  0.00     0.034 C 
ENDBRANCH  19  20
ENDBRANCH  16  19
ENDBRANCH  12  13
ENDBRANCH   8  11
ENDBRANCH   5   7
BRANCH   1  22
HETATM   22  C   UNL     1     -41.785  54.315 -54.180  1.00  0.00    -0.005 A 
HETATM   23  C   UNL     1     -40.760  53.486 -54.657  1.00  0.00     0.016 A 
HETATM   24  C   UNL     1     -39.969  52.736 -53.778  1.00  0.00     0.037 A 
HETATM   25  C   UNL     1     -40.194  52.803 -52.405  1.00  0.00     0.068 A 
HETATM   26  C   UNL     1     -41.234  53.600 -51.924  1.00  0.00     0.037 A 
HETATM   27  C   UNL     1     -42.022  54.354 -52.800  1.00  0.00     0.016 A 
BRANCH  25  28
HETATM   28  O   UNL     1     -39.485  52.142 -51.441  1.00  0.00    -0.351 OA
BRANCH  28  29
HETATM   29  C   UNL     1     -40.210  51.205 -50.642  1.00  0.00     0.175 C 
BRANCH  29  30
HETATM   30  C   UNL     1     -39.574  49.833 -50.842  1.00  0.00     0.022 C 
HETATM   31  C   UNL     1     -39.663  49.374 -52.287  1.00  0.00     0.007 C 
ENDBRANCH  29  30
ENDBRANCH  28  29
ENDBRANCH  25  28
ENDBRANCH   1  22
TORSDOF 9
ENDMDL
MODEL 9
REMARK VINA RESULT:      -6.0      1.706      2.085
REMARK  9 active torsions:
REMARK  status: ('A' for Active; 'I' for Inactive)
REMARK    1  A    between atoms: C_2  and  C_3 
REMARK    2  A    between atoms: C_3  and  O_4 
REMARK    3  A    between atoms: O_4  and  C_5 
REMARK    4  A    between atoms: C_8  and  C_9 
REMARK    5  A    between atoms: C_13  and  C_14 
REMARK       I    between atoms: C_14  and  N_15 
REMARK    6  A    between atoms: N_15  and  N_16 
REMARK    7  A    between atoms: C_17  and  C_18 
REMARK    8  A    between atoms: C_21  and  O_22 
REMARK    9  A    between atoms: O_22  and  C_23 
ROOT
HETATM    1  C   UNL     1     -42.277  54.981 -55.542  1.00  0.00     0.089 A 
HETATM    2  N   UNL     1     -43.158  54.325 -56.313  1.00  0.00    -0.174 NA
HETATM    3  N   UNL     1     -43.568  55.236 -57.207  1.00  0.00    -0.272 N 
HETATM    4  H   UNL     1     -44.247  54.966 -57.913  1.00  0.00     0.189 HD
HETATM    5  C   UNL     1     -42.973  56.460 -57.076  1.00  0.00     0.121 A 
HETATM    6  C   UNL     1     -42.145  56.329 -55.979  1.00  0.00     0.071 A 
ENDROOT
BRANCH   5   7
HETATM    7  C   UNL     1     -43.259  57.530 -58.000  1.00  0.00     0.289 C 
HETATM    8  N   UNL     1     -44.362  57.314 -58.811  1.00  0.00    -0.242 N 
HETATM    9  H   UNL     1     -44.895  56.458 -58.735  1.00  0.00     0.192 HD
HETATM   10  O   UNL     1     -42.565  58.543 -58.028  1.00  0.00    -0.264 OA
BRANCH   8  11
HETATM   11  N   UNL     1     -44.803  58.298 -59.649  1.00  0.00    -0.184 NA
HETATM   12  C   UNL     1     -46.055  58.239 -59.974  1.00  0.00     0.150 C 
BRANCH  12  13
HETATM   13  C   UNL     1     -46.680  59.256 -60.841  1.00  0.00    -0.017 A 
HETATM   14  C   UNL     1     -45.995  60.423 -61.184  1.00  0.00     0.016 A 
HETATM   15  C   UNL     1     -46.618  61.376 -61.991  1.00  0.00     0.037 A 
HETATM   16  C   UNL     1     -47.916  61.171 -62.468  1.00  0.00     0.068 A 
HETATM   17  C   UNL     1     -48.595  60.001 -62.121  1.00  0.00     0.037 A 
HETATM   18  C   UNL     1     -47.979  59.044 -61.307  1.00  0.00     0.016 A 
BRANCH  16  19
HETATM   19  O   UNL     1     -48.403  62.184 -63.247  1.00  0.00    -0.352 OA
BRANCH  19  20
HETATM   20  C   UNL     1     -48.544  63.465 -62.638  1.00  0.00     0.171 C 
HETATM   21  C   UNL     1     -49.730  63.404 -61.691  1.00  0.00     0.034 C 
ENDBRANCH  19  20
ENDBRANCH  16  19
ENDBRANCH  12  13
ENDBRANCH   8  11
ENDBRANCH   5   7
BRANCH   1  22
HETATM   22  C   UNL     1     -41.561  54.316 -54.450  1.00  0.00    -0.005 A 
HETATM   23  C   UNL     1     -41.806  54.679 -53.118  1.00  0.00     0.016 A 
HETATM   24  C   UNL     1     -41.172  54.016 -52.060  1.00  0.00     0.037 A 
HETATM   25  C   UNL     1     -40.279  52.979 -52.321  1.00  0.00     0.068 A 
HETATM   26  C   UNL     1     -40.004  52.634 -53.644  1.00  0.00     0.037 A 
HETATM   27  C   UNL     1     -40.641  53.291 -54.703  1.00  0.00     0.016 A 
BRANCH  25  28
HETATM   28  O   UNL     1     -39.612  52.240 -51.384  1.00  0.00    -0.351 OA
BRANCH  28  29
HETATM   29  C   UNL     1     -40.325  51.928 -50.186  1.00  0.00     0.175 C 
BRANCH  29  30
HETATM   30  C   UNL     1     -40.332  50.410 -50.030  1.00  0.00     0.022 C 
HETATM   31  C   UNL     1     -39.468  49.731 -51.078  1.00  0.00     0.007 C 
ENDBRANCH  29  30
ENDBRANCH  28  29
ENDBRANCH  25  28
ENDBRANCH   1  22
TORSDOF 9
ENDMDL
MODEL 10
REMARK VINA RESULT:      -5.9      6.519      7.219
REMARK  9 active torsions:
REMARK  status: ('A' for Active; 'I' for Inactive)
REMARK    1  A    between atoms: C_2  and  C_3 
REMARK    2  A    between atoms: C_3  and  O_4 
REMARK    3  A    between atoms: O_4  and  C_5 
REMARK    4  A    between atoms: C_8  and  C_9 
REMARK    5  A    between atoms: C_13  and  C_14 
REMARK       I    between atoms: C_14  and  N_15 
REMARK    6  A    between atoms: N_15  and  N_16 
REMARK    7  A    between atoms: C_17  and  C_18 
REMARK    8  A    between atoms: C_21  and  O_22 
REMARK    9  A    between atoms: O_22  and  C_23 
ROOT
HETATM    1  C   UNL     1     -42.728  57.855 -51.948  1.00  0.00     0.089 A 
HETATM    2  N   UNL     1     -42.288  58.534 -50.878  1.00  0.00    -0.174 NA
HETATM    3  N   UNL     1     -43.247  59.439 -50.633  1.00  0.00    -0.272 N 
HETATM    4  H   UNL     1     -43.137  60.077 -49.850  1.00  0.00     0.189 HD
HETATM    5  C   UNL     1     -44.317  59.367 -51.480  1.00  0.00     0.121 A 
HETATM    6  C   UNL     1     -43.993  58.359 -52.366  1.00  0.00     0.071 A 
ENDROOT
BRANCH   5   7
HETATM    7  C   UNL     1     -45.462  60.227 -51.310  1.00  0.00     0.289 C 
HETATM    8  N   UNL     1     -45.602  61.202 -52.286  1.00  0.00    -0.242 N 
HETATM    9  H   UNL     1     -44.929  61.276 -53.037  1.00  0.00     0.192 HD
HETATM   10  O   UNL     1     -46.237  60.070 -50.371  1.00  0.00    -0.264 OA
BRANCH   8  11
HETATM   11  N   UNL     1     -46.705  62.007 -52.301  1.00  0.00    -0.184 NA
HETATM   12  C   UNL     1     -47.602  61.712 -53.186  1.00  0.00     0.150 C 
BRANCH  12  13
HETATM   13  C   UNL     1     -48.864  62.470 -53.294  1.00  0.00    -0.017 A 
HETATM   14  C   UNL     1     -48.854  63.856 -53.459  1.00  0.00     0.016 A 
HETATM   15  C   UNL     1     -50.062  64.549 -53.541  1.00  0.00     0.037 A 
HETATM   16  C   UNL     1     -51.283  63.870 -53.468  1.00  0.00     0.068 A 
HETATM   17  C   UNL     1     -51.285  62.483 -53.304  1.00  0.00     0.037 A 
HETATM   18  C   UNL     1     -50.077  61.782 -53.215  1.00  0.00     0.016 A 
BRANCH  16  19
HETATM   19  O   UNL     1     -52.386  64.671 -53.563  1.00  0.00    -0.352 OA
BRANCH  19  20
HETATM   20  C   UNL     1     -53.473  64.192 -54.352  1.00  0.00     0.171 C 
HETATM   21  C   UNL     1     -53.220  64.600 -55.793  1.00  0.00     0.034 C 
ENDBRANCH  19  20
ENDBRANCH  16  19
ENDBRANCH  12  13
ENDBRANCH   8  11
ENDBRANCH   5   7
BRANCH   1  22
HETATM   22  C   UNL     1     -41.973  56.737 -52.518  1.00  0.00    -0.005 A 
HETATM   23  C   UNL     1     -41.809  55.550 -51.791  1.00  0.00     0.016 A 
HETATM   24  C   UNL     1     -41.138  54.451 -52.342  1.00  0.00     0.037 A 
HETATM   25  C   UNL     1     -40.617  54.527 -53.632  1.00  0.00     0.068 A 
HETATM   26  C   UNL     1     -40.746  55.716 -54.350  1.00  0.00     0.037 A 
HETATM   27  C   UNL     1     -41.422  56.813 -53.803  1.00  0.00     0.016 A 
BRANCH  25  28
HETATM   28  O   UNL     1     -39.961  53.526 -54.293  1.00  0.00    -0.351 OA
BRANCH  28  29
HETATM   29  C   UNL     1     -40.582  52.239 -54.288  1.00  0.00     0.175 C 
BRANCH  29  30
HETATM   30  C   UNL     1     -39.508  51.205 -53.966  1.00  0.00     0.022 C 
HETATM   31  C   UNL     1     -40.019  49.786 -54.143  1.00  0.00     0.007 C 
ENDBRANCH  29  30
ENDBRANCH  28  29
ENDBRANCH  25  28
ENDBRANCH   1  22
TORSDOF 9
ENDMDL
