MODEL 1
REMARK VINA RESULT:     -10.1      0.000      0.000
REMARK  7 active torsions:
REMARK  status: ('A' for Active; 'I' for Inactive)
REMARK    1  A    between atoms: C_3  and  C_4 
REMARK    2  A    between atoms: N_5  and  C_6 
REMARK    3  A    between atoms: C_9  and  N_10 
REMARK       I    between atoms: N_10  and  C_11 
REMARK       I    between atoms: C_11  and  N_12 
REMARK    4  A    between atoms: N_12  and  C_13 
REMARK    5  A    between atoms: C_15  and  C_16 
REMARK    6  A    between atoms: C_32  and  C_33 
REMARK    7  A    between atoms: C_33  and  N_34 
ROOT
HETATM    1  C   UNL     1     -43.457  60.782 -50.179  1.00  0.00     0.169 C 
HETATM    2  C   UNL     1     -42.263  60.176 -50.900  1.00  0.00     0.179 C 
HETATM    3  C   UNL     1     -42.812  58.943 -51.604  1.00  0.00     0.177 C 
HETATM    4  C   UNL     1     -41.963  57.780 -51.108  1.00  0.00     0.141 C 
HETATM    5  C   UNL     1     -40.785  58.468 -50.420  1.00  0.00     0.196 C 
HETATM    6  O   UNL     1     -41.266  59.743 -49.958  1.00  0.00    -0.379 OA
HETATM    7  O   UNL     1     -44.183  58.791 -51.193  1.00  0.00    -0.379 OA
HETATM    8  C   UNL     1     -44.640  60.116 -50.874  1.00  0.00     0.198 C 
ENDROOT
BRANCH   1   9
HETATM    9  N   UNL     1     -43.456  62.221 -50.191  1.00  0.00    -0.221 N 
HETATM   10  C   UNL     1     -44.064  63.128 -49.345  1.00  0.00     0.182 A 
HETATM   11  N   UNL     1     -43.617  64.326 -49.685  1.00  0.00    -0.108 NA
HETATM   12  N   UNL     1     -42.769  64.158 -50.741  1.00  0.00    -0.023 NA
HETATM   13  N   UNL     1     -42.654  62.879 -51.048  1.00  0.00    -0.043 NA
BRANCH  10  14
HETATM   14  C   UNL     1     -44.958  62.889 -48.211  1.00  0.00     0.014 A 
HETATM   15  C   UNL     1     -46.001  61.960 -48.224  1.00  0.00     0.015 A 
HETATM   16  C   UNL     1     -46.834  61.808 -47.111  1.00  0.00     0.002 A 
HETATM   17  C   UNL     1     -46.658  62.604 -45.981  1.00  0.00     0.009 A 
HETATM   18  C   UNL     1     -45.654  63.578 -45.956  1.00  0.00    -0.032 A 
HETATM   19  C   UNL     1     -44.808  63.700 -47.071  1.00  0.00     0.024 A 
BRANCH  18  20
HETATM   20  C   UNL     1     -45.482  64.478 -44.764  1.00  0.00     0.273 C 
BRANCH  20  21
HETATM   21  N   UNL     1     -45.009  63.751 -43.535  1.00  0.00    -0.067 N 
HETATM   22  H   UNL     1     -45.850  63.388 -43.070  1.00  0.00     0.280 HD
HETATM   23  C   UNL     1     -44.284  64.640 -42.544  1.00  0.00     0.235 C 
HETATM   24  C   UNL     1     -42.884  64.066 -42.461  1.00  0.00     0.029 C 
HETATM   25  C   UNL     1     -43.104  62.584 -42.683  1.00  0.00     0.029 C 
HETATM   26  C   UNL     1     -44.109  62.562 -43.818  1.00  0.00     0.235 C 
ENDBRANCH  20  21
ENDBRANCH  18  20
ENDBRANCH  10  14
ENDBRANCH   1   9
BRANCH   4  27
HETATM   27  N   UNL     1     -41.619  56.808 -52.141  1.00  0.00    -0.334 N 
HETATM   28  C   UNL     1     -41.290  55.504 -51.825  1.00  0.00     0.321 C 
HETATM   29  N   UNL     1     -40.897  54.801 -52.941  1.00  0.00    -0.309 N 
HETATM   30  O   UNL     1     -41.368  55.082 -50.679  1.00  0.00    -0.247 OA
HETATM   31  H   UNL     1     -40.879  55.312 -53.810  1.00  0.00     0.170 HD
HETATM   32  H   UNL     1     -41.172  57.190 -52.963  1.00  0.00     0.164 HD
BRANCH  29  33
HETATM   33  C   UNL     1     -40.522  53.444 -53.014  1.00  0.00     0.037 A 
HETATM   34  C   UNL     1     -40.362  52.617 -51.899  1.00  0.00     0.045 A 
HETATM   35  C   UNL     1     -40.007  51.263 -52.044  1.00  0.00     0.050 A 
HETATM   36  C   UNL     1     -39.788  50.750 -53.330  1.00  0.00     0.016 A 
HETATM   37  C   UNL     1     -39.941  51.568 -54.448  1.00  0.00     0.003 A 
HETATM   38  C   UNL     1     -40.311  52.905 -54.289  1.00  0.00     0.029 A 
BRANCH  35  39
HETATM   39  C   UNL     1     -39.839  50.375 -50.836  1.00  0.00     0.417 C 
HETATM   40  F   UNL     1     -38.561  49.942 -50.650  1.00  0.00    -0.166 F 
HETATM   41  F   UNL     1     -40.188  51.000 -49.676  1.00  0.00    -0.166 F 
HETATM   42  F   UNL     1     -40.608  49.254 -50.903  1.00  0.00    -0.166 F 
ENDBRANCH  35  39
ENDBRANCH  29  33
ENDBRANCH   4  27
TORSDOF 7
ENDMDL
MODEL 2
REMARK VINA RESULT:      -9.8      5.544      8.980
REMARK  7 active torsions:
REMARK  status: ('A' for Active; 'I' for Inactive)
REMARK    1  A    between atoms: C_3  and  C_4 
REMARK    2  A    between atoms: N_5  and  C_6 
REMARK    3  A    between atoms: C_9  and  N_10 
REMARK       I    between atoms: N_10  and  C_11 
REMARK       I    between atoms: C_11  and  N_12 
REMARK    4  A    between atoms: N_12  and  C_13 
REMARK    5  A    between atoms: C_15  and  C_16 
REMARK    6  A    between atoms: C_32  and  C_33 
REMARK    7  A    between atoms: C_33  and  N_34 
ROOT
HETATM    1  C   UNL     1     -44.968  59.365 -54.148  1.00  0.00     0.169 C 
HETATM    2  C   UNL     1     -43.492  59.219 -53.812  1.00  0.00     0.179 C 
HETATM    3  C   UNL     1     -43.177  57.749 -54.051  1.00  0.00     0.177 C 
HETATM    4  C   UNL     1     -42.606  57.237 -52.735  1.00  0.00     0.141 C 
HETATM    5  C   UNL     1     -42.323  58.516 -51.948  1.00  0.00     0.196 C 
HETATM    6  O   UNL     1     -43.256  59.504 -52.422  1.00  0.00    -0.379 OA
HETATM    7  O   UNL     1     -44.418  57.091 -54.362  1.00  0.00    -0.379 OA
HETATM    8  C   UNL     1     -45.253  58.101 -54.952  1.00  0.00     0.198 C 
ENDROOT
BRANCH   1   9
HETATM    9  N   UNL     1     -45.279  60.607 -54.805  1.00  0.00    -0.221 N 
HETATM   10  C   UNL     1     -44.872  61.106 -56.026  1.00  0.00     0.182 A 
HETATM   11  N   UNL     1     -45.570  62.209 -56.241  1.00  0.00    -0.108 NA
HETATM   12  N   UNL     1     -46.372  62.398 -55.154  1.00  0.00    -0.023 NA
HETATM   13  N   UNL     1     -46.213  61.422 -54.280  1.00  0.00    -0.043 NA
BRANCH  10  14
HETATM   14  C   UNL     1     -43.935  60.539 -56.998  1.00  0.00     0.014 A 
HETATM   15  C   UNL     1     -42.570  60.836 -57.027  1.00  0.00     0.015 A 
HETATM   16  C   UNL     1     -41.740  60.278 -58.005  1.00  0.00     0.002 A 
HETATM   17  C   UNL     1     -42.267  59.442 -58.988  1.00  0.00     0.009 A 
HETATM   18  C   UNL     1     -43.639  59.166 -59.016  1.00  0.00    -0.032 A 
HETATM   19  C   UNL     1     -44.455  59.712 -58.011  1.00  0.00     0.024 A 
BRANCH  18  20
HETATM   20  C   UNL     1     -44.231  58.306 -60.098  1.00  0.00     0.273 C 
BRANCH  20  21
HETATM   21  N   UNL     1     -44.857  57.043 -59.575  1.00  0.00    -0.067 N 
HETATM   22  H   UNL     1     -45.614  57.333 -58.944  1.00  0.00     0.280 HD
HETATM   23  C   UNL     1     -43.902  56.177 -58.776  1.00  0.00     0.235 C 
HETATM   24  C   UNL     1     -43.817  54.878 -59.553  1.00  0.00     0.029 C 
HETATM   25  C   UNL     1     -45.196  54.752 -60.168  1.00  0.00     0.029 C 
HETATM   26  C   UNL     1     -45.480  56.163 -60.642  1.00  0.00     0.235 C 
ENDBRANCH  20  21
ENDBRANCH  18  20
ENDBRANCH  10  14
ENDBRANCH   1   9
BRANCH   4  27
HETATM   27  N   UNL     1     -41.479  56.322 -52.889  1.00  0.00    -0.334 N 
HETATM   28  C   UNL     1     -41.657  54.952 -52.904  1.00  0.00     0.321 C 
HETATM   29  N   UNL     1     -40.452  54.289 -52.948  1.00  0.00    -0.309 N 
HETATM   30  O   UNL     1     -42.774  54.450 -52.889  1.00  0.00    -0.247 OA
HETATM   31  H   UNL     1     -39.624  54.864 -52.942  1.00  0.00     0.170 HD
HETATM   32  H   UNL     1     -40.601  56.649 -52.509  1.00  0.00     0.164 HD
BRANCH  29  33
HETATM   33  C   UNL     1     -40.239  52.897 -53.008  1.00  0.00     0.037 A 
HETATM   34  C   UNL     1     -40.072  52.084 -51.883  1.00  0.00     0.045 A 
HETATM   35  C   UNL     1     -39.885  50.695 -52.013  1.00  0.00     0.050 A 
HETATM   36  C   UNL     1     -39.842  50.130 -53.295  1.00  0.00     0.016 A 
HETATM   37  C   UNL     1     -40.003  50.933 -54.422  1.00  0.00     0.003 A 
HETATM   38  C   UNL     1     -40.206  52.307 -54.277  1.00  0.00     0.029 A 
BRANCH  35  39
HETATM   39  C   UNL     1     -39.709  49.823 -50.794  1.00  0.00     0.417 C 
HETATM   40  F   UNL     1     -40.173  50.390 -49.645  1.00  0.00    -0.166 F 
HETATM   41  F   UNL     1     -40.363  48.632 -50.906  1.00  0.00    -0.166 F 
HETATM   42  F   UNL     1     -38.405  49.514 -50.559  1.00  0.00    -0.166 F 
ENDBRANCH  35  39
ENDBRANCH  29  33
ENDBRANCH   4  27
TORSDOF 7
ENDMDL
MODEL 3
REMARK VINA RESULT:      -9.5      6.916     10.928
REMARK  7 active torsions:
REMARK  status: ('A' for Active; 'I' for Inactive)
REMARK    1  A    between atoms: C_3  and  C_4 
REMARK    2  A    between atoms: N_5  and  C_6 
REMARK    3  A    between atoms: C_9  and  N_10 
REMARK       I    between atoms: N_10  and  C_11 
REMARK       I    between atoms: C_11  and  N_12 
REMARK    4  A    between atoms: N_12  and  C_13 
REMARK    5  A    between atoms: C_15  and  C_16 
REMARK    6  A    between atoms: C_32  and  C_33 
REMARK    7  A    between atoms: C_33  and  N_34 
ROOT
HETATM    1  C   UNL     1     -43.438  59.591 -57.255  1.00  0.00     0.169 C 
HETATM    2  C   UNL     1     -42.443  58.786 -56.432  1.00  0.00     0.179 C 
HETATM    3  C   UNL     1     -43.297  57.911 -55.526  1.00  0.00     0.177 C 
HETATM    4  C   UNL     1     -42.844  58.230 -54.108  1.00  0.00     0.141 C 
HETATM    5  C   UNL     1     -41.545  59.008 -54.316  1.00  0.00     0.196 C 
HETATM    6  O   UNL     1     -41.654  59.653 -55.598  1.00  0.00    -0.379 OA
HETATM    7  O   UNL     1     -44.669  58.299 -55.727  1.00  0.00    -0.379 OA
HETATM    8  C   UNL     1     -44.734  58.809 -57.069  1.00  0.00     0.198 C 
ENDROOT
BRANCH   1   9
HETATM    9  N   UNL     1     -43.018  59.790 -58.617  1.00  0.00    -0.221 N 
HETATM   10  C   UNL     1     -43.216  59.014 -59.741  1.00  0.00     0.182 A 
HETATM   11  N   UNL     1     -42.778  59.717 -60.773  1.00  0.00    -0.108 NA
HETATM   12  N   UNL     1     -42.293  60.895 -60.284  1.00  0.00    -0.023 NA
HETATM   13  N   UNL     1     -42.446  60.955 -58.974  1.00  0.00    -0.043 NA
BRANCH  10  14
HETATM   14  C   UNL     1     -43.863  57.707 -59.870  1.00  0.00     0.014 A 
HETATM   15  C   UNL     1     -43.198  56.489 -59.706  1.00  0.00     0.015 A 
HETATM   16  C   UNL     1     -43.877  55.278 -59.873  1.00  0.00     0.002 A 
HETATM   17  C   UNL     1     -45.223  55.265 -60.237  1.00  0.00     0.009 A 
HETATM   18  C   UNL     1     -45.904  56.467 -60.457  1.00  0.00    -0.032 A 
HETATM   19  C   UNL     1     -45.215  57.676 -60.259  1.00  0.00     0.024 A 
BRANCH  18  20
HETATM   20  C   UNL     1     -47.341  56.470 -60.897  1.00  0.00     0.273 C 
BRANCH  20  21
HETATM   21  N   UNL     1     -47.609  57.408 -62.041  1.00  0.00    -0.067 N 
HETATM   22  H   UNL     1     -46.700  57.595 -62.484  1.00  0.00     0.280 HD
HETATM   23  C   UNL     1     -48.191  58.741 -61.611  1.00  0.00     0.235 C 
HETATM   24  C   UNL     1     -49.551  58.801 -62.276  1.00  0.00     0.029 C 
HETATM   25  C   UNL     1     -49.341  58.035 -63.566  1.00  0.00     0.029 C 
HETATM   26  C   UNL     1     -48.519  56.843 -63.116  1.00  0.00     0.235 C 
ENDBRANCH  20  21
ENDBRANCH  18  20
ENDBRANCH  10  14
ENDBRANCH   1   9
BRANCH   4  27
HETATM   27  N   UNL     1     -42.756  57.066 -53.232  1.00  0.00    -0.334 N 
HETATM   28  C   UNL     1     -41.779  56.105 -53.404  1.00  0.00     0.321 C 
HETATM   29  N   UNL     1     -41.955  55.050 -52.538  1.00  0.00    -0.309 N 
HETATM   30  O   UNL     1     -40.888  56.236 -54.233  1.00  0.00    -0.247 OA
HETATM   31  H   UNL     1     -42.755  55.099 -51.928  1.00  0.00     0.170 HD
HETATM   32  H   UNL     1     -43.636  56.739 -52.856  1.00  0.00     0.164 HD
BRANCH  29  33
HETATM   33  C   UNL     1     -41.141  53.906 -52.400  1.00  0.00     0.037 A 
HETATM   34  C   UNL     1     -41.105  52.858 -53.323  1.00  0.00     0.045 A 
HETATM   35  C   UNL     1     -40.253  51.754 -53.135  1.00  0.00     0.050 A 
HETATM   36  C   UNL     1     -39.448  51.702 -51.989  1.00  0.00     0.016 A 
HETATM   37  C   UNL     1     -39.480  52.741 -51.060  1.00  0.00     0.003 A 
HETATM   38  C   UNL     1     -40.318  53.838 -51.269  1.00  0.00     0.029 A 
BRANCH  35  39
HETATM   39  C   UNL     1     -40.216  50.627 -54.137  1.00  0.00     0.417 C 
HETATM   40  F   UNL     1     -41.437  50.320 -54.658  1.00  0.00    -0.166 F 
HETATM   41  F   UNL     1     -39.420  50.906 -55.208  1.00  0.00    -0.166 F 
HETATM   42  F   UNL     1     -39.735  49.471 -53.604  1.00  0.00    -0.166 F 
ENDBRANCH  35  39
ENDBRANCH  29  33
ENDBRANCH   4  27
TORSDOF 7
ENDMDL
MODEL 4
REMARK VINA RESULT:      -9.4      3.989      6.100
REMARK  7 active torsions:
REMARK  status: ('A' for Active; 'I' for Inactive)
REMARK    1  A    between atoms: C_3  and  C_4 
REMARK    2  A    between atoms: N_5  and  C_6 
REMARK    3  A    between atoms: C_9  and  N_10 
REMARK       I    between atoms: N_10  and  C_11 
REMARK       I    between atoms: C_11  and  N_12 
REMARK    4  A    between atoms: N_12  and  C_13 
REMARK    5  A    between atoms: C_15  and  C_16 
REMARK    6  A    between atoms: C_32  and  C_33 
REMARK    7  A    between atoms: C_33  and  N_34 
ROOT
HETATM    1  C   UNL     1     -45.413  60.172 -51.548  1.00  0.00     0.169 C 
HETATM    2  C   UNL     1     -44.661  59.059 -50.835  1.00  0.00     0.179 C 
HETATM    3  C   UNL     1     -43.500  58.714 -51.757  1.00  0.00     0.177 C 
HETATM    4  C   UNL     1     -43.633  57.223 -52.036  1.00  0.00     0.141 C 
HETATM    5  C   UNL     1     -44.652  56.756 -50.998  1.00  0.00     0.196 C 
HETATM    6  O   UNL     1     -45.488  57.889 -50.705  1.00  0.00    -0.379 OA
HETATM    7  O   UNL     1     -43.670  59.480 -52.963  1.00  0.00    -0.379 OA
HETATM    8  C   UNL     1     -44.395  60.658 -52.574  1.00  0.00     0.198 C 
ENDROOT
BRANCH   1   9
HETATM    9  N   UNL     1     -45.925  61.175 -50.652  1.00  0.00    -0.221 N 
HETATM   10  C   UNL     1     -46.585  62.360 -50.911  1.00  0.00     0.182 A 
HETATM   11  N   UNL     1     -46.991  62.834 -49.744  1.00  0.00    -0.108 NA
HETATM   12  N   UNL     1     -46.561  61.967 -48.783  1.00  0.00    -0.023 NA
HETATM   13  N   UNL     1     -45.922  60.947 -49.325  1.00  0.00    -0.043 NA
BRANCH  10  14
HETATM   14  C   UNL     1     -46.904  62.988 -52.194  1.00  0.00     0.014 A 
HETATM   15  C   UNL     1     -46.067  63.897 -52.845  1.00  0.00     0.015 A 
HETATM   16  C   UNL     1     -46.452  64.479 -54.057  1.00  0.00     0.002 A 
HETATM   17  C   UNL     1     -47.693  64.187 -54.621  1.00  0.00     0.009 A 
HETATM   18  C   UNL     1     -48.575  63.319 -53.968  1.00  0.00    -0.032 A 
HETATM   19  C   UNL     1     -48.162  62.721 -52.765  1.00  0.00     0.024 A 
BRANCH  18  20
HETATM   20  C   UNL     1     -49.936  63.031 -54.537  1.00  0.00     0.273 C 
BRANCH  20  21
HETATM   21  N   UNL     1     -50.885  62.436 -53.533  1.00  0.00    -0.067 N 
HETATM   22  H   UNL     1     -50.415  61.609 -53.143  1.00  0.00     0.280 HD
HETATM   23  C   UNL     1     -52.198  61.977 -54.136  1.00  0.00     0.235 C 
HETATM   24  C   UNL     1     -53.253  62.824 -53.455  1.00  0.00     0.029 C 
HETATM   25  C   UNL     1     -52.675  63.054 -52.074  1.00  0.00     0.029 C 
HETATM   26  C   UNL     1     -51.217  63.349 -52.367  1.00  0.00     0.235 C 
ENDBRANCH  20  21
ENDBRANCH  18  20
ENDBRANCH  10  14
ENDBRANCH   1   9
BRANCH   4  27
HETATM   27  N   UNL     1     -42.363  56.502 -52.052  1.00  0.00    -0.334 N 
HETATM   28  C   UNL     1     -42.292  55.172 -52.417  1.00  0.00     0.321 C 
HETATM   29  N   UNL     1     -41.020  54.674 -52.253  1.00  0.00    -0.309 N 
HETATM   30  O   UNL     1     -43.272  54.568 -52.834  1.00  0.00    -0.247 OA
HETATM   31  H   UNL     1     -40.333  55.312 -51.882  1.00  0.00     0.170 HD
HETATM   32  H   UNL     1     -41.682  56.812 -51.373  1.00  0.00     0.164 HD
BRANCH  29  33
HETATM   33  C   UNL     1     -40.561  53.374 -52.550  1.00  0.00     0.037 A 
HETATM   34  C   UNL     1     -40.334  52.388 -51.586  1.00  0.00     0.045 A 
HETATM   35  C   UNL     1     -39.896  51.102 -51.953  1.00  0.00     0.050 A 
HETATM   36  C   UNL     1     -39.663  50.821 -53.306  1.00  0.00     0.016 A 
HETATM   37  C   UNL     1     -39.882  51.800 -54.274  1.00  0.00     0.003 A 
HETATM   38  C   UNL     1     -40.334  53.066 -53.897  1.00  0.00     0.029 A 
BRANCH  35  39
HETATM   39  C   UNL     1     -39.656  50.040 -50.908  1.00  0.00     0.417 C 
HETATM   40  F   UNL     1     -40.090  50.391 -49.664  1.00  0.00    -0.166 F 
HETATM   41  F   UNL     1     -40.288  48.868 -51.200  1.00  0.00    -0.166 F 
HETATM   42  F   UNL     1     -38.338  49.732 -50.772  1.00  0.00    -0.166 F 
ENDBRANCH  35  39
ENDBRANCH  29  33
ENDBRANCH   4  27
TORSDOF 7
ENDMDL
MODEL 5
REMARK VINA RESULT:      -9.3      4.055      7.195
REMARK  7 active torsions:
REMARK  status: ('A' for Active; 'I' for Inactive)
REMARK    1  A    between atoms: C_3  and  C_4 
REMARK    2  A    between atoms: N_5  and  C_6 
REMARK    3  A    between atoms: C_9  and  N_10 
REMARK       I    between atoms: N_10  and  C_11 
REMARK       I    between atoms: C_11  and  N_12 
REMARK    4  A    between atoms: N_12  and  C_13 
REMARK    5  A    between atoms: C_15  and  C_16 
REMARK    6  A    between atoms: C_32  and  C_33 
REMARK    7  A    between atoms: C_33  and  N_34 
ROOT
HETATM    1  C   UNL     1     -44.741  59.630 -50.632  1.00  0.00     0.169 C 
HETATM    2  C   UNL     1     -43.418  59.489 -51.367  1.00  0.00     0.179 C 
HETATM    3  C   UNL     1     -43.357  58.029 -51.792  1.00  0.00     0.177 C 
HETATM    4  C   UNL     1     -42.060  57.488 -51.205  1.00  0.00     0.141 C 
HETATM    5  C   UNL     1     -41.312  58.749 -50.773  1.00  0.00     0.196 C 
HETATM    6  O   UNL     1     -42.314  59.740 -50.479  1.00  0.00    -0.379 OA
HETATM    7  O   UNL     1     -44.497  57.367 -51.215  1.00  0.00    -0.379 OA
HETATM    8  C   UNL     1     -45.502  58.384 -51.073  1.00  0.00     0.198 C 
ENDROOT
BRANCH   1   9
HETATM    9  N   UNL     1     -45.399  60.885 -50.882  1.00  0.00    -0.221 N 
HETATM   10  C   UNL     1     -45.474  61.647 -52.031  1.00  0.00     0.182 A 
HETATM   11  N   UNL     1     -46.333  62.624 -51.786  1.00  0.00    -0.108 NA
HETATM   12  N   UNL     1     -46.756  62.477 -50.497  1.00  0.00    -0.023 NA
HETATM   13  N   UNL     1     -46.203  61.415 -49.942  1.00  0.00    -0.043 NA
BRANCH  10  14
HETATM   14  C   UNL     1     -44.842  61.434 -53.334  1.00  0.00     0.014 A 
HETATM   15  C   UNL     1     -43.765  62.186 -53.809  1.00  0.00     0.015 A 
HETATM   16  C   UNL     1     -43.231  61.944 -55.079  1.00  0.00     0.002 A 
HETATM   17  C   UNL     1     -43.785  60.967 -55.905  1.00  0.00     0.009 A 
HETATM   18  C   UNL     1     -44.895  60.231 -55.477  1.00  0.00    -0.032 A 
HETATM   19  C   UNL     1     -45.403  60.468 -54.189  1.00  0.00     0.024 A 
BRANCH  18  20
HETATM   20  C   UNL     1     -45.535  59.209 -56.375  1.00  0.00     0.273 C 
BRANCH  20  21
HETATM   21  N   UNL     1     -44.622  58.725 -57.468  1.00  0.00    -0.067 N 
HETATM   22  H   UNL     1     -43.886  59.435 -57.567  1.00  0.00     0.280 HD
HETATM   23  C   UNL     1     -45.307  58.584 -58.814  1.00  0.00     0.235 C 
HETATM   24  C   UNL     1     -45.197  57.111 -59.150  1.00  0.00     0.029 C 
HETATM   25  C   UNL     1     -43.882  56.708 -58.515  1.00  0.00     0.029 C 
HETATM   26  C   UNL     1     -43.932  57.407 -57.171  1.00  0.00     0.235 C 
ENDBRANCH  20  21
ENDBRANCH  18  20
ENDBRANCH  10  14
ENDBRANCH   1   9
BRANCH   4  27
HETATM   27  N   UNL     1     -41.330  56.587 -52.093  1.00  0.00    -0.334 N 
HETATM   28  C   UNL     1     -41.351  55.219 -51.910  1.00  0.00     0.321 C 
HETATM   29  N   UNL     1     -40.510  54.582 -52.792  1.00  0.00    -0.309 N 
HETATM   30  O   UNL     1     -42.058  54.696 -51.058  1.00  0.00    -0.247 OA
HETATM   31  H   UNL     1     -39.988  55.173 -53.421  1.00  0.00     0.170 HD
HETATM   32  H   UNL     1     -40.483  56.968 -52.493  1.00  0.00     0.164 HD
BRANCH  29  33
HETATM   33  C   UNL     1     -40.294  53.194 -52.925  1.00  0.00     0.037 A 
HETATM   34  C   UNL     1     -40.121  52.324 -51.845  1.00  0.00     0.045 A 
HETATM   35  C   UNL     1     -39.931  50.945 -52.048  1.00  0.00     0.050 A 
HETATM   36  C   UNL     1     -39.892  50.447 -53.358  1.00  0.00     0.016 A 
HETATM   37  C   UNL     1     -40.060  51.308 -54.441  1.00  0.00     0.003 A 
HETATM   38  C   UNL     1     -40.265  52.672 -54.224  1.00  0.00     0.029 A 
BRANCH  35  39
HETATM   39  C   UNL     1     -39.749  50.010 -50.878  1.00  0.00     0.417 C 
HETATM   40  F   UNL     1     -40.448  48.846 -50.995  1.00  0.00    -0.166 F 
HETATM   41  F   UNL     1     -38.448  49.641 -50.702  1.00  0.00    -0.166 F 
HETATM   42  F   UNL     1     -40.143  50.567 -49.700  1.00  0.00    -0.166 F 
ENDBRANCH  35  39
ENDBRANCH  29  33
ENDBRANCH   4  27
TORSDOF 7
ENDMDL
MODEL 6
REMARK VINA RESULT:      -9.3      4.164      5.609
REMARK  7 active torsions:
REMARK  status: ('A' for Active; 'I' for Inactive)
REMARK    1  A    between atoms: C_3  and  C_4 
REMARK    2  A    between atoms: N_5  and  C_6 
REMARK    3  A    between atoms: C_9  and  N_10 
REMARK       I    between atoms: N_10  and  C_11 
REMARK       I    between atoms: C_11  and  N_12 
REMARK    4  A    between atoms: N_12  and  C_13 
REMARK    5  A    between atoms: C_15  and  C_16 
REMARK    6  A    between atoms: C_32  and  C_33 
REMARK    7  A    between atoms: C_33  and  N_34 
ROOT
HETATM    1  C   UNL     1     -43.291  60.747 -55.980  1.00  0.00     0.169 C 
HETATM    2  C   UNL     1     -44.135  59.495 -55.802  1.00  0.00     0.179 C 
HETATM    3  C   UNL     1     -43.220  58.499 -55.101  1.00  0.00     0.177 C 
HETATM    4  C   UNL     1     -43.196  57.269 -55.999  1.00  0.00     0.141 C 
HETATM    5  C   UNL     1     -44.350  57.514 -56.969  1.00  0.00     0.196 C 
HETATM    6  O   UNL     1     -44.500  58.941 -57.078  1.00  0.00    -0.379 OA
HETATM    7  O   UNL     1     -41.916  59.102 -55.020  1.00  0.00    -0.379 OA
HETATM    8  C   UNL     1     -42.146  60.520 -54.999  1.00  0.00     0.198 C 
ENDROOT
BRANCH   1   9
HETATM    9  N   UNL     1     -44.037  61.964 -55.799  1.00  0.00    -0.221 N 
HETATM   10  C   UNL     1     -44.787  62.409 -54.729  1.00  0.00     0.182 A 
HETATM   11  N   UNL     1     -45.129  63.659 -54.994  1.00  0.00    -0.108 NA
HETATM   12  N   UNL     1     -44.619  63.966 -56.222  1.00  0.00    -0.023 NA
HETATM   13  N   UNL     1     -43.941  62.946 -56.715  1.00  0.00    -0.043 NA
BRANCH  10  14
HETATM   14  C   UNL     1     -45.105  61.733 -53.469  1.00  0.00     0.014 A 
HETATM   15  C   UNL     1     -46.376  61.258 -53.140  1.00  0.00     0.015 A 
HETATM   16  C   UNL     1     -46.612  60.648 -51.904  1.00  0.00     0.002 A 
HETATM   17  C   UNL     1     -45.588  60.533 -50.965  1.00  0.00     0.009 A 
HETATM   18  C   UNL     1     -44.316  61.044 -51.245  1.00  0.00    -0.032 A 
HETATM   19  C   UNL     1     -44.088  61.629 -52.502  1.00  0.00     0.024 A 
BRANCH  18  20
HETATM   20  C   UNL     1     -43.214  60.971 -50.225  1.00  0.00     0.273 C 
BRANCH  20  21
HETATM   21  N   UNL     1     -42.486  59.655 -50.230  1.00  0.00    -0.067 N 
HETATM   22  H   UNL     1     -42.743  59.177 -49.358  1.00  0.00     0.280 HD
HETATM   23  C   UNL     1     -40.976  59.796 -50.249  1.00  0.00     0.235 C 
HETATM   24  C   UNL     1     -40.544  59.143 -51.546  1.00  0.00     0.029 C 
HETATM   25  C   UNL     1     -41.569  58.045 -51.740  1.00  0.00     0.029 C 
HETATM   26  C   UNL     1     -42.869  58.732 -51.373  1.00  0.00     0.235 C 
ENDBRANCH  20  21
ENDBRANCH  18  20
ENDBRANCH  10  14
ENDBRANCH   1   9
BRANCH   4  27
HETATM   27  N   UNL     1     -43.230  56.001 -55.275  1.00  0.00    -0.334 N 
HETATM   28  C   UNL     1     -42.083  55.439 -54.749  1.00  0.00     0.321 C 
HETATM   29  N   UNL     1     -42.335  54.198 -54.210  1.00  0.00    -0.309 N 
HETATM   30  O   UNL     1     -41.009  56.024 -54.781  1.00  0.00    -0.247 OA
HETATM   31  H   UNL     1     -43.282  53.860 -54.284  1.00  0.00     0.170 HD
HETATM   32  H   UNL     1     -43.944  55.351 -55.575  1.00  0.00     0.164 HD
BRANCH  29  33
HETATM   33  C   UNL     1     -41.422  53.343 -53.559  1.00  0.00     0.037 A 
HETATM   34  C   UNL     1     -40.988  52.122 -54.082  1.00  0.00     0.045 A 
HETATM   35  C   UNL     1     -40.057  51.325 -53.389  1.00  0.00     0.050 A 
HETATM   36  C   UNL     1     -39.581  51.760 -52.144  1.00  0.00     0.016 A 
HETATM   37  C   UNL     1     -40.012  52.974 -51.613  1.00  0.00     0.003 A 
HETATM   38  C   UNL     1     -40.922  53.762 -52.320  1.00  0.00     0.029 A 
BRANCH  35  39
HETATM   39  C   UNL     1     -39.589  50.010 -53.960  1.00  0.00     0.417 C 
HETATM   40  F   UNL     1     -38.429  50.104 -54.669  1.00  0.00    -0.166 F 
HETATM   41  F   UNL     1     -39.355  49.075 -52.996  1.00  0.00    -0.166 F 
HETATM   42  F   UNL     1     -40.501  49.456 -54.806  1.00  0.00    -0.166 F 
ENDBRANCH  35  39
ENDBRANCH  29  33
ENDBRANCH   4  27
TORSDOF 7
ENDMDL
MODEL 7
REMARK VINA RESULT:      -9.3      6.619     11.723
REMARK  7 active torsions:
REMARK  status: ('A' for Active; 'I' for Inactive)
REMARK    1  A    between atoms: C_3  and  C_4 
REMARK    2  A    between atoms: N_5  and  C_6 
REMARK    3  A    between atoms: C_9  and  N_10 
REMARK       I    between atoms: N_10  and  C_11 
REMARK       I    between atoms: C_11  and  N_12 
REMARK    4  A    between atoms: N_12  and  C_13 
REMARK    5  A    between atoms: C_15  and  C_16 
REMARK    6  A    between atoms: C_32  and  C_33 
REMARK    7  A    between atoms: C_33  and  N_34 
ROOT
HETATM    1  C   UNL     1     -42.063  56.053 -51.195  1.00  0.00     0.169 C 
HETATM    2  C   UNL     1     -42.076  57.524 -50.811  1.00  0.00     0.179 C 
HETATM    3  C   UNL     1     -43.436  58.037 -51.264  1.00  0.00     0.177 C 
HETATM    4  C   UNL     1     -43.141  59.206 -52.193  1.00  0.00     0.141 C 
HETATM    5  C   UNL     1     -41.660  59.492 -51.946  1.00  0.00     0.196 C 
HETATM    6  O   UNL     1     -41.065  58.248 -51.534  1.00  0.00    -0.379 OA
HETATM    7  O   UNL     1     -44.081  56.965 -51.976  1.00  0.00    -0.379 OA
HETATM    8  C   UNL     1     -43.540  55.754 -51.424  1.00  0.00     0.198 C 
ENDROOT
BRANCH   1   9
HETATM    9  N   UNL     1     -41.399  55.220 -50.226  1.00  0.00    -0.221 N 
HETATM   10  C   UNL     1     -40.661  54.065 -50.388  1.00  0.00     0.182 A 
HETATM   11  N   UNL     1     -40.128  53.783 -49.210  1.00  0.00    -0.108 NA
HETATM   12  N   UNL     1     -40.558  54.737 -48.333  1.00  0.00    -0.023 NA
HETATM   13  N   UNL     1     -41.322  55.623 -48.944  1.00  0.00    -0.043 NA
BRANCH  10  14
HETATM   14  C   UNL     1     -40.386  53.298 -51.604  1.00  0.00     0.014 A 
HETATM   15  C   UNL     1     -39.733  52.063 -51.614  1.00  0.00     0.015 A 
HETATM   16  C   UNL     1     -39.480  51.400 -52.819  1.00  0.00     0.002 A 
HETATM   17  C   UNL     1     -39.846  51.976 -54.034  1.00  0.00     0.009 A 
HETATM   18  C   UNL     1     -40.457  53.234 -54.061  1.00  0.00    -0.032 A 
HETATM   19  C   UNL     1     -40.730  53.875 -52.840  1.00  0.00     0.024 A 
BRANCH  18  20
HETATM   20  C   UNL     1     -40.815  53.891 -55.365  1.00  0.00     0.273 C 
BRANCH  20  21
HETATM   21  N   UNL     1     -41.962  54.856 -55.248  1.00  0.00    -0.067 N 
HETATM   22  H   UNL     1     -42.520  54.548 -54.442  1.00  0.00     0.280 HD
HETATM   23  C   UNL     1     -42.874  54.865 -56.460  1.00  0.00     0.235 C 
HETATM   24  C   UNL     1     -42.774  56.274 -57.007  1.00  0.00     0.029 C 
HETATM   25  C   UNL     1     -42.553  57.114 -55.766  1.00  0.00     0.029 C 
HETATM   26  C   UNL     1     -41.550  56.292 -54.982  1.00  0.00     0.235 C 
ENDBRANCH  20  21
ENDBRANCH  18  20
ENDBRANCH  10  14
ENDBRANCH   1   9
BRANCH   4  27
HETATM   27  N   UNL     1     -44.045  60.342 -52.031  1.00  0.00    -0.334 N 
HETATM   28  C   UNL     1     -45.120  60.535 -52.876  1.00  0.00     0.321 C 
HETATM   29  N   UNL     1     -45.764  61.721 -52.606  1.00  0.00    -0.309 N 
HETATM   30  O   UNL     1     -45.419  59.714 -53.733  1.00  0.00    -0.247 OA
HETATM   31  H   UNL     1     -45.371  62.286 -51.869  1.00  0.00     0.170 HD
HETATM   32  H   UNL     1     -43.623  61.179 -51.653  1.00  0.00     0.164 HD
BRANCH  29  33
HETATM   33  C   UNL     1     -46.915  62.237 -53.235  1.00  0.00     0.037 A 
HETATM   34  C   UNL     1     -48.209  62.104 -52.726  1.00  0.00     0.045 A 
HETATM   35  C   UNL     1     -49.314  62.664 -53.394  1.00  0.00     0.050 A 
HETATM   36  C   UNL     1     -49.106  63.344 -54.602  1.00  0.00     0.016 A 
HETATM   37  C   UNL     1     -47.819  63.479 -55.120  1.00  0.00     0.003 A 
HETATM   38  C   UNL     1     -46.731  62.933 -54.436  1.00  0.00     0.029 A 
BRANCH  35  39
HETATM   39  C   UNL     1     -50.708  62.519 -52.838  1.00  0.00     0.417 C 
HETATM   40  F   UNL     1     -51.649  63.217 -53.534  1.00  0.00    -0.166 F 
HETATM   41  F   UNL     1     -51.138  61.225 -52.836  1.00  0.00    -0.166 F 
HETATM   42  F   UNL     1     -50.802  62.947 -51.549  1.00  0.00    -0.166 F 
ENDBRANCH  35  39
ENDBRANCH  29  33
ENDBRANCH   4  27
TORSDOF 7
ENDMDL
MODEL 8
REMARK VINA RESULT:      -9.2      6.188      8.503
REMARK  7 active torsions:
REMARK  status: ('A' for Active; 'I' for Inactive)
REMARK    1  A    between atoms: C_3  and  C_4 
REMARK    2  A    between atoms: N_5  and  C_6 
REMARK    3  A    between atoms: C_9  and  N_10 
REMARK       I    between atoms: N_10  and  C_11 
REMARK       I    between atoms: C_11  and  N_12 
REMARK    4  A    between atoms: N_12  and  C_13 
REMARK    5  A    between atoms: C_15  and  C_16 
REMARK    6  A    between atoms: C_32  and  C_33 
REMARK    7  A    between atoms: C_33  and  N_34 
ROOT
HETATM    1  C   UNL     1     -44.675  58.345 -59.608  1.00  0.00     0.169 C 
HETATM    2  C   UNL     1     -43.693  58.508 -58.459  1.00  0.00     0.179 C 
HETATM    3  C   UNL     1     -42.944  57.184 -58.390  1.00  0.00     0.177 C 
HETATM    4  C   UNL     1     -43.141  56.680 -56.967  1.00  0.00     0.141 C 
HETATM    5  C   UNL     1     -43.699  57.897 -56.231  1.00  0.00     0.196 C 
HETATM    6  O   UNL     1     -44.391  58.688 -57.214  1.00  0.00    -0.379 OA
HETATM    7  O   UNL     1     -43.559  56.296 -59.340  1.00  0.00    -0.379 OA
HETATM    8  C   UNL     1     -44.114  57.143 -60.359  1.00  0.00     0.198 C 
ENDROOT
BRANCH   1   9
HETATM    9  N   UNL     1     -44.843  59.545 -60.384  1.00  0.00    -0.221 N 
HETATM   10  C   UNL     1     -45.716  60.603 -60.227  1.00  0.00     0.182 A 
HETATM   11  N   UNL     1     -45.355  61.529 -61.101  1.00  0.00    -0.108 NA
HETATM   12  N   UNL     1     -44.295  61.034 -61.801  1.00  0.00    -0.023 NA
HETATM   13  N   UNL     1     -43.967  59.832 -61.365  1.00  0.00    -0.043 NA
BRANCH  10  14
HETATM   14  C   UNL     1     -46.790  60.788 -59.249  1.00  0.00     0.014 A 
HETATM   15  C   UNL     1     -48.122  60.439 -59.481  1.00  0.00     0.015 A 
HETATM   16  C   UNL     1     -49.100  60.673 -58.509  1.00  0.00     0.002 A 
HETATM   17  C   UNL     1     -48.767  61.288 -57.303  1.00  0.00     0.009 A 
HETATM   18  C   UNL     1     -47.450  61.694 -57.061  1.00  0.00    -0.032 A 
HETATM   19  C   UNL     1     -46.474  61.428 -58.036  1.00  0.00     0.024 A 
BRANCH  18  20
HETATM   20  C   UNL     1     -47.084  62.403 -55.787  1.00  0.00     0.273 C 
BRANCH  20  21
HETATM   21  N   UNL     1     -46.964  61.478 -54.607  1.00  0.00    -0.067 N 
HETATM   22  H   UNL     1     -47.610  60.698 -54.783  1.00  0.00     0.280 HD
HETATM   23  C   UNL     1     -47.365  62.116 -53.291  1.00  0.00     0.235 C 
HETATM   24  C   UNL     1     -46.108  62.079 -52.446  1.00  0.00     0.029 C 
HETATM   25  C   UNL     1     -45.414  60.816 -52.913  1.00  0.00     0.029 C 
HETATM   26  C   UNL     1     -45.583  60.878 -54.418  1.00  0.00     0.235 C 
ENDBRANCH  20  21
ENDBRANCH  18  20
ENDBRANCH  10  14
ENDBRANCH   1   9
BRANCH   4  27
HETATM   27  N   UNL     1     -41.951  56.070 -56.379  1.00  0.00    -0.334 N 
HETATM   28  C   UNL     1     -42.045  55.046 -55.458  1.00  0.00     0.321 C 
HETATM   29  N   UNL     1     -40.808  54.704 -54.960  1.00  0.00    -0.309 N 
HETATM   30  O   UNL     1     -43.121  54.539 -55.168  1.00  0.00    -0.247 OA
HETATM   31  H   UNL     1     -40.024  55.238 -55.301  1.00  0.00     0.170 HD
HETATM   32  H   UNL     1     -41.155  56.686 -56.277  1.00  0.00     0.164 HD
BRANCH  29  33
HETATM   33  C   UNL     1     -40.506  53.687 -54.030  1.00  0.00     0.037 A 
HETATM   34  C   UNL     1     -40.285  52.352 -54.378  1.00  0.00     0.045 A 
HETATM   35  C   UNL     1     -39.965  51.391 -53.402  1.00  0.00     0.050 A 
HETATM   36  C   UNL     1     -39.893  51.783 -52.058  1.00  0.00     0.016 A 
HETATM   37  C   UNL     1     -40.117  53.111 -51.700  1.00  0.00     0.003 A 
HETATM   38  C   UNL     1     -40.415  54.057 -52.683  1.00  0.00     0.029 A 
BRANCH  35  39
HETATM   39  C   UNL     1     -39.724  49.952 -53.784  1.00  0.00     0.417 C 
HETATM   40  F   UNL     1     -38.539  49.749 -54.426  1.00  0.00    -0.166 F 
HETATM   41  F   UNL     1     -39.704  49.120 -52.704  1.00  0.00    -0.166 F 
HETATM   42  F   UNL     1     -40.687  49.465 -54.614  1.00  0.00    -0.166 F 
ENDBRANCH  35  39
ENDBRANCH  29  33
ENDBRANCH   4  27
TORSDOF 7
ENDMDL
MODEL 9
REMARK VINA RESULT:      -9.2      5.559      7.385
REMARK  7 active torsions:
REMARK  status: ('A' for Active; 'I' for Inactive)
REMARK    1  A    between atoms: C_3  and  C_4 
REMARK    2  A    between atoms: N_5  and  C_6 
REMARK    3  A    between atoms: C_9  and  N_10 
REMARK       I    between atoms: N_10  and  C_11 
REMARK       I    between atoms: C_11  and  N_12 
REMARK    4  A    between atoms: N_12  and  C_13 
REMARK    5  A    between atoms: C_15  and  C_16 
REMARK    6  A    between atoms: C_32  and  C_33 
REMARK    7  A    between atoms: C_33  and  N_34 
ROOT
HETATM    1  C   UNL     1     -43.463  59.222 -58.268  1.00  0.00     0.169 C 
HETATM    2  C   UNL     1     -44.179  57.931 -57.902  1.00  0.00     0.179 C 
HETATM    3  C   UNL     1     -43.305  57.283 -56.839  1.00  0.00     0.177 C 
HETATM    4  C   UNL     1     -42.977  55.895 -57.373  1.00  0.00     0.141 C 
HETATM    5  C   UNL     1     -43.951  55.723 -58.537  1.00  0.00     0.196 C 
HETATM    6  O   UNL     1     -44.237  57.043 -59.033  1.00  0.00    -0.379 OA
HETATM    7  O   UNL     1     -42.114  58.082 -56.719  1.00  0.00    -0.379 OA
HETATM    8  C   UNL     1     -42.501  59.412 -57.100  1.00  0.00     0.198 C 
ENDROOT
BRANCH   1   9
HETATM    9  N   UNL     1     -44.361  60.317 -58.523  1.00  0.00    -0.221 N 
HETATM   10  C   UNL     1     -44.828  61.311 -57.687  1.00  0.00     0.182 A 
HETATM   11  N   UNL     1     -45.494  62.167 -58.444  1.00  0.00    -0.108 NA
HETATM   12  N   UNL     1     -45.459  61.689 -59.722  1.00  0.00    -0.023 NA
HETATM   13  N   UNL     1     -44.761  60.570 -59.783  1.00  0.00    -0.043 NA
BRANCH  10  14
HETATM   14  C   UNL     1     -44.596  61.509 -56.255  1.00  0.00     0.014 A 
HETATM   15  C   UNL     1     -43.816  62.542 -55.728  1.00  0.00     0.015 A 
HETATM   16  C   UNL     1     -43.615  62.650 -54.349  1.00  0.00     0.002 A 
HETATM   17  C   UNL     1     -44.162  61.711 -53.476  1.00  0.00     0.009 A 
HETATM   18  C   UNL     1     -44.906  60.636 -53.977  1.00  0.00    -0.032 A 
HETATM   19  C   UNL     1     -45.123  60.556 -55.363  1.00  0.00     0.024 A 
BRANCH  18  20
HETATM   20  C   UNL     1     -45.463  59.587 -53.055  1.00  0.00     0.273 C 
BRANCH  20  21
HETATM   21  N   UNL     1     -44.401  58.849 -52.287  1.00  0.00    -0.067 N 
HETATM   22  H   UNL     1     -43.864  59.561 -51.776  1.00  0.00     0.280 HD
HETATM   23  C   UNL     1     -43.430  58.089 -53.170  1.00  0.00     0.235 C 
HETATM   24  C   UNL     1     -43.611  56.636 -52.779  1.00  0.00     0.029 C 
HETATM   25  C   UNL     1     -43.961  56.714 -51.308  1.00  0.00     0.029 C 
HETATM   26  C   UNL     1     -44.937  57.872 -51.257  1.00  0.00     0.235 C 
ENDBRANCH  20  21
ENDBRANCH  18  20
ENDBRANCH  10  14
ENDBRANCH   1   9
BRANCH   4  27
HETATM   27  N   UNL     1     -43.001  54.843 -56.360  1.00  0.00    -0.334 N 
HETATM   28  C   UNL     1     -41.945  54.652 -55.492  1.00  0.00     0.321 C 
HETATM   29  N   UNL     1     -42.138  53.542 -54.703  1.00  0.00    -0.309 N 
HETATM   30  O   UNL     1     -40.987  55.414 -55.468  1.00  0.00    -0.247 OA
HETATM   31  H   UNL     1     -42.983  53.017 -54.867  1.00  0.00     0.170 HD
HETATM   32  H   UNL     1     -43.524  54.015 -56.610  1.00  0.00     0.164 HD
BRANCH  29  33
HETATM   33  C   UNL     1     -41.295  53.053 -53.683  1.00  0.00     0.037 A 
HETATM   34  C   UNL     1     -41.261  53.568 -52.385  1.00  0.00     0.045 A 
HETATM   35  C   UNL     1     -40.410  53.018 -51.408  1.00  0.00     0.050 A 
HETATM   36  C   UNL     1     -39.569  51.953 -51.759  1.00  0.00     0.016 A 
HETATM   37  C   UNL     1     -39.592  51.436 -53.052  1.00  0.00     0.003 A 
HETATM   38  C   UNL     1     -40.455  51.980 -54.006  1.00  0.00     0.029 A 
BRANCH  35  39
HETATM   39  C   UNL     1     -40.381  53.575 -50.007  1.00  0.00     0.417 C 
HETATM   40  F   UNL     1     -40.484  52.623 -49.038  1.00  0.00    -0.166 F 
HETATM   41  F   UNL     1     -39.227  54.249 -49.737  1.00  0.00    -0.166 F 
HETATM   42  F   UNL     1     -41.392  54.456 -49.775  1.00  0.00    -0.166 F 
ENDBRANCH  35  39
ENDBRANCH  29  33
ENDBRANCH   4  27
TORSDOF 7
ENDMDL
MODEL 10
REMARK VINA RESULT:      -9.2      6.477      9.196
REMARK  7 active torsions:
REMARK  status: ('A' for Active; 'I' for Inactive)
REMARK    1  A    between atoms: C_3  and  C_4 
REMARK    2  A    between atoms: N_5  and  C_6 
REMARK    3  A    between atoms: C_9  and  N_10 
REMARK       I    between atoms: N_10  and  C_11 
REMARK       I    between atoms: C_11  and  N_12 
REMARK    4  A    between atoms: N_12  and  C_13 
REMARK    5  A    between atoms: C_15  and  C_16 
REMARK    6  A    between atoms: C_32  and  C_33 
REMARK    7  A    between atoms: C_33  and  N_34 
ROOT
HETATM    1  C   UNL     1     -42.701  58.796 -60.224  1.00  0.00     0.169 C 
HETATM    2  C   UNL     1     -43.661  57.713 -59.756  1.00  0.00     0.179 C 
HETATM    3  C   UNL     1     -43.206  57.366 -58.345  1.00  0.00     0.177 C 
HETATM    4  C   UNL     1     -42.940  55.867 -58.361  1.00  0.00     0.141 C 
HETATM    5  C   UNL     1     -43.576  55.407 -59.672  1.00  0.00     0.196 C 
HETATM    6  O   UNL     1     -43.532  56.533 -60.567  1.00  0.00    -0.379 OA
HETATM    7  O   UNL     1     -41.994  58.100 -58.095  1.00  0.00    -0.379 OA
HETATM    8  C   UNL     1     -42.076  59.275 -58.918  1.00  0.00     0.198 C 
ENDROOT
BRANCH   1   9
HETATM    9  N   UNL     1     -43.337  59.811 -61.022  1.00  0.00    -0.221 N 
HETATM   10  C   UNL     1     -44.539  60.467 -60.851  1.00  0.00     0.182 A 
HETATM   11  N   UNL     1     -44.585  61.424 -61.763  1.00  0.00    -0.108 NA
HETATM   12  N   UNL     1     -43.440  61.337 -62.500  1.00  0.00    -0.023 NA
HETATM   13  N   UNL     1     -42.667  60.367 -62.049  1.00  0.00    -0.043 NA
BRANCH  10  14
HETATM   14  C   UNL     1     -45.569  60.274 -59.829  1.00  0.00     0.014 A 
HETATM   15  C   UNL     1     -46.866  59.832 -60.104  1.00  0.00     0.015 A 
HETATM   16  C   UNL     1     -47.806  59.698 -59.079  1.00  0.00     0.002 A 
HETATM   17  C   UNL     1     -47.477  60.034 -57.766  1.00  0.00     0.009 A 
HETATM   18  C   UNL     1     -46.201  60.527 -57.466  1.00  0.00    -0.032 A 
HETATM   19  C   UNL     1     -45.259  60.630 -58.503  1.00  0.00     0.024 A 
BRANCH  18  20
HETATM   20  C   UNL     1     -45.844  60.940 -56.065  1.00  0.00     0.273 C 
BRANCH  20  21
HETATM   21  N   UNL     1     -45.903  59.805 -55.080  1.00  0.00    -0.067 N 
HETATM   22  H   UNL     1     -46.886  59.506 -55.039  1.00  0.00     0.280 HD
HETATM   23  C   UNL     1     -45.485  60.198 -53.676  1.00  0.00     0.235 C 
HETATM   24  C   UNL     1     -44.266  59.347 -53.384  1.00  0.00     0.029 C 
HETATM   25  C   UNL     1     -44.540  58.073 -54.156  1.00  0.00     0.029 C 
HETATM   26  C   UNL     1     -45.084  58.590 -55.472  1.00  0.00     0.235 C 
ENDBRANCH  20  21
ENDBRANCH  18  20
ENDBRANCH  10  14
ENDBRANCH   1   9
BRANCH   4  27
HETATM   27  N   UNL     1     -43.383  55.168 -57.158  1.00  0.00    -0.334 N 
HETATM   28  C   UNL     1     -42.660  55.222 -55.984  1.00  0.00     0.321 C 
HETATM   29  N   UNL     1     -43.204  54.404 -55.020  1.00  0.00    -0.309 N 
HETATM   30  O   UNL     1     -41.671  55.934 -55.871  1.00  0.00    -0.247 OA
HETATM   31  H   UNL     1     -44.018  53.873 -55.291  1.00  0.00     0.170 HD
HETATM   32  H   UNL     1     -43.902  54.315 -57.320  1.00  0.00     0.164 HD
BRANCH  29  33
HETATM   33  C   UNL     1     -42.761  54.224 -53.694  1.00  0.00     0.037 A 
HETATM   34  C   UNL     1     -41.627  53.487 -53.343  1.00  0.00     0.045 A 
HETATM   35  C   UNL     1     -41.227  53.366 -51.999  1.00  0.00     0.050 A 
HETATM   36  C   UNL     1     -41.998  53.978 -51.001  1.00  0.00     0.016 A 
HETATM   37  C   UNL     1     -43.133  54.711 -51.341  1.00  0.00     0.003 A 
HETATM   38  C   UNL     1     -43.507  54.838 -52.680  1.00  0.00     0.029 A 
BRANCH  35  39
HETATM   39  C   UNL     1     -40.000  52.571 -51.627  1.00  0.00     0.417 C 
HETATM   40  F   UNL     1     -39.027  53.317 -51.032  1.00  0.00    -0.166 F 
HETATM   41  F   UNL     1     -40.276  51.563 -50.752  1.00  0.00    -0.166 F 
HETATM   42  F   UNL     1     -39.414  51.983 -52.705  1.00  0.00    -0.166 F 
ENDBRANCH  35  39
ENDBRANCH  29  33
ENDBRANCH   4  27
TORSDOF 7
ENDMDL
