MODEL 1
REMARK VINA RESULT:      -9.3      0.000      0.000
REMARK  5 active torsions:
REMARK  status: ('A' for Active; 'I' for Inactive)
REMARK       I    between atoms: N_6  and  C_7 
REMARK    1  A    between atoms: C_7  and  C_8 
REMARK    2  A    between atoms: N_11  and  C_12 
REMARK    3  A    between atoms: C_19  and  C_20 
REMARK    4  A    between atoms: C_20  and  N_21 
REMARK    5  A    between atoms: N_21  and  C_22 
ROOT
HETATM    1  C   UNL     1     -41.988  55.723 -53.468  1.00  0.00     0.719 A 
HETATM    2  N   UNL     1     -41.719  56.748 -52.569  1.00  0.00    -0.154 N 
HETATM    3  C   UNL     1     -41.254  56.118 -51.411  1.00  0.00     0.083 A 
HETATM    4  C   UNL     1     -40.861  56.932 -50.310  1.00  0.00     0.033 A 
HETATM    5  C   UNL     1     -40.995  58.269 -50.393  1.00  0.00     0.004 A 
HETATM    6  C   UNL     1     -41.544  58.899 -51.577  1.00  0.00     0.018 A 
HETATM    7  C   UNL     1     -41.891  58.136 -52.626  1.00  0.00     0.115 A 
HETATM    8  C   UNL     1     -41.354  54.763 -51.636  1.00  0.00     0.099 A 
HETATM    9  N   UNL     1     -41.809  54.520 -52.925  1.00  0.00    -0.064 NA
ENDROOT
BRANCH   1  10
HETATM   10  N   UNL     1     -42.422  55.862 -54.793  1.00  0.00    -0.147 N 
HETATM   11  C   UNL     1     -42.441  54.838 -55.717  1.00  0.00     0.233 A 
HETATM   12  N   UNL     1     -42.909  55.204 -56.887  1.00  0.00    -0.236 NA
HETATM   13  C   UNL     1     -43.213  56.542 -56.756  1.00  0.00     0.142 A 
HETATM   14  C   UNL     1     -42.872  56.962 -55.480  1.00  0.00     0.153 A 
BRANCH  13  15
HETATM   15  C   UNL     1     -43.759  57.419 -57.806  1.00  0.00     0.273 C 
HETATM   16  N   UNL     1     -43.874  56.949 -59.127  1.00  0.00    -0.345 N 
HETATM   17  C   UNL     1     -44.181  57.944 -60.156  1.00  0.00     0.154 C 
HETATM   18  C   UNL     1     -43.797  55.541 -59.502  1.00  0.00     0.128 C 
HETATM   19  C   UNL     1     -45.693  58.128 -60.343  1.00  0.00     0.254 C 
HETATM   20  N   UNL     1     -46.325  56.981 -61.128  1.00  0.00    -0.073 N 
HETATM   21  C   UNL     1     -47.800  57.248 -61.333  1.00  0.00     0.269 C 
HETATM   22  H   UNL     1     -45.909  56.989 -62.069  1.00  0.00     0.279 HD
HETATM   23  C   UNL     1     -46.109  55.597 -60.547  1.00  0.00     0.236 C 
HETATM   24  C   UNL     1     -44.659  55.151 -60.702  1.00  0.00     0.048 C 
HETATM   25  O   UNL     1     -44.142  58.557 -57.529  1.00  0.00    -0.266 OA
ENDBRANCH  13  15
ENDBRANCH   1  10
BRANCH   8  26
HETATM   26  C   UNL     1     -41.064  53.623 -50.703  1.00  0.00     0.183 C 
BRANCH  26  27
HETATM   27  N   UNL     1     -39.850  52.849 -50.947  1.00  0.00    -0.371 N 
HETATM   28  H   UNL     1     -38.993  53.394 -50.859  1.00  0.00     0.161 HD
BRANCH  27  29
HETATM   29  C   UNL     1     -39.765  51.836 -51.882  1.00  0.00     0.101 A 
HETATM   30  N   UNL     1     -39.926  52.060 -53.196  1.00  0.00    -0.353 N 
HETATM   31  H   UNL     1     -40.006  53.034 -53.503  1.00  0.00     0.166 HD
HETATM   32  C   UNL     1     -39.911  51.090 -54.121  1.00  0.00     0.089 A 
HETATM   33  C   UNL     1     -39.725  49.770 -53.744  1.00  0.00     0.017 A 
HETATM   34  C   UNL     1     -39.544  49.479 -52.399  1.00  0.00     0.005 A 
HETATM   35  C   UNL     1     -39.564  50.514 -51.466  1.00  0.00     0.048 A 
ENDBRANCH  27  29
ENDBRANCH  26  27
ENDBRANCH   8  26
TORSDOF 5
ENDMDL
MODEL 2
REMARK VINA RESULT:      -9.2      1.202      4.597
REMARK  5 active torsions:
REMARK  status: ('A' for Active; 'I' for Inactive)
REMARK       I    between atoms: N_6  and  C_7 
REMARK    1  A    between atoms: C_7  and  C_8 
REMARK    2  A    between atoms: N_11  and  C_12 
REMARK    3  A    between atoms: C_19  and  C_20 
REMARK    4  A    between atoms: C_20  and  N_21 
REMARK    5  A    between atoms: N_21  and  C_22 
ROOT
HETATM    1  C   UNL     1     -41.464  54.330 -53.527  1.00  0.00     0.719 A 
HETATM    2  N   UNL     1     -40.812  53.128 -53.280  1.00  0.00    -0.154 N 
HETATM    3  C   UNL     1     -40.463  53.164 -51.926  1.00  0.00     0.083 A 
HETATM    4  C   UNL     1     -39.800  52.033 -51.369  1.00  0.00     0.033 A 
HETATM    5  C   UNL     1     -39.485  50.993 -52.162  1.00  0.00     0.004 A 
HETATM    6  C   UNL     1     -39.793  51.003 -53.578  1.00  0.00     0.018 A 
HETATM    7  C   UNL     1     -40.441  52.057 -54.101  1.00  0.00     0.115 A 
HETATM    8  C   UNL     1     -40.833  54.405 -51.460  1.00  0.00     0.099 A 
HETATM    9  N   UNL     1     -41.464  55.130 -52.463  1.00  0.00    -0.064 NA
ENDROOT
BRANCH   1  10
HETATM   10  N   UNL     1     -42.053  54.730 -54.735  1.00  0.00    -0.147 N 
HETATM   11  C   UNL     1     -42.967  53.976 -55.442  1.00  0.00     0.233 A 
HETATM   12  N   UNL     1     -43.394  54.569 -56.532  1.00  0.00    -0.236 NA
HETATM   13  C   UNL     1     -42.732  55.777 -56.575  1.00  0.00     0.142 A 
HETATM   14  C   UNL     1     -41.871  55.861 -55.492  1.00  0.00     0.153 A 
BRANCH  13  15
HETATM   15  C   UNL     1     -42.860  56.804 -57.622  1.00  0.00     0.273 C 
HETATM   16  N   UNL     1     -43.313  56.450 -58.905  1.00  0.00    -0.345 N 
HETATM   17  C   UNL     1     -43.174  57.460 -59.956  1.00  0.00     0.154 C 
HETATM   18  C   UNL     1     -43.984  55.192 -59.215  1.00  0.00     0.128 C 
HETATM   19  C   UNL     1     -44.402  58.377 -60.036  1.00  0.00     0.254 C 
HETATM   20  N   UNL     1     -45.591  57.698 -60.712  1.00  0.00    -0.073 N 
HETATM   21  C   UNL     1     -46.746  58.670 -60.817  1.00  0.00     0.269 C 
HETATM   22  H   UNL     1     -45.313  57.493 -61.682  1.00  0.00     0.279 HD
HETATM   23  C   UNL     1     -46.044  56.396 -60.082  1.00  0.00     0.236 C 
HETATM   24  C   UNL     1     -45.032  55.282 -60.325  1.00  0.00     0.048 C 
HETATM   25  O   UNL     1     -42.596  57.982 -57.373  1.00  0.00    -0.266 OA
ENDBRANCH  13  15
ENDBRANCH   1  10
BRANCH   8  26
HETATM   26  C   UNL     1     -40.627  55.009 -50.100  1.00  0.00     0.183 C 
BRANCH  26  27
HETATM   27  N   UNL     1     -41.511  56.103 -49.711  1.00  0.00    -0.371 N 
HETATM   28  H   UNL     1     -42.400  55.793 -49.323  1.00  0.00     0.161 HD
BRANCH  27  29
HETATM   29  C   UNL     1     -41.599  57.297 -50.402  1.00  0.00     0.101 A 
HETATM   30  N   UNL     1     -42.745  57.716 -50.963  1.00  0.00    -0.353 N 
HETATM   31  H   UNL     1     -43.591  57.174 -50.769  1.00  0.00     0.166 HD
HETATM   32  C   UNL     1     -42.847  58.837 -51.690  1.00  0.00     0.089 A 
HETATM   33  C   UNL     1     -41.734  59.635 -51.903  1.00  0.00     0.017 A 
HETATM   34  C   UNL     1     -40.524  59.255 -51.340  1.00  0.00     0.005 A 
HETATM   35  C   UNL     1     -40.456  58.084 -50.588  1.00  0.00     0.048 A 
ENDBRANCH  27  29
ENDBRANCH  26  27
ENDBRANCH   8  26
TORSDOF 5
ENDMDL
MODEL 3
REMARK VINA RESULT:      -8.9      1.588      2.213
REMARK  5 active torsions:
REMARK  status: ('A' for Active; 'I' for Inactive)
REMARK       I    between atoms: N_6  and  C_7 
REMARK    1  A    between atoms: C_7  and  C_8 
REMARK    2  A    between atoms: N_11  and  C_12 
REMARK    3  A    between atoms: C_19  and  C_20 
REMARK    4  A    between atoms: C_20  and  N_21 
REMARK    5  A    between atoms: N_21  and  C_22 
ROOT
HETATM    1  C   UNL     1     -41.932  55.765 -53.720  1.00  0.00     0.719 A 
HETATM    2  N   UNL     1     -41.771  56.785 -52.790  1.00  0.00    -0.154 N 
HETATM    3  C   UNL     1     -41.364  56.154 -51.611  1.00  0.00     0.083 A 
HETATM    4  C   UNL     1     -41.085  56.964 -50.473  1.00  0.00     0.033 A 
HETATM    5  C   UNL     1     -41.268  58.295 -50.546  1.00  0.00     0.004 A 
HETATM    6  C   UNL     1     -41.756  58.924 -51.757  1.00  0.00     0.018 A 
HETATM    7  C   UNL     1     -41.995  58.166 -52.840  1.00  0.00     0.115 A 
HETATM    8  C   UNL     1     -41.392  54.801 -51.861  1.00  0.00     0.099 A 
HETATM    9  N   UNL     1     -41.743  54.561 -53.184  1.00  0.00    -0.064 NA
ENDROOT
BRANCH   1  10
HETATM   10  N   UNL     1     -42.276  55.910 -55.071  1.00  0.00    -0.147 N 
HETATM   11  C   UNL     1     -42.707  54.877 -55.879  1.00  0.00     0.233 A 
HETATM   12  N   UNL     1     -42.991  55.261 -57.102  1.00  0.00    -0.236 NA
HETATM   13  C   UNL     1     -42.730  56.614 -57.131  1.00  0.00     0.142 A 
HETATM   14  C   UNL     1     -42.247  57.009 -55.894  1.00  0.00     0.153 A 
BRANCH  13  15
HETATM   15  C   UNL     1     -42.879  57.505 -58.294  1.00  0.00     0.273 C 
HETATM   16  N   UNL     1     -44.138  58.045 -58.611  1.00  0.00    -0.345 N 
HETATM   17  C   UNL     1     -44.262  58.708 -59.911  1.00  0.00     0.154 C 
HETATM   18  C   UNL     1     -45.274  58.061 -57.696  1.00  0.00     0.128 C 
HETATM   19  C   UNL     1     -43.908  60.199 -59.830  1.00  0.00     0.254 C 
HETATM   20  N   UNL     1     -45.022  61.027 -59.193  1.00  0.00    -0.073 N 
HETATM   21  C   UNL     1     -44.642  62.491 -59.198  1.00  0.00     0.269 C 
HETATM   22  H   UNL     1     -45.846  60.953 -59.806  1.00  0.00     0.279 HD
HETATM   23  C   UNL     1     -45.447  60.591 -57.805  1.00  0.00     0.236 C 
HETATM   24  C   UNL     1     -46.201  59.266 -57.847  1.00  0.00     0.048 C 
HETATM   25  O   UNL     1     -41.898  57.803 -58.978  1.00  0.00    -0.266 OA
ENDBRANCH  13  15
ENDBRANCH   1  10
BRANCH   8  26
HETATM   26  C   UNL     1     -41.123  53.656 -50.927  1.00  0.00     0.183 C 
BRANCH  26  27
HETATM   27  N   UNL     1     -39.899  52.890 -51.140  1.00  0.00    -0.371 N 
HETATM   28  H   UNL     1     -39.049  53.446 -51.062  1.00  0.00     0.161 HD
BRANCH  27  29
HETATM   29  C   UNL     1     -39.796  51.851 -52.046  1.00  0.00     0.101 A 
HETATM   30  N   UNL     1     -39.969  52.033 -53.365  1.00  0.00    -0.353 N 
HETATM   31  H   UNL     1     -40.072  52.996 -53.699  1.00  0.00     0.166 HD
HETATM   32  C   UNL     1     -39.937  51.037 -54.261  1.00  0.00     0.089 A 
HETATM   33  C   UNL     1     -39.720  49.733 -53.846  1.00  0.00     0.017 A 
HETATM   34  C   UNL     1     -39.527  49.486 -52.495  1.00  0.00     0.005 A 
HETATM   35  C   UNL     1     -39.565  50.547 -51.592  1.00  0.00     0.048 A 
ENDBRANCH  27  29
ENDBRANCH  26  27
ENDBRANCH   8  26
TORSDOF 5
ENDMDL
MODEL 4
REMARK VINA RESULT:      -8.9      1.600      2.032
REMARK  5 active torsions:
REMARK  status: ('A' for Active; 'I' for Inactive)
REMARK       I    between atoms: N_6  and  C_7 
REMARK    1  A    between atoms: C_7  and  C_8 
REMARK    2  A    between atoms: N_11  and  C_12 
REMARK    3  A    between atoms: C_19  and  C_20 
REMARK    4  A    between atoms: C_20  and  N_21 
REMARK    5  A    between atoms: N_21  and  C_22 
ROOT
HETATM    1  C   UNL     1     -42.877  57.198 -53.723  1.00  0.00     0.719 A 
HETATM    2  N   UNL     1     -42.293  57.893 -52.670  1.00  0.00    -0.154 N 
HETATM    3  C   UNL     1     -41.572  56.938 -51.947  1.00  0.00     0.083 A 
HETATM    4  C   UNL     1     -40.829  57.370 -50.811  1.00  0.00     0.033 A 
HETATM    5  C   UNL     1     -40.881  58.661 -50.437  1.00  0.00     0.004 A 
HETATM    6  C   UNL     1     -41.690  59.623 -51.158  1.00  0.00     0.018 A 
HETATM    7  C   UNL     1     -42.371  59.224 -52.245  1.00  0.00     0.115 A 
HETATM    8  C   UNL     1     -41.831  55.722 -52.539  1.00  0.00     0.099 A 
HETATM    9  N   UNL     1     -42.644  55.890 -53.652  1.00  0.00    -0.064 NA
ENDROOT
BRANCH   1  10
HETATM   10  N   UNL     1     -43.652  57.741 -54.757  1.00  0.00    -0.147 N 
HETATM   11  C   UNL     1     -45.026  57.869 -54.714  1.00  0.00     0.233 A 
HETATM   12  N   UNL     1     -45.527  58.426 -55.792  1.00  0.00    -0.236 NA
HETATM   13  C   UNL     1     -44.447  58.678 -56.610  1.00  0.00     0.142 A 
HETATM   14  C   UNL     1     -43.295  58.217 -55.994  1.00  0.00     0.153 A 
BRANCH  13  15
HETATM   15  C   UNL     1     -44.493  59.286 -57.950  1.00  0.00     0.273 C 
HETATM   16  N   UNL     1     -44.695  58.479 -59.084  1.00  0.00    -0.345 N 
HETATM   17  C   UNL     1     -44.476  59.107 -60.388  1.00  0.00     0.154 C 
HETATM   18  C   UNL     1     -45.191  57.108 -59.031  1.00  0.00     0.128 C 
HETATM   19  C   UNL     1     -45.751  59.769 -60.926  1.00  0.00     0.254 C 
HETATM   20  N   UNL     1     -46.747  58.751 -61.477  1.00  0.00    -0.073 N 
HETATM   21  C   UNL     1     -47.952  59.467 -62.048  1.00  0.00     0.269 C 
HETATM   22  H   UNL     1     -46.297  58.286 -62.277  1.00  0.00     0.279 HD
HETATM   23  C   UNL     1     -47.179  57.671 -60.505  1.00  0.00     0.236 C 
HETATM   24  C   UNL     1     -46.045  56.690 -60.228  1.00  0.00     0.048 C 
HETATM   25  O   UNL     1     -44.380  60.506 -58.084  1.00  0.00    -0.266 OA
ENDBRANCH  13  15
ENDBRANCH   1  10
BRANCH   8  26
HETATM   26  C   UNL     1     -41.377  54.350 -52.127  1.00  0.00     0.183 C 
BRANCH  26  27
HETATM   27  N   UNL     1     -40.352  53.710 -52.945  1.00  0.00    -0.371 N 
HETATM   28  H   UNL     1     -40.189  54.176 -53.837  1.00  0.00     0.161 HD
BRANCH  27  29
HETATM   29  C   UNL     1     -40.157  52.342 -52.994  1.00  0.00     0.101 A 
HETATM   30  N   UNL     1     -39.729  51.643 -51.931  1.00  0.00    -0.353 N 
HETATM   31  H   UNL     1     -39.654  52.139 -51.038  1.00  0.00     0.166 HD
HETATM   32  C   UNL     1     -39.472  50.328 -51.964  1.00  0.00     0.089 A 
HETATM   33  C   UNL     1     -39.641  49.613 -53.139  1.00  0.00     0.017 A 
HETATM   34  C   UNL     1     -40.090  50.283 -54.268  1.00  0.00     0.005 A 
HETATM   35  C   UNL     1     -40.349  51.651 -54.196  1.00  0.00     0.048 A 
ENDBRANCH  27  29
ENDBRANCH  26  27
ENDBRANCH   8  26
TORSDOF 5
ENDMDL
MODEL 5
REMARK VINA RESULT:      -8.9      2.160      5.189
REMARK  5 active torsions:
REMARK  status: ('A' for Active; 'I' for Inactive)
REMARK       I    between atoms: N_6  and  C_7 
REMARK    1  A    between atoms: C_7  and  C_8 
REMARK    2  A    between atoms: N_11  and  C_12 
REMARK    3  A    between atoms: C_19  and  C_20 
REMARK    4  A    between atoms: C_20  and  N_21 
REMARK    5  A    between atoms: N_21  and  C_22 
ROOT
HETATM    1  C   UNL     1     -41.909  54.707 -53.657  1.00  0.00     0.719 A 
HETATM    2  N   UNL     1     -41.084  53.619 -53.400  1.00  0.00    -0.154 N 
HETATM    3  C   UNL     1     -41.048  53.497 -52.008  1.00  0.00     0.083 A 
HETATM    4  C   UNL     1     -40.294  52.430 -51.442  1.00  0.00     0.033 A 
HETATM    5  C   UNL     1     -39.602  51.606 -52.250  1.00  0.00     0.004 A 
HETATM    6  C   UNL     1     -39.595  51.790 -53.687  1.00  0.00     0.018 A 
HETATM    7  C   UNL     1     -40.326  52.780 -54.226  1.00  0.00     0.115 A 
HETATM    8  C   UNL     1     -41.766  54.559 -51.504  1.00  0.00     0.099 A 
HETATM    9  N   UNL     1     -42.308  55.310 -52.539  1.00  0.00    -0.064 NA
ENDROOT
BRANCH   1  10
HETATM   10  N   UNL     1     -42.297  55.185 -54.916  1.00  0.00    -0.147 N 
HETATM   11  C   UNL     1     -42.928  54.421 -55.878  1.00  0.00     0.233 A 
HETATM   12  N   UNL     1     -43.212  55.094 -56.968  1.00  0.00    -0.236 NA
HETATM   13  C   UNL     1     -42.744  56.370 -56.743  1.00  0.00     0.142 A 
HETATM   14  C   UNL     1     -42.139  56.419 -55.498  1.00  0.00     0.153 A 
BRANCH  13  15
HETATM   15  C   UNL     1     -42.812  57.502 -57.684  1.00  0.00     0.273 C 
HETATM   16  N   UNL     1     -43.972  58.295 -57.749  1.00  0.00    -0.345 N 
HETATM   17  C   UNL     1     -44.068  59.231 -58.871  1.00  0.00     0.154 C 
HETATM   18  C   UNL     1     -45.016  58.299 -56.730  1.00  0.00     0.128 C 
HETATM   19  C   UNL     1     -43.443  60.592 -58.535  1.00  0.00     0.254 C 
HETATM   20  N   UNL     1     -44.338  61.435 -57.630  1.00  0.00    -0.073 N 
HETATM   21  C   UNL     1     -43.699  62.785 -57.387  1.00  0.00     0.269 C 
HETATM   22  H   UNL     1     -45.204  61.629 -58.152  1.00  0.00     0.279 HD
HETATM   23  C   UNL     1     -44.733  60.788 -56.318  1.00  0.00     0.236 C 
HETATM   24  C   UNL     1     -45.717  59.644 -56.538  1.00  0.00     0.048 C 
HETATM   25  O   UNL     1     -41.846  57.775 -58.398  1.00  0.00    -0.266 OA
ENDBRANCH  13  15
ENDBRANCH   1  10
BRANCH   8  26
HETATM   26  C   UNL     1     -41.990  54.961 -50.075  1.00  0.00     0.183 C 
BRANCH  26  27
HETATM   27  N   UNL     1     -41.433  56.239 -49.643  1.00  0.00    -0.371 N 
HETATM   28  H   UNL     1     -41.455  56.375 -48.633  1.00  0.00     0.161 HD
BRANCH  27  29
HETATM   29  C   UNL     1     -41.569  57.413 -50.360  1.00  0.00     0.101 A 
HETATM   30  N   UNL     1     -42.766  57.868 -50.765  1.00  0.00    -0.353 N 
HETATM   31  H   UNL     1     -43.597  57.374 -50.430  1.00  0.00     0.166 HD
HETATM   32  C   UNL     1     -42.924  58.968 -51.513  1.00  0.00     0.089 A 
HETATM   33  C   UNL     1     -41.821  59.704 -51.916  1.00  0.00     0.017 A 
HETATM   34  C   UNL     1     -40.559  59.284 -51.520  1.00  0.00     0.005 A 
HETATM   35  C   UNL     1     -40.432  58.136 -50.740  1.00  0.00     0.048 A 
ENDBRANCH  27  29
ENDBRANCH  26  27
ENDBRANCH   8  26
TORSDOF 5
ENDMDL
MODEL 6
REMARK VINA RESULT:      -8.8      1.600      2.150
REMARK  5 active torsions:
REMARK  status: ('A' for Active; 'I' for Inactive)
REMARK       I    between atoms: N_6  and  C_7 
REMARK    1  A    between atoms: C_7  and  C_8 
REMARK    2  A    between atoms: N_11  and  C_12 
REMARK    3  A    between atoms: C_19  and  C_20 
REMARK    4  A    between atoms: C_20  and  N_21 
REMARK    5  A    between atoms: N_21  and  C_22 
ROOT
HETATM    1  C   UNL     1     -42.190  57.742 -53.971  1.00  0.00     0.719 A 
HETATM    2  N   UNL     1     -41.781  58.215 -52.729  1.00  0.00    -0.154 N 
HETATM    3  C   UNL     1     -41.419  57.080 -51.998  1.00  0.00     0.083 A 
HETATM    4  C   UNL     1     -40.920  57.258 -50.676  1.00  0.00     0.033 A 
HETATM    5  C   UNL     1     -40.859  58.497 -50.153  1.00  0.00     0.004 A 
HETATM    6  C   UNL     1     -41.304  59.655 -50.901  1.00  0.00     0.018 A 
HETATM    7  C   UNL     1     -41.751  59.492 -52.157  1.00  0.00     0.115 A 
HETATM    8  C   UNL     1     -41.713  55.993 -52.792  1.00  0.00     0.099 A 
HETATM    9  N   UNL     1     -42.190  56.412 -54.027  1.00  0.00    -0.064 NA
ENDROOT
BRANCH   1  10
HETATM   10  N   UNL     1     -42.592  58.514 -55.070  1.00  0.00    -0.147 N 
HETATM   11  C   UNL     1     -41.952  59.662 -55.490  1.00  0.00     0.233 A 
HETATM   12  N   UNL     1     -42.499  60.200 -56.555  1.00  0.00    -0.236 NA
HETATM   13  C   UNL     1     -43.567  59.387 -56.867  1.00  0.00     0.142 A 
HETATM   14  C   UNL     1     -43.655  58.372 -55.928  1.00  0.00     0.153 A 
BRANCH  13  15
HETATM   15  C   UNL     1     -44.512  59.578 -57.981  1.00  0.00     0.273 C 
HETATM   16  N   UNL     1     -44.299  58.923 -59.207  1.00  0.00    -0.345 N 
HETATM   17  C   UNL     1     -45.124  59.354 -60.337  1.00  0.00     0.154 C 
HETATM   18  C   UNL     1     -43.384  57.800 -59.384  1.00  0.00     0.128 C 
HETATM   19  C   UNL     1     -46.439  58.567 -60.418  1.00  0.00     0.254 C 
HETATM   20  N   UNL     1     -46.241  57.160 -60.975  1.00  0.00    -0.073 N 
HETATM   21  C   UNL     1     -47.577  56.459 -61.089  1.00  0.00     0.269 C 
HETATM   22  H   UNL     1     -45.898  57.259 -61.940  1.00  0.00     0.279 HD
HETATM   23  C   UNL     1     -45.247  56.295 -60.225  1.00  0.00     0.236 C 
HETATM   24  C   UNL     1     -43.818  56.782 -60.438  1.00  0.00     0.048 C 
HETATM   25  O   UNL     1     -45.507  60.291 -57.836  1.00  0.00    -0.266 OA
ENDBRANCH  13  15
ENDBRANCH   1  10
BRANCH   8  26
HETATM   26  C   UNL     1     -41.596  54.529 -52.477  1.00  0.00     0.183 C 
BRANCH  26  27
HETATM   27  N   UNL     1     -40.320  53.882 -52.764  1.00  0.00    -0.371 N 
HETATM   28  H   UNL     1     -39.711  54.428 -53.371  1.00  0.00     0.161 HD
BRANCH  27  29
HETATM   29  C   UNL     1     -40.174  52.517 -52.923  1.00  0.00     0.101 A 
HETATM   30  N   UNL     1     -39.749  51.723 -51.926  1.00  0.00    -0.353 N 
HETATM   31  H   UNL     1     -39.638  52.146 -51.000  1.00  0.00     0.166 HD
HETATM   32  C   UNL     1     -39.539  50.407 -52.066  1.00  0.00     0.089 A 
HETATM   33  C   UNL     1     -39.757  49.791 -53.288  1.00  0.00     0.017 A 
HETATM   34  C   UNL     1     -40.205  50.561 -54.352  1.00  0.00     0.005 A 
HETATM   35  C   UNL     1     -40.414  51.927 -54.169  1.00  0.00     0.048 A 
ENDBRANCH  27  29
ENDBRANCH  26  27
ENDBRANCH   8  26
TORSDOF 5
ENDMDL
MODEL 7
REMARK VINA RESULT:      -8.7      2.041      2.998
REMARK  5 active torsions:
REMARK  status: ('A' for Active; 'I' for Inactive)
REMARK       I    between atoms: N_6  and  C_7 
REMARK    1  A    between atoms: C_7  and  C_8 
REMARK    2  A    between atoms: N_11  and  C_12 
REMARK    3  A    between atoms: C_19  and  C_20 
REMARK    4  A    between atoms: C_20  and  N_21 
REMARK    5  A    between atoms: N_21  and  C_22 
ROOT
HETATM    1  C   UNL     1     -42.913  56.806 -53.372  1.00  0.00     0.719 A 
HETATM    2  N   UNL     1     -42.251  57.659 -52.496  1.00  0.00    -0.154 N 
HETATM    3  C   UNL     1     -41.569  56.825 -51.606  1.00  0.00     0.083 A 
HETATM    4  C   UNL     1     -40.763  57.429 -50.598  1.00  0.00     0.033 A 
HETATM    5  C   UNL     1     -40.719  58.770 -50.499  1.00  0.00     0.004 A 
HETATM    6  C   UNL     1     -41.487  59.617 -51.389  1.00  0.00     0.018 A 
HETATM    7  C   UNL     1     -42.229  59.052 -52.356  1.00  0.00     0.115 A 
HETATM    8  C   UNL     1     -41.925  55.535 -51.927  1.00  0.00     0.099 A 
HETATM    9  N   UNL     1     -42.762  55.527 -53.036  1.00  0.00    -0.064 NA
ENDROOT
BRANCH   1  10
HETATM   10  N   UNL     1     -43.685  57.178 -54.481  1.00  0.00    -0.147 N 
HETATM   11  C   UNL     1     -45.014  57.543 -54.415  1.00  0.00     0.233 A 
HETATM   12  N   UNL     1     -45.519  57.870 -55.582  1.00  0.00    -0.236 NA
HETATM   13  C   UNL     1     -44.490  57.709 -56.484  1.00  0.00     0.142 A 
HETATM   14  C   UNL     1     -43.370  57.239 -55.816  1.00  0.00     0.153 A 
BRANCH  13  15
HETATM   15  C   UNL     1     -44.561  57.938 -57.937  1.00  0.00     0.273 C 
HETATM   16  N   UNL     1     -44.678  59.246 -58.440  1.00  0.00    -0.345 N 
HETATM   17  C   UNL     1     -44.997  59.379 -59.863  1.00  0.00     0.154 C 
HETATM   18  C   UNL     1     -44.413  60.448 -57.657  1.00  0.00     0.128 C 
HETATM   19  C   UNL     1     -43.734  59.414 -60.732  1.00  0.00     0.254 C 
HETATM   20  N   UNL     1     -43.021  60.762 -60.668  1.00  0.00    -0.073 N 
HETATM   21  C   UNL     1     -41.822  60.755 -61.591  1.00  0.00     0.269 C 
HETATM   22  H   UNL     1     -43.664  61.466 -61.055  1.00  0.00     0.279 HD
HETATM   23  C   UNL     1     -42.622  61.223 -59.280  1.00  0.00     0.236 C 
HETATM   24  C   UNL     1     -43.843  61.619 -58.456  1.00  0.00     0.048 C 
HETATM   25  O   UNL     1     -44.491  56.989 -58.720  1.00  0.00    -0.266 OA
ENDBRANCH  13  15
ENDBRANCH   1  10
BRANCH   8  26
HETATM   26  C   UNL     1     -41.548  54.249 -51.249  1.00  0.00     0.183 C 
BRANCH  26  27
HETATM   27  N   UNL     1     -40.264  53.655 -51.606  1.00  0.00    -0.371 N 
HETATM   28  H   UNL     1     -39.552  54.339 -51.856  1.00  0.00     0.161 HD
BRANCH  27  29
HETATM   29  C   UNL     1     -40.138  52.456 -52.281  1.00  0.00     0.101 A 
HETATM   30  N   UNL     1     -39.687  51.342 -51.682  1.00  0.00    -0.353 N 
HETATM   31  H   UNL     1     -39.541  51.376 -50.669  1.00  0.00     0.166 HD
HETATM   32  C   UNL     1     -39.496  50.181 -52.324  1.00  0.00     0.089 A 
HETATM   33  C   UNL     1     -39.762  50.082 -53.680  1.00  0.00     0.017 A 
HETATM   34  C   UNL     1     -40.238  51.200 -54.350  1.00  0.00     0.005 A 
HETATM   35  C   UNL     1     -40.426  52.389 -53.649  1.00  0.00     0.048 A 
ENDBRANCH  27  29
ENDBRANCH  26  27
ENDBRANCH   8  26
TORSDOF 5
ENDMDL
MODEL 8
REMARK VINA RESULT:      -8.6      4.077      8.050
REMARK  5 active torsions:
REMARK  status: ('A' for Active; 'I' for Inactive)
REMARK       I    between atoms: N_6  and  C_7 
REMARK    1  A    between atoms: C_7  and  C_8 
REMARK    2  A    between atoms: N_11  and  C_12 
REMARK    3  A    between atoms: C_19  and  C_20 
REMARK    4  A    between atoms: C_20  and  N_21 
REMARK    5  A    between atoms: N_21  and  C_22 
ROOT
HETATM    1  C   UNL     1     -42.147  57.724 -52.650  1.00  0.00     0.719 A 
HETATM    2  N   UNL     1     -42.262  57.706 -54.035  1.00  0.00    -0.154 N 
HETATM    3  C   UNL     1     -42.275  56.355 -54.392  1.00  0.00     0.083 A 
HETATM    4  C   UNL     1     -42.419  56.021 -55.769  1.00  0.00     0.033 A 
HETATM    5  C   UNL     1     -42.486  57.005 -56.686  1.00  0.00     0.004 A 
HETATM    6  C   UNL     1     -42.401  58.399 -56.303  1.00  0.00     0.018 A 
HETATM    7  C   UNL     1     -42.291  58.718 -55.002  1.00  0.00     0.115 A 
HETATM    8  C   UNL     1     -42.076  55.642 -53.231  1.00  0.00     0.099 A 
HETATM    9  N   UNL     1     -42.002  56.501 -52.142  1.00  0.00    -0.064 NA
ENDROOT
BRANCH   1  10
HETATM   10  N   UNL     1     -42.151  58.855 -51.823  1.00  0.00    -0.147 N 
HETATM   11  C   UNL     1     -41.197  59.119 -50.861  1.00  0.00     0.233 A 
HETATM   12  N   UNL     1     -41.400  60.250 -50.227  1.00  0.00    -0.236 NA
HETATM   13  C   UNL     1     -42.551  60.775 -50.774  1.00  0.00     0.142 A 
HETATM   14  C   UNL     1     -43.042  59.896 -51.727  1.00  0.00     0.153 A 
BRANCH  13  15
HETATM   15  C   UNL     1     -43.205  62.036 -50.385  1.00  0.00     0.273 C 
HETATM   16  N   UNL     1     -44.434  62.011 -49.703  1.00  0.00    -0.345 N 
HETATM   17  C   UNL     1     -45.143  63.285 -49.575  1.00  0.00     0.154 C 
HETATM   18  C   UNL     1     -44.982  60.826 -49.050  1.00  0.00     0.128 C 
HETATM   19  C   UNL     1     -44.728  64.047 -48.310  1.00  0.00     0.254 C 
HETATM   20  N   UNL     1     -45.355  63.462 -47.047  1.00  0.00    -0.073 N 
HETATM   21  C   UNL     1     -44.960  64.291 -45.844  1.00  0.00     0.269 C 
HETATM   22  H   UNL     1     -46.375  63.571 -47.134  1.00  0.00     0.279 HD
HETATM   23  C   UNL     1     -45.073  61.994 -46.799  1.00  0.00     0.236 C 
HETATM   24  C   UNL     1     -45.811  61.111 -47.799  1.00  0.00     0.048 C 
HETATM   25  O   UNL     1     -42.667  63.117 -50.631  1.00  0.00    -0.266 OA
ENDBRANCH  13  15
ENDBRANCH   1  10
BRANCH   8  26
HETATM   26  C   UNL     1     -41.927  54.159 -53.041  1.00  0.00     0.183 C 
BRANCH  26  27
HETATM   27  N   UNL     1     -40.570  53.628 -52.951  1.00  0.00    -0.371 N 
HETATM   28  H   UNL     1     -39.868  54.224 -53.386  1.00  0.00     0.161 HD
BRANCH  27  29
HETATM   29  C   UNL     1     -40.271  52.281 -53.023  1.00  0.00     0.101 A 
HETATM   30  N   UNL     1     -39.775  51.602 -51.975  1.00  0.00    -0.353 N 
HETATM   31  H   UNL     1     -39.725  52.091 -51.077  1.00  0.00     0.166 HD
HETATM   32  C   UNL     1     -39.417  50.312 -52.031  1.00  0.00     0.089 A 
HETATM   33  C   UNL     1     -39.547  49.603 -53.214  1.00  0.00     0.017 A 
HETATM   34  C   UNL     1     -40.063  50.251 -54.327  1.00  0.00     0.005 A 
HETATM   35  C   UNL     1     -40.426  51.593 -54.232  1.00  0.00     0.048 A 
ENDBRANCH  27  29
ENDBRANCH  26  27
ENDBRANCH   8  26
TORSDOF 5
ENDMDL
MODEL 9
REMARK VINA RESULT:      -8.3      4.098      7.256
REMARK  5 active torsions:
REMARK  status: ('A' for Active; 'I' for Inactive)
REMARK       I    between atoms: N_6  and  C_7 
REMARK    1  A    between atoms: C_7  and  C_8 
REMARK    2  A    between atoms: N_11  and  C_12 
REMARK    3  A    between atoms: C_19  and  C_20 
REMARK    4  A    between atoms: C_20  and  N_21 
REMARK    5  A    between atoms: N_21  and  C_22 
ROOT
HETATM    1  C   UNL     1     -42.244  57.657 -52.799  1.00  0.00     0.719 A 
HETATM    2  N   UNL     1     -42.306  57.748 -54.184  1.00  0.00    -0.154 N 
HETATM    3  C   UNL     1     -42.285  56.429 -54.647  1.00  0.00     0.083 A 
HETATM    4  C   UNL     1     -42.372  56.204 -56.051  1.00  0.00     0.033 A 
HETATM    5  C   UNL     1     -42.419  57.256 -56.889  1.00  0.00     0.004 A 
HETATM    6  C   UNL     1     -42.370  58.617 -56.394  1.00  0.00     0.018 A 
HETATM    7  C   UNL     1     -42.314  58.833 -55.069  1.00  0.00     0.115 A 
HETATM    8  C   UNL     1     -42.120  55.629 -53.539  1.00  0.00     0.099 A 
HETATM    9  N   UNL     1     -42.100  56.400 -52.384  1.00  0.00    -0.064 NA
ENDROOT
BRANCH   1  10
HETATM   10  N   UNL     1     -42.296  58.719 -51.886  1.00  0.00    -0.147 N 
HETATM   11  C   UNL     1     -41.196  59.239 -51.234  1.00  0.00     0.233 A 
HETATM   12  N   UNL     1     -41.490  60.244 -50.443  1.00  0.00    -0.236 NA
HETATM   13  C   UNL     1     -42.854  60.409 -50.554  1.00  0.00     0.142 A 
HETATM   14  C   UNL     1     -43.360  59.443 -51.407  1.00  0.00     0.153 A 
BRANCH  13  15
HETATM   15  C   UNL     1     -43.671  61.409 -49.844  1.00  0.00     0.273 C 
HETATM   16  N   UNL     1     -43.757  62.724 -50.333  1.00  0.00    -0.345 N 
HETATM   17  C   UNL     1     -44.371  63.717 -49.449  1.00  0.00     0.154 C 
HETATM   18  C   UNL     1     -43.360  63.122 -51.680  1.00  0.00     0.128 C 
HETATM   19  C   UNL     1     -45.890  63.798 -49.647  1.00  0.00     0.254 C 
HETATM   20  N   UNL     1     -46.272  64.553 -50.918  1.00  0.00    -0.073 N 
HETATM   21  C   UNL     1     -47.778  64.653 -51.025  1.00  0.00     0.269 C 
HETATM   22  H   UNL     1     -45.937  65.520 -50.811  1.00  0.00     0.279 HD
HETATM   23  C   UNL     1     -45.681  64.006 -52.203  1.00  0.00     0.236 C 
HETATM   24  C   UNL     1     -44.180  64.265 -52.277  1.00  0.00     0.048 C 
HETATM   25  O   UNL     1     -44.303  61.091 -48.835  1.00  0.00    -0.266 OA
ENDBRANCH  13  15
ENDBRANCH   1  10
BRANCH   8  26
HETATM   26  C   UNL     1     -41.956  54.138 -53.461  1.00  0.00     0.183 C 
BRANCH  26  27
HETATM   27  N   UNL     1     -40.615  53.623 -53.201  1.00  0.00    -0.371 N 
HETATM   28  H   UNL     1     -39.872  54.194 -53.603  1.00  0.00     0.161 HD
BRANCH  27  29
HETATM   29  C   UNL     1     -40.309  52.277 -53.151  1.00  0.00     0.101 A 
HETATM   30  N   UNL     1     -39.789  51.702 -52.055  1.00  0.00    -0.353 N 
HETATM   31  H   UNL     1     -39.724  52.273 -51.207  1.00  0.00     0.166 HD
HETATM   32  C   UNL     1     -39.425  50.413 -51.996  1.00  0.00     0.089 A 
HETATM   33  C   UNL     1     -39.574  49.595 -53.104  1.00  0.00     0.017 A 
HETATM   34  C   UNL     1     -40.115  50.133 -54.263  1.00  0.00     0.005 A 
HETATM   35  C   UNL     1     -40.483  51.477 -54.287  1.00  0.00     0.048 A 
ENDBRANCH  27  29
ENDBRANCH  26  27
ENDBRANCH   8  26
TORSDOF 5
ENDMDL
MODEL 10
REMARK VINA RESULT:      -8.3      6.079     10.079
REMARK  5 active torsions:
REMARK  status: ('A' for Active; 'I' for Inactive)
REMARK       I    between atoms: N_6  and  C_7 
REMARK    1  A    between atoms: C_7  and  C_8 
REMARK    2  A    between atoms: N_11  and  C_12 
REMARK    3  A    between atoms: C_19  and  C_20 
REMARK    4  A    between atoms: C_20  and  N_21 
REMARK    5  A    between atoms: N_21  and  C_22 
ROOT
HETATM    1  C   UNL     1     -45.070  60.627 -51.220  1.00  0.00     0.719 A 
HETATM    2  N   UNL     1     -45.317  61.315 -50.038  1.00  0.00    -0.154 N 
HETATM    3  C   UNL     1     -46.412  62.141 -50.308  1.00  0.00     0.083 A 
HETATM    4  C   UNL     1     -46.921  62.954 -49.256  1.00  0.00     0.033 A 
HETATM    5  C   UNL     1     -46.310  62.945 -48.057  1.00  0.00     0.004 A 
HETATM    6  C   UNL     1     -45.134  62.134 -47.816  1.00  0.00     0.018 A 
HETATM    7  C   UNL     1     -44.667  61.347 -48.799  1.00  0.00     0.115 A 
HETATM    8  C   UNL     1     -46.703  61.979 -51.644  1.00  0.00     0.099 A 
HETATM    9  N   UNL     1     -45.865  61.028 -52.210  1.00  0.00    -0.064 NA
ENDROOT
BRANCH   1  10
HETATM   10  N   UNL     1     -44.100  59.636 -51.425  1.00  0.00    -0.147 N 
HETATM   11  C   UNL     1     -42.858  59.866 -51.982  1.00  0.00     0.233 A 
HETATM   12  N   UNL     1     -42.114  58.787 -52.053  1.00  0.00    -0.236 NA
HETATM   13  C   UNL     1     -42.890  57.774 -51.532  1.00  0.00     0.142 A 
HETATM   14  C   UNL     1     -44.131  58.285 -51.186  1.00  0.00     0.153 A 
BRANCH  13  15
HETATM   15  C   UNL     1     -42.504  56.358 -51.407  1.00  0.00     0.273 C 
HETATM   16  N   UNL     1     -42.982  55.413 -52.332  1.00  0.00    -0.345 N 
HETATM   17  C   UNL     1     -42.770  54.002 -52.003  1.00  0.00     0.154 C 
HETATM   18  C   UNL     1     -43.582  55.759 -53.616  1.00  0.00     0.128 C 
HETATM   19  C   UNL     1     -41.426  53.487 -52.532  1.00  0.00     0.254 C 
HETATM   20  N   UNL     1     -41.453  53.231 -54.037  1.00  0.00    -0.073 N 
HETATM   21  C   UNL     1     -40.123  52.667 -54.488  1.00  0.00     0.269 C 
HETATM   22  H   UNL     1     -42.142  52.485 -54.207  1.00  0.00     0.279 HD
HETATM   23  C   UNL     1     -41.847  54.418 -54.893  1.00  0.00     0.236 C 
HETATM   24  C   UNL     1     -43.326  54.749 -54.735  1.00  0.00     0.048 C 
HETATM   25  O   UNL     1     -41.741  55.999 -50.509  1.00  0.00    -0.266 OA
ENDBRANCH  13  15
ENDBRANCH   1  10
BRANCH   8  26
HETATM   26  C   UNL     1     -47.734  62.680 -52.482  1.00  0.00     0.183 C 
BRANCH  26  27
HETATM   27  N   UNL     1     -48.697  61.846 -53.195  1.00  0.00    -0.371 N 
HETATM   28  H   UNL     1     -48.364  61.518 -54.100  1.00  0.00     0.161 HD
BRANCH  27  29
HETATM   29  C   UNL     1     -50.063  62.050 -53.153  1.00  0.00     0.101 A 
HETATM   30  N   UNL     1     -50.903  61.450 -54.012  1.00  0.00    -0.353 N 
HETATM   31  H   UNL     1     -50.511  60.742 -54.639  1.00  0.00     0.166 HD
HETATM   32  C   UNL     1     -52.224  61.675 -54.036  1.00  0.00     0.089 A 
HETATM   33  C   UNL     1     -52.795  62.570 -53.146  1.00  0.00     0.017 A 
HETATM   34  C   UNL     1     -51.977  63.214 -52.229  1.00  0.00     0.005 A 
HETATM   35  C   UNL     1     -50.608  62.954 -52.232  1.00  0.00     0.048 A 
ENDBRANCH  27  29
ENDBRANCH  26  27
ENDBRANCH   8  26
TORSDOF 5
ENDMDL
