MODEL 1
REMARK VINA RESULT:      -8.1      0.000      0.000
REMARK  5 active torsions:
REMARK  status: ('A' for Active; 'I' for Inactive)
REMARK    1  A    between atoms: C_6  and  S_7 
REMARK    2  A    between atoms: S_7  and  C_8 
REMARK    3  A    between atoms: C_8  and  C_9 
REMARK       I    between atoms: C_9  and  N_10 
REMARK    4  A    between atoms: N_10  and  C_11 
REMARK    5  A    between atoms: C_14  and  C_15 
ROOT
HETATM    1  C   UNL     1     -41.754  59.463 -53.514  1.00  0.00     0.233 C 
HETATM    2  N   UNL     1     -42.500  58.493 -52.878  1.00  0.00    -0.305 N 
HETATM    3  O   UNL     1     -40.535  59.452 -53.673  1.00  0.00    -0.272 OA
HETATM    4  H   UNL     1     -43.485  58.639 -52.715  1.00  0.00     0.171 HD
ENDROOT
BRANCH   2   5
HETATM    5  C   UNL     1     -41.943  57.349 -52.384  1.00  0.00     0.173 A 
HETATM    6  S   UNL     1     -41.651  57.374 -50.704  1.00  0.00    -0.061 SA
HETATM    7  C   UNL     1     -41.051  55.765 -50.808  1.00  0.00     0.085 A 
HETATM    8  C   UNL     1     -41.121  55.316 -52.115  1.00  0.00     0.076 A 
HETATM    9  N   UNL     1     -41.631  56.246 -53.008  1.00  0.00    -0.223 NA
BRANCH   8  10
HETATM   10  C   UNL     1     -40.707  53.992 -52.583  1.00  0.00    -0.007 A 
HETATM   11  C   UNL     1     -40.147  53.028 -51.732  1.00  0.00     0.015 A 
HETATM   12  C   UNL     1     -39.774  51.770 -52.223  1.00  0.00     0.020 A 
HETATM   13  C   UNL     1     -39.962  51.466 -53.569  1.00  0.00     0.011 A 
HETATM   14 BR   UNL     1     -39.463  49.766 -54.227  1.00  0.00    -0.051 Br
HETATM   15  C   UNL     1     -40.518  52.406 -54.430  1.00  0.00     0.020 A 
HETATM   16  C   UNL     1     -40.889  53.660 -53.936  1.00  0.00     0.015 A 
ENDBRANCH   8  10
ENDBRANCH   2   5
BRANCH   1  17
HETATM   17  C   UNL     1     -42.586  60.571 -54.136  1.00  0.00     0.184 C 
BRANCH  17  18
HETATM   18  S   UNL     1     -44.167  59.956 -54.790  1.00  0.00    -0.094 SA
BRANCH  18  19
HETATM   19  C   UNL     1     -43.593  59.134 -56.228  1.00  0.00     0.136 A 
HETATM   20  S   UNL     1     -42.598  59.906 -57.386  1.00  0.00    -0.061 SA
HETATM   21  C   UNL     1     -42.572  58.460 -58.322  1.00  0.00     0.036 A 
HETATM   22  C   UNL     1     -43.334  57.486 -57.670  1.00  0.00     0.075 A 
HETATM   23  C   UNL     1     -41.926  58.201 -59.543  1.00  0.00     0.021 A 
HETATM   24  C   UNL     1     -43.449  56.210 -58.257  1.00  0.00     0.033 A 
HETATM   25  N   UNL     1     -43.917  57.889 -56.481  1.00  0.00    -0.233 NA
HETATM   26  C   UNL     1     -42.810  55.943 -59.472  1.00  0.00     0.002 A 
HETATM   27  C   UNL     1     -42.059  56.928 -60.105  1.00  0.00     0.002 A 
ENDBRANCH  18  19
ENDBRANCH  17  18
ENDBRANCH   1  17
TORSDOF 5
ENDMDL
MODEL 2
REMARK VINA RESULT:      -7.8      1.362      1.752
REMARK  5 active torsions:
REMARK  status: ('A' for Active; 'I' for Inactive)
REMARK    1  A    between atoms: C_6  and  S_7 
REMARK    2  A    between atoms: S_7  and  C_8 
REMARK    3  A    between atoms: C_8  and  C_9 
REMARK       I    between atoms: C_9  and  N_10 
REMARK    4  A    between atoms: N_10  and  C_11 
REMARK    5  A    between atoms: C_14  and  C_15 
ROOT
HETATM    1  C   UNL     1     -42.130  59.453 -54.574  1.00  0.00     0.233 C 
HETATM    2  N   UNL     1     -42.988  58.412 -54.294  1.00  0.00    -0.305 N 
HETATM    3  O   UNL     1     -40.970  59.563 -54.182  1.00  0.00    -0.272 OA
HETATM    4  H   UNL     1     -43.953  58.459 -54.586  1.00  0.00     0.171 HD
ENDROOT
BRANCH   2   5
HETATM    5  C   UNL     1     -42.605  57.324 -53.563  1.00  0.00     0.173 A 
HETATM    6  S   UNL     1     -42.941  57.441 -51.896  1.00  0.00    -0.061 SA
HETATM    7  C   UNL     1     -42.284  55.865 -51.677  1.00  0.00     0.085 A 
HETATM    8  C   UNL     1     -41.860  55.356 -52.891  1.00  0.00     0.076 A 
HETATM    9  N   UNL     1     -42.047  56.215 -53.963  1.00  0.00    -0.223 NA
BRANCH   8  10
HETATM   10  C   UNL     1     -41.255  54.039 -53.096  1.00  0.00    -0.007 A 
HETATM   11  C   UNL     1     -40.430  53.426 -52.140  1.00  0.00     0.015 A 
HETATM   12  C   UNL     1     -39.881  52.159 -52.377  1.00  0.00     0.020 A 
HETATM   13  C   UNL     1     -40.154  51.495 -53.570  1.00  0.00     0.011 A 
HETATM   14 BR   UNL     1     -39.415  49.784 -53.883  1.00  0.00    -0.051 Br
HETATM   15  C   UNL     1     -40.971  52.083 -54.529  1.00  0.00     0.020 A 
HETATM   16  C   UNL     1     -41.517  53.347 -54.290  1.00  0.00     0.015 A 
ENDBRANCH   8  10
ENDBRANCH   2   5
BRANCH   1  17
HETATM   17  C   UNL     1     -42.700  60.478 -55.540  1.00  0.00     0.184 C 
BRANCH  17  18
HETATM   18  S   UNL     1     -41.886  60.416 -57.165  1.00  0.00    -0.094 SA
BRANCH  18  19
HETATM   19  C   UNL     1     -42.803  59.119 -57.906  1.00  0.00     0.136 A 
HETATM   20  S   UNL     1     -44.491  59.224 -58.160  1.00  0.00    -0.061 SA
HETATM   21  C   UNL     1     -44.481  57.647 -58.853  1.00  0.00     0.036 A 
HETATM   22  C   UNL     1     -43.173  57.155 -58.836  1.00  0.00     0.075 A 
HETATM   23  C   UNL     1     -45.548  56.895 -59.373  1.00  0.00     0.021 A 
HETATM   24  C   UNL     1     -42.924  55.871 -59.363  1.00  0.00     0.033 A 
HETATM   25  N   UNL     1     -42.228  58.004 -58.286  1.00  0.00    -0.233 NA
HETATM   26  C   UNL     1     -43.980  55.116 -59.883  1.00  0.00     0.002 A 
HETATM   27  C   UNL     1     -45.275  55.624 -59.886  1.00  0.00     0.002 A 
ENDBRANCH  18  19
ENDBRANCH  17  18
ENDBRANCH   1  17
TORSDOF 5
ENDMDL
MODEL 3
REMARK VINA RESULT:      -7.7      1.765      2.240
REMARK  5 active torsions:
REMARK  status: ('A' for Active; 'I' for Inactive)
REMARK    1  A    between atoms: C_6  and  S_7 
REMARK    2  A    between atoms: S_7  and  C_8 
REMARK    3  A    between atoms: C_8  and  C_9 
REMARK       I    between atoms: C_9  and  N_10 
REMARK    4  A    between atoms: N_10  and  C_11 
REMARK    5  A    between atoms: C_14  and  C_15 
ROOT
HETATM    1  C   UNL     1     -44.211  58.325 -54.407  1.00  0.00     0.233 C 
HETATM    2  N   UNL     1     -42.879  58.350 -54.050  1.00  0.00    -0.305 N 
HETATM    3  O   UNL     1     -44.999  57.404 -54.204  1.00  0.00    -0.272 OA
HETATM    4  H   UNL     1     -42.291  59.115 -54.344  1.00  0.00     0.171 HD
ENDROOT
BRANCH   2   5
HETATM    5  C   UNL     1     -42.288  57.331 -53.360  1.00  0.00     0.173 A 
HETATM    6  S   UNL     1     -42.033  57.653 -51.706  1.00  0.00    -0.061 SA
HETATM    7  C   UNL     1     -41.366  56.077 -51.525  1.00  0.00     0.085 A 
HETATM    8  C   UNL     1     -41.390  55.411 -52.737  1.00  0.00     0.076 A 
HETATM    9  N   UNL     1     -41.918  56.153 -53.783  1.00  0.00    -0.223 NA
BRANCH   8  10
HETATM   10  C   UNL     1     -40.913  54.046 -52.967  1.00  0.00    -0.007 A 
HETATM   11  C   UNL     1     -40.995  53.414 -54.218  1.00  0.00     0.015 A 
HETATM   12  C   UNL     1     -40.516  52.110 -54.392  1.00  0.00     0.020 A 
HETATM   13  C   UNL     1     -39.951  51.427 -53.318  1.00  0.00     0.011 A 
HETATM   14 BR   UNL     1     -39.301  49.669 -53.559  1.00  0.00    -0.051 Br
HETATM   15  C   UNL     1     -39.858  52.035 -52.070  1.00  0.00     0.020 A 
HETATM   16  C   UNL     1     -40.336  53.337 -51.900  1.00  0.00     0.015 A 
ENDBRANCH   8  10
ENDBRANCH   2   5
BRANCH   1  17
HETATM   17  C   UNL     1     -44.710  59.625 -55.015  1.00  0.00     0.184 C 
BRANCH  17  18
HETATM   18  S   UNL     1     -43.725  60.131 -56.457  1.00  0.00    -0.094 SA
BRANCH  18  19
HETATM   19  C   UNL     1     -43.953  58.725 -57.479  1.00  0.00     0.136 A 
HETATM   20  S   UNL     1     -42.706  57.589 -57.760  1.00  0.00    -0.061 SA
HETATM   21  C   UNL     1     -43.764  56.684 -58.774  1.00  0.00     0.036 A 
HETATM   22  C   UNL     1     -45.005  57.327 -58.821  1.00  0.00     0.075 A 
HETATM   23  C   UNL     1     -43.521  55.493 -59.479  1.00  0.00     0.021 A 
HETATM   24  C   UNL     1     -46.036  56.757 -59.594  1.00  0.00     0.033 A 
HETATM   25  N   UNL     1     -45.094  58.495 -58.083  1.00  0.00    -0.233 NA
HETATM   26  C   UNL     1     -45.803  55.572 -60.298  1.00  0.00     0.002 A 
HETATM   27  C   UNL     1     -44.559  54.950 -60.241  1.00  0.00     0.002 A 
ENDBRANCH  18  19
ENDBRANCH  17  18
ENDBRANCH   1  17
TORSDOF 5
ENDMDL
MODEL 4
REMARK VINA RESULT:      -7.3      3.688      8.014
REMARK  5 active torsions:
REMARK  status: ('A' for Active; 'I' for Inactive)
REMARK    1  A    between atoms: C_6  and  S_7 
REMARK    2  A    between atoms: S_7  and  C_8 
REMARK    3  A    between atoms: C_8  and  C_9 
REMARK       I    between atoms: C_9  and  N_10 
REMARK    4  A    between atoms: N_10  and  C_11 
REMARK    5  A    between atoms: C_14  and  C_15 
ROOT
HETATM    1  C   UNL     1     -41.290  58.634 -53.235  1.00  0.00     0.233 C 
HETATM    2  N   UNL     1     -42.297  58.228 -54.083  1.00  0.00    -0.305 N 
HETATM    3  O   UNL     1     -40.231  59.161 -53.566  1.00  0.00    -0.272 OA
HETATM    4  H   UNL     1     -43.090  57.719 -53.721  1.00  0.00     0.171 HD
ENDROOT
BRANCH   2   5
HETATM    5  C   UNL     1     -42.240  58.424 -55.434  1.00  0.00     0.173 A 
HETATM    6  S   UNL     1     -42.764  57.093 -56.362  1.00  0.00    -0.061 SA
HETATM    7  C   UNL     1     -42.471  58.006 -57.792  1.00  0.00     0.085 A 
HETATM    8  C   UNL     1     -42.000  59.265 -57.462  1.00  0.00     0.076 A 
HETATM    9  N   UNL     1     -41.868  59.482 -56.099  1.00  0.00    -0.223 NA
BRANCH   8  10
HETATM   10  C   UNL     1     -41.650  60.318 -58.416  1.00  0.00    -0.007 A 
HETATM   11  C   UNL     1     -40.950  61.476 -58.045  1.00  0.00     0.015 A 
HETATM   12  C   UNL     1     -40.628  62.453 -58.995  1.00  0.00     0.020 A 
HETATM   13  C   UNL     1     -41.003  62.279 -60.325  1.00  0.00     0.011 A 
HETATM   14 BR   UNL     1     -40.562  63.597 -61.606  1.00  0.00    -0.051 Br
HETATM   15  C   UNL     1     -41.695  61.138 -60.716  1.00  0.00     0.020 A 
HETATM   16  C   UNL     1     -42.014  60.165 -59.765  1.00  0.00     0.015 A 
ENDBRANCH   8  10
ENDBRANCH   2   5
BRANCH   1  17
HETATM   17  C   UNL     1     -41.625  58.476 -51.761  1.00  0.00     0.184 C 
BRANCH  17  18
HETATM   18  S   UNL     1     -42.942  57.254 -51.484  1.00  0.00    -0.094 SA
BRANCH  18  19
HETATM   19  C   UNL     1     -42.040  55.778 -51.763  1.00  0.00     0.136 A 
HETATM   20  S   UNL     1     -41.204  54.967 -50.509  1.00  0.00    -0.061 SA
HETATM   21  C   UNL     1     -40.682  53.773 -51.635  1.00  0.00     0.036 A 
HETATM   22  C   UNL     1     -41.191  54.088 -52.898  1.00  0.00     0.075 A 
HETATM   23  C   UNL     1     -39.880  52.639 -51.423  1.00  0.00     0.021 A 
HETATM   24  C   UNL     1     -40.894  53.238 -53.982  1.00  0.00     0.033 A 
HETATM   25  N   UNL     1     -41.958  55.240 -52.956  1.00  0.00    -0.233 NA
HETATM   26  C   UNL     1     -40.097  52.107 -53.780  1.00  0.00     0.002 A 
HETATM   27  C   UNL     1     -39.597  51.813 -52.515  1.00  0.00     0.002 A 
ENDBRANCH  18  19
ENDBRANCH  17  18
ENDBRANCH   1  17
TORSDOF 5
ENDMDL
MODEL 5
REMARK VINA RESULT:      -7.3      2.403      5.127
REMARK  5 active torsions:
REMARK  status: ('A' for Active; 'I' for Inactive)
REMARK    1  A    between atoms: C_6  and  S_7 
REMARK    2  A    between atoms: S_7  and  C_8 
REMARK    3  A    between atoms: C_8  and  C_9 
REMARK       I    between atoms: C_9  and  N_10 
REMARK    4  A    between atoms: N_10  and  C_11 
REMARK    5  A    between atoms: C_14  and  C_15 
ROOT
HETATM    1  C   UNL     1     -41.799  59.245 -53.885  1.00  0.00     0.233 C 
HETATM    2  N   UNL     1     -42.690  58.229 -54.159  1.00  0.00    -0.305 N 
HETATM    3  O   UNL     1     -40.573  59.163 -53.917  1.00  0.00    -0.272 OA
HETATM    4  H   UNL     1     -43.678  58.370 -54.015  1.00  0.00     0.171 HD
ENDROOT
BRANCH   2   5
HETATM    5  C   UNL     1     -42.284  56.988 -54.559  1.00  0.00     0.173 A 
HETATM    6  S   UNL     1     -42.334  56.740 -56.245  1.00  0.00    -0.061 SA
HETATM    7  C   UNL     1     -41.715  55.152 -56.006  1.00  0.00     0.085 A 
HETATM    8  C   UNL     1     -41.506  54.923 -54.658  1.00  0.00     0.076 A 
HETATM    9  N   UNL     1     -41.847  55.991 -53.842  1.00  0.00    -0.223 NA
BRANCH   8  10
HETATM   10  C   UNL     1     -40.979  53.687 -54.077  1.00  0.00    -0.007 A 
HETATM   11  C   UNL     1     -40.770  52.523 -54.832  1.00  0.00     0.015 A 
HETATM   12  C   UNL     1     -40.255  51.366 -54.234  1.00  0.00     0.020 A 
HETATM   13  C   UNL     1     -39.944  51.364 -52.877  1.00  0.00     0.011 A 
HETATM   14 BR   UNL     1     -39.244  49.802 -52.075  1.00  0.00    -0.051 Br
HETATM   15  C   UNL     1     -40.141  52.507 -52.110  1.00  0.00     0.020 A 
HETATM   16  C   UNL     1     -40.655  53.661 -52.710  1.00  0.00     0.015 A 
ENDBRANCH   8  10
ENDBRANCH   2   5
BRANCH   1  17
HETATM   17  C   UNL     1     -42.459  60.588 -53.623  1.00  0.00     0.184 C 
BRANCH  17  18
HETATM   18  S   UNL     1     -42.869  60.821 -51.867  1.00  0.00    -0.094 SA
BRANCH  18  19
HETATM   19  C   UNL     1     -42.636  59.182 -51.290  1.00  0.00     0.136 A 
HETATM   20  S   UNL     1     -41.171  58.666 -50.574  1.00  0.00    -0.061 SA
HETATM   21  C   UNL     1     -41.832  57.089 -50.366  1.00  0.00     0.036 A 
HETATM   22  C   UNL     1     -43.137  57.077 -50.866  1.00  0.00     0.075 A 
HETATM   23  C   UNL     1     -41.244  55.943 -49.804  1.00  0.00     0.021 A 
HETATM   24  C   UNL     1     -43.880  55.881 -50.795  1.00  0.00     0.033 A 
HETATM   25  N   UNL     1     -43.579  58.277 -51.397  1.00  0.00    -0.233 NA
HETATM   26  C   UNL     1     -43.304  54.736 -50.237  1.00  0.00     0.002 A 
HETATM   27  C   UNL     1     -42.001  54.769 -49.749  1.00  0.00     0.002 A 
ENDBRANCH  18  19
ENDBRANCH  17  18
ENDBRANCH   1  17
TORSDOF 5
ENDMDL
MODEL 6
REMARK VINA RESULT:      -7.2      3.772      8.496
REMARK  5 active torsions:
REMARK  status: ('A' for Active; 'I' for Inactive)
REMARK    1  A    between atoms: C_6  and  S_7 
REMARK    2  A    between atoms: S_7  and  C_8 
REMARK    3  A    between atoms: C_8  and  C_9 
REMARK       I    between atoms: C_9  and  N_10 
REMARK    4  A    between atoms: N_10  and  C_11 
REMARK    5  A    between atoms: C_14  and  C_15 
ROOT
HETATM    1  C   UNL     1     -42.297  56.520 -54.445  1.00  0.00     0.233 C 
HETATM    2  N   UNL     1     -43.092  56.222 -55.532  1.00  0.00    -0.305 N 
HETATM    3  O   UNL     1     -41.309  57.250 -54.449  1.00  0.00    -0.272 OA
HETATM    4  H   UNL     1     -43.828  55.537 -55.447  1.00  0.00     0.171 HD
ENDROOT
BRANCH   2   5
HETATM    5  C   UNL     1     -42.882  56.771 -56.764  1.00  0.00     0.173 A 
HETATM    6  S   UNL     1     -43.222  55.727 -58.069  1.00  0.00    -0.061 SA
HETATM    7  C   UNL     1     -42.805  56.992 -59.159  1.00  0.00     0.085 A 
HETATM    8  C   UNL     1     -42.442  58.125 -58.453  1.00  0.00     0.076 A 
HETATM    9  N   UNL     1     -42.486  57.974 -57.076  1.00  0.00    -0.223 NA
BRANCH   8  10
HETATM   10  C   UNL     1     -42.033  59.401 -59.045  1.00  0.00    -0.007 A 
HETATM   11  C   UNL     1     -41.558  60.475 -58.277  1.00  0.00     0.015 A 
HETATM   12  C   UNL     1     -41.169  61.674 -58.889  1.00  0.00     0.020 A 
HETATM   13  C   UNL     1     -41.250  61.806 -60.273  1.00  0.00     0.011 A 
HETATM   14 BR   UNL     1     -40.718  63.423 -61.094  1.00  0.00    -0.051 Br
HETATM   15  C   UNL     1     -41.714  60.753 -61.053  1.00  0.00     0.020 A 
HETATM   16  C   UNL     1     -42.102  59.558 -60.439  1.00  0.00     0.015 A 
ENDBRANCH   8  10
ENDBRANCH   2   5
BRANCH   1  17
HETATM   17  C   UNL     1     -42.802  55.939 -53.135  1.00  0.00     0.184 C 
BRANCH  17  18
HETATM   18  S   UNL     1     -41.495  55.849 -51.875  1.00  0.00    -0.094 SA
BRANCH  18  19
HETATM   19  C   UNL     1     -40.939  54.208 -52.143  1.00  0.00     0.136 A 
HETATM   20  S   UNL     1     -40.265  53.257 -50.891  1.00  0.00    -0.061 SA
HETATM   21  C   UNL     1     -40.041  51.960 -52.002  1.00  0.00     0.036 A 
HETATM   22  C   UNL     1     -40.504  52.357 -53.260  1.00  0.00     0.075 A 
HETATM   23  C   UNL     1     -39.497  50.683 -51.783  1.00  0.00     0.021 A 
HETATM   24  C   UNL     1     -40.425  51.445 -54.332  1.00  0.00     0.033 A 
HETATM   25  N   UNL     1     -41.006  53.646 -53.326  1.00  0.00    -0.233 NA
HETATM   26  C   UNL     1     -39.885  50.172 -54.123  1.00  0.00     0.002 A 
HETATM   27  C   UNL     1     -39.427  49.799 -52.863  1.00  0.00     0.002 A 
ENDBRANCH  18  19
ENDBRANCH  17  18
ENDBRANCH   1  17
TORSDOF 5
ENDMDL
MODEL 7
REMARK VINA RESULT:      -7.1      6.067      9.151
REMARK  5 active torsions:
REMARK  status: ('A' for Active; 'I' for Inactive)
REMARK    1  A    between atoms: C_6  and  S_7 
REMARK    2  A    between atoms: S_7  and  C_8 
REMARK    3  A    between atoms: C_8  and  C_9 
REMARK       I    between atoms: C_9  and  N_10 
REMARK    4  A    between atoms: N_10  and  C_11 
REMARK    5  A    between atoms: C_14  and  C_15 
ROOT
HETATM    1  C   UNL     1     -43.637  58.348 -51.639  1.00  0.00     0.233 C 
HETATM    2  N   UNL     1     -43.468  59.712 -51.532  1.00  0.00    -0.305 N 
HETATM    3  O   UNL     1     -44.437  57.665 -51.004  1.00  0.00    -0.272 OA
HETATM    4  H   UNL     1     -42.719  60.169 -52.030  1.00  0.00     0.171 HD
ENDROOT
BRANCH   2   5
HETATM    5  C   UNL     1     -44.240  60.483 -50.711  1.00  0.00     0.173 A 
HETATM    6  S   UNL     1     -45.761  60.900 -51.360  1.00  0.00    -0.061 SA
HETATM    7  C   UNL     1     -46.125  61.741 -49.903  1.00  0.00     0.085 A 
HETATM    8  C   UNL     1     -45.065  61.640 -49.020  1.00  0.00     0.076 A 
HETATM    9  N   UNL     1     -43.986  60.918 -49.508  1.00  0.00    -0.223 NA
BRANCH   8  10
HETATM   10  C   UNL     1     -45.018  62.223 -47.678  1.00  0.00    -0.007 A 
HETATM   11  C   UNL     1     -45.062  63.607 -47.450  1.00  0.00     0.015 A 
HETATM   12  C   UNL     1     -45.024  64.119 -46.147  1.00  0.00     0.020 A 
HETATM   13  C   UNL     1     -44.943  63.250 -45.062  1.00  0.00     0.011 A 
HETATM   14 BR   UNL     1     -44.897  63.945 -43.304  1.00  0.00    -0.051 Br
HETATM   15  C   UNL     1     -44.900  61.875 -45.264  1.00  0.00     0.020 A 
HETATM   16  C   UNL     1     -44.939  61.368 -46.566  1.00  0.00     0.015 A 
ENDBRANCH   8  10
ENDBRANCH   2   5
BRANCH   1  17
HETATM   17  C   UNL     1     -42.795  57.707 -52.729  1.00  0.00     0.184 C 
BRANCH  17  18
HETATM   18  S   UNL     1     -43.652  56.318 -53.531  1.00  0.00    -0.094 SA
BRANCH  18  19
HETATM   19  C   UNL     1     -42.505  55.034 -53.204  1.00  0.00     0.136 A 
HETATM   20  S   UNL     1     -41.688  54.898 -51.707  1.00  0.00    -0.061 SA
HETATM   21  C   UNL     1     -40.871  53.496 -52.285  1.00  0.00     0.036 A 
HETATM   22  C   UNL     1     -41.289  53.236 -53.593  1.00  0.00     0.075 A 
HETATM   23  C   UNL     1     -39.927  52.684 -51.633  1.00  0.00     0.021 A 
HETATM   24  C   UNL     1     -40.751  52.123 -54.269  1.00  0.00     0.033 A 
HETATM   25  N   UNL     1     -42.216  54.127 -54.106  1.00  0.00    -0.233 NA
HETATM   26  C   UNL     1     -39.811  51.308 -53.629  1.00  0.00     0.002 A 
HETATM   27  C   UNL     1     -39.406  51.588 -52.327  1.00  0.00     0.002 A 
ENDBRANCH  18  19
ENDBRANCH  17  18
ENDBRANCH   1  17
TORSDOF 5
ENDMDL
MODEL 8
REMARK VINA RESULT:      -6.9      4.319      8.429
REMARK  5 active torsions:
REMARK  status: ('A' for Active; 'I' for Inactive)
REMARK    1  A    between atoms: C_6  and  S_7 
REMARK    2  A    between atoms: S_7  and  C_8 
REMARK    3  A    between atoms: C_8  and  C_9 
REMARK       I    between atoms: C_9  and  N_10 
REMARK    4  A    between atoms: N_10  and  C_11 
REMARK    5  A    between atoms: C_14  and  C_15 
ROOT
HETATM    1  C   UNL     1     -42.062  59.900 -53.975  1.00  0.00     0.233 C 
HETATM    2  N   UNL     1     -41.910  59.273 -55.193  1.00  0.00    -0.305 N 
HETATM    3  O   UNL     1     -42.344  61.083 -53.798  1.00  0.00    -0.272 OA
HETATM    4  H   UNL     1     -41.586  58.319 -55.234  1.00  0.00     0.171 HD
ENDROOT
BRANCH   2   5
HETATM    5  C   UNL     1     -42.115  59.919 -56.379  1.00  0.00     0.173 A 
HETATM    6  S   UNL     1     -43.750  60.033 -56.847  1.00  0.00    -0.061 SA
HETATM    7  C   UNL     1     -43.264  60.905 -58.249  1.00  0.00     0.085 A 
HETATM    8  C   UNL     1     -41.888  61.055 -58.260  1.00  0.00     0.076 A 
HETATM    9  N   UNL     1     -41.245  60.473 -57.178  1.00  0.00    -0.223 NA
BRANCH   8  10
HETATM   10  C   UNL     1     -41.117  61.749 -59.293  1.00  0.00    -0.007 A 
HETATM   11  C   UNL     1     -40.022  62.573 -58.996  1.00  0.00     0.015 A 
HETATM   12  C   UNL     1     -39.308  63.210 -60.019  1.00  0.00     0.020 A 
HETATM   13  C   UNL     1     -39.683  63.025 -61.347  1.00  0.00     0.011 A 
HETATM   14 BR   UNL     1     -38.713  63.881 -62.726  1.00  0.00    -0.051 Br
HETATM   15  C   UNL     1     -40.764  62.210 -61.665  1.00  0.00     0.020 A 
HETATM   16  C   UNL     1     -41.474  61.576 -60.641  1.00  0.00     0.015 A 
ENDBRANCH   8  10
ENDBRANCH   2   5
BRANCH   1  17
HETATM   17  C   UNL     1     -41.955  58.963 -52.783  1.00  0.00     0.184 C 
BRANCH  17  18
HETATM   18  S   UNL     1     -43.322  57.766 -52.727  1.00  0.00    -0.094 SA
BRANCH  18  19
HETATM   19  C   UNL     1     -42.433  56.287 -53.037  1.00  0.00     0.136 A 
HETATM   20  S   UNL     1     -42.189  55.684 -54.619  1.00  0.00    -0.061 SA
HETATM   21  C   UNL     1     -41.318  54.346 -53.970  1.00  0.00     0.036 A 
HETATM   22  C   UNL     1     -41.281  54.464 -52.578  1.00  0.00     0.075 A 
HETATM   23  C   UNL     1     -40.712  53.269 -54.639  1.00  0.00     0.021 A 
HETATM   24  C   UNL     1     -40.610  53.475 -51.831  1.00  0.00     0.033 A 
HETATM   25  N   UNL     1     -41.929  55.573 -52.060  1.00  0.00    -0.233 NA
HETATM   26  C   UNL     1     -40.004  52.400 -52.488  1.00  0.00     0.002 A 
HETATM   27  C   UNL     1     -40.056  52.300 -53.875  1.00  0.00     0.002 A 
ENDBRANCH  18  19
ENDBRANCH  17  18
ENDBRANCH   1  17
TORSDOF 5
ENDMDL
MODEL 9
REMARK VINA RESULT:      -6.9     16.520     19.193
REMARK  5 active torsions:
REMARK  status: ('A' for Active; 'I' for Inactive)
REMARK    1  A    between atoms: C_6  and  S_7 
REMARK    2  A    between atoms: S_7  and  C_8 
REMARK    3  A    between atoms: C_8  and  C_9 
REMARK       I    between atoms: C_9  and  N_10 
REMARK    4  A    between atoms: N_10  and  C_11 
REMARK    5  A    between atoms: C_14  and  C_15 
ROOT
HETATM    1  C   UNL     1     -37.811  38.519 -50.448  1.00  0.00     0.233 C 
HETATM    2  N   UNL     1     -37.520  39.866 -50.504  1.00  0.00    -0.305 N 
HETATM    3  O   UNL     1     -37.617  37.698 -51.341  1.00  0.00    -0.272 OA
HETATM    4  H   UNL     1     -37.804  40.476 -49.752  1.00  0.00     0.171 HD
ENDROOT
BRANCH   2   5
HETATM    5  C   UNL     1     -36.914  40.439 -51.585  1.00  0.00     0.173 A 
HETATM    6  S   UNL     1     -35.379  41.107 -51.260  1.00  0.00    -0.061 SA
HETATM    7  C   UNL     1     -35.250  41.554 -52.917  1.00  0.00     0.085 A 
HETATM    8  C   UNL     1     -36.383  41.157 -53.605  1.00  0.00     0.076 A 
HETATM    9  N   UNL     1     -37.332  40.523 -52.817  1.00  0.00    -0.223 NA
BRANCH   8  10
HETATM   10  C   UNL     1     -36.625  41.360 -55.035  1.00  0.00    -0.007 A 
HETATM   11  C   UNL     1     -37.821  40.982 -55.663  1.00  0.00     0.015 A 
HETATM   12  C   UNL     1     -38.011  41.205 -57.032  1.00  0.00     0.020 A 
HETATM   13  C   UNL     1     -37.007  41.809 -57.784  1.00  0.00     0.011 A 
HETATM   14 BR   UNL     1     -37.270  42.113 -59.631  1.00  0.00    -0.051 Br
HETATM   15  C   UNL     1     -35.814  42.194 -57.181  1.00  0.00     0.020 A 
HETATM   16  C   UNL     1     -35.628  41.970 -55.814  1.00  0.00     0.015 A 
ENDBRANCH   8  10
ENDBRANCH   2   5
BRANCH   1  17
HETATM   17  C   UNL     1     -38.326  38.056 -49.095  1.00  0.00     0.184 C 
BRANCH  17  18
HETATM   18  S   UNL     1     -40.140  38.126 -48.991  1.00  0.00    -0.094 SA
BRANCH  18  19
HETATM   19  C   UNL     1     -40.324  38.506 -47.289  1.00  0.00     0.136 A 
HETATM   20  S   UNL     1     -39.892  37.403 -46.055  1.00  0.00    -0.061 SA
HETATM   21  C   UNL     1     -40.389  38.546 -44.866  1.00  0.00     0.036 A 
HETATM   22  C   UNL     1     -40.853  39.696 -45.510  1.00  0.00     0.075 A 
HETATM   23  C   UNL     1     -40.373  38.438 -43.465  1.00  0.00     0.021 A 
HETATM   24  C   UNL     1     -41.309  40.776 -44.727  1.00  0.00     0.033 A 
HETATM   25  N   UNL     1     -40.817  39.655 -46.894  1.00  0.00    -0.233 NA
HETATM   26  C   UNL     1     -41.296  40.677 -43.332  1.00  0.00     0.002 A 
HETATM   27  C   UNL     1     -40.834  39.521 -42.712  1.00  0.00     0.002 A 
ENDBRANCH  18  19
ENDBRANCH  17  18
ENDBRANCH   1  17
TORSDOF 5
ENDMDL
MODEL 10
REMARK VINA RESULT:      -6.8      2.587      3.502
REMARK  5 active torsions:
REMARK  status: ('A' for Active; 'I' for Inactive)
REMARK    1  A    between atoms: C_6  and  S_7 
REMARK    2  A    between atoms: S_7  and  C_8 
REMARK    3  A    between atoms: C_8  and  C_9 
REMARK       I    between atoms: C_9  and  N_10 
REMARK    4  A    between atoms: N_10  and  C_11 
REMARK    5  A    between atoms: C_14  and  C_15 
ROOT
HETATM    1  C   UNL     1     -42.521  59.557 -55.693  1.00  0.00     0.233 C 
HETATM    2  N   UNL     1     -43.216  58.369 -55.618  1.00  0.00    -0.305 N 
HETATM    3  O   UNL     1     -41.428  59.791 -55.183  1.00  0.00    -0.272 OA
HETATM    4  H   UNL     1     -44.151  58.305 -55.993  1.00  0.00     0.171 HD
ENDROOT
BRANCH   2   5
HETATM    5  C   UNL     1     -42.716  57.267 -54.985  1.00  0.00     0.173 A 
HETATM    6  S   UNL     1     -42.368  55.957 -56.019  1.00  0.00    -0.061 SA
HETATM    7  C   UNL     1     -41.807  55.064 -54.660  1.00  0.00     0.085 A 
HETATM    8  C   UNL     1     -41.917  55.829 -53.512  1.00  0.00     0.076 A 
HETATM    9  N   UNL     1     -42.450  57.092 -53.721  1.00  0.00    -0.223 NA
BRANCH   8  10
HETATM   10  C   UNL     1     -41.529  55.403 -52.166  1.00  0.00    -0.007 A 
HETATM   11  C   UNL     1     -41.786  56.175 -51.023  1.00  0.00     0.015 A 
HETATM   12  C   UNL     1     -41.405  55.721 -49.754  1.00  0.00     0.020 A 
HETATM   13  C   UNL     1     -40.764  54.492 -49.618  1.00  0.00     0.011 A 
HETATM   14 BR   UNL     1     -40.256  53.882 -47.903  1.00  0.00    -0.051 Br
HETATM   15  C   UNL     1     -40.501  53.710 -50.737  1.00  0.00     0.020 A 
HETATM   16  C   UNL     1     -40.884  54.165 -52.002  1.00  0.00     0.015 A 
ENDBRANCH   8  10
ENDBRANCH   2   5
BRANCH   1  17
HETATM   17  C   UNL     1     -43.177  60.599 -56.584  1.00  0.00     0.184 C 
BRANCH  17  18
HETATM   18  S   UNL     1     -42.554  60.534 -58.290  1.00  0.00    -0.094 SA
BRANCH  18  19
HETATM   19  C   UNL     1     -43.408  59.114 -58.863  1.00  0.00     0.136 A 
HETATM   20  S   UNL     1     -45.064  59.155 -59.289  1.00  0.00    -0.061 SA
HETATM   21  C   UNL     1     -45.001  57.477 -59.676  1.00  0.00     0.036 A 
HETATM   22  C   UNL     1     -43.705  57.009 -59.447  1.00  0.00     0.075 A 
HETATM   23  C   UNL     1     -46.022  56.633 -60.147  1.00  0.00     0.021 A 
HETATM   24  C   UNL     1     -43.418  55.653 -59.703  1.00  0.00     0.033 A 
HETATM   25  N   UNL     1     -42.809  57.953 -58.976  1.00  0.00    -0.233 NA
HETATM   26  C   UNL     1     -44.427  54.805 -60.172  1.00  0.00     0.002 A 
HETATM   27  C   UNL     1     -45.712  55.292 -60.390  1.00  0.00     0.002 A 
ENDBRANCH  18  19
ENDBRANCH  17  18
ENDBRANCH   1  17
TORSDOF 5
ENDMDL
