MODEL 1
REMARK VINA RESULT:      -7.8      0.000      0.000
REMARK  7 active torsions:
REMARK  status: ('A' for Active; 'I' for Inactive)
REMARK    1  A    between atoms: C_2  and  N_3 
REMARK    2  A    between atoms: C_4  and  C_5 
REMARK       I    between atoms: C_5  and  N_6 
REMARK    3  A    between atoms: N_6  and  C_7 
REMARK    4  A    between atoms: C_7  and  C_8 
REMARK    5  A    between atoms: C_19  and  N_20 
REMARK       I    between atoms: N_20  and  C_21 
REMARK    6  A    between atoms: C_21  and  C_22 
REMARK    7  A    between atoms: C_25  and  O_26 
ROOT
HETATM    1  N   UNL     1     -43.960  61.247 -51.289  1.00  0.00    -0.342 N 
HETATM    2  C   UNL     1     -45.084  60.864 -50.571  1.00  0.00     0.104 A 
HETATM    3  C   UNL     1     -45.046  59.478 -50.507  1.00  0.00     0.049 A 
HETATM    4  C   UNL     1     -43.917  59.014 -51.222  1.00  0.00    -0.005 A 
HETATM    5  C   UNL     1     -43.261  60.132 -51.729  1.00  0.00     0.045 A 
HETATM    6  C   UNL     1     -43.401  57.727 -51.482  1.00  0.00     0.043 A 
HETATM    7  C   UNL     1     -42.245  57.574 -52.251  1.00  0.00     0.035 A 
HETATM    8  C   UNL     1     -41.621  58.711 -52.773  1.00  0.00     0.032 A 
HETATM    9  C   UNL     1     -42.109  60.002 -52.521  1.00  0.00     0.033 A 
ENDROOT
BRANCH   7  10
HETATM   10  N   UNL     1     -41.668  56.318 -52.547  1.00  0.00    -0.323 N 
HETATM   11  C   UNL     1     -41.095  55.439 -51.644  1.00  0.00     0.256 C 
HETATM   12  O   UNL     1     -40.919  55.617 -50.447  1.00  0.00    -0.267 OA
HETATM   13  H   UNL     1     -41.588  56.088 -53.528  1.00  0.00     0.169 HD
BRANCH  11  14
HETATM   14  C   UNL     1     -40.607  54.165 -52.235  1.00  0.00     0.032 A 
HETATM   15  C   UNL     1     -40.171  53.155 -51.372  1.00  0.00     0.020 A 
HETATM   16  C   UNL     1     -39.744  51.931 -51.890  1.00  0.00     0.038 A 
HETATM   17  C   UNL     1     -39.780  51.694 -53.265  1.00  0.00     0.068 A 
HETATM   18  C   UNL     1     -40.210  52.705 -54.129  1.00  0.00     0.038 A 
HETATM   19  C   UNL     1     -40.627  53.939 -53.616  1.00  0.00     0.020 A 
BRANCH  17  20
HETATM   20  O   UNL     1     -39.359  50.450 -53.646  1.00  0.00    -0.356 OA
HETATM   21  C   UNL     1     -40.142  49.802 -54.643  1.00  0.00     0.210 C 
ENDBRANCH  17  20
ENDBRANCH  11  14
ENDBRANCH   7  10
BRANCH   2  22
HETATM   22  C   UNL     1     -46.071  61.764 -49.996  1.00  0.00     0.268 C 
HETATM   23  N   UNL     1     -45.896  61.990 -48.646  1.00  0.00    -0.353 N 
HETATM   24  H   UNL     1     -45.230  61.408 -48.159  1.00  0.00     0.162 HD
HETATM   25  O   UNL     1     -46.982  62.279 -50.637  1.00  0.00    -0.266 OA
BRANCH  23  26
HETATM   26  C   UNL     1     -46.870  62.723 -47.856  1.00  0.00     0.160 C 
BRANCH  26  27
HETATM   27  C   UNL     1     -46.791  62.427 -46.332  1.00  0.00     0.073 C 
HETATM   28  O   UNL     1     -47.647  63.326 -45.601  1.00  0.00    -0.379 OA
HETATM   29  C   UNL     1     -46.869  64.440 -45.137  1.00  0.00     0.169 C 
HETATM   30  C   UNL     1     -45.430  64.202 -45.547  1.00  0.00     0.029 C 
HETATM   31  C   UNL     1     -45.390  62.713 -45.791  1.00  0.00     0.041 C 
HETATM   32  C   UNL     1     -47.228  60.996 -46.023  1.00  0.00     0.047 C 
ENDBRANCH  26  27
ENDBRANCH  23  26
ENDBRANCH   2  22
BRANCH   1  33
HETATM   33  C   UNL     1     -43.569  62.622 -51.569  1.00  0.00     0.125 C 
HETATM   34  C   UNL     1     -42.850  63.274 -50.401  1.00  0.00     0.027 C 
ENDBRANCH   1  33
TORSDOF 7
ENDMDL
MODEL 2
REMARK VINA RESULT:      -7.7      1.681      2.255
REMARK  7 active torsions:
REMARK  status: ('A' for Active; 'I' for Inactive)
REMARK    1  A    between atoms: C_2  and  N_3 
REMARK    2  A    between atoms: C_4  and  C_5 
REMARK       I    between atoms: C_5  and  N_6 
REMARK    3  A    between atoms: N_6  and  C_7 
REMARK    4  A    between atoms: C_7  and  C_8 
REMARK    5  A    between atoms: C_19  and  N_20 
REMARK       I    between atoms: N_20  and  C_21 
REMARK    6  A    between atoms: C_21  and  C_22 
REMARK    7  A    between atoms: C_25  and  O_26 
ROOT
HETATM    1  N   UNL     1     -44.166  60.619 -51.775  1.00  0.00    -0.342 N 
HETATM    2  C   UNL     1     -43.325  61.163 -50.814  1.00  0.00     0.104 A 
HETATM    3  C   UNL     1     -42.375  60.189 -50.540  1.00  0.00     0.049 A 
HETATM    4  C   UNL     1     -42.663  59.035 -51.307  1.00  0.00    -0.005 A 
HETATM    5  C   UNL     1     -43.803  59.310 -52.056  1.00  0.00     0.045 A 
HETATM    6  C   UNL     1     -42.042  57.773 -51.422  1.00  0.00     0.043 A 
HETATM    7  C   UNL     1     -42.575  56.802 -52.274  1.00  0.00     0.035 A 
HETATM    8  C   UNL     1     -43.738  57.092 -52.992  1.00  0.00     0.032 A 
HETATM    9  C   UNL     1     -44.368  58.343 -52.903  1.00  0.00     0.033 A 
ENDROOT
BRANCH   7  10
HETATM   10  N   UNL     1     -42.005  55.520 -52.444  1.00  0.00    -0.323 N 
HETATM   11  C   UNL     1     -41.024  55.166 -53.353  1.00  0.00     0.256 C 
HETATM   12  O   UNL     1     -40.526  55.873 -54.218  1.00  0.00    -0.267 OA
HETATM   13  H   UNL     1     -42.426  54.774 -51.907  1.00  0.00     0.169 HD
BRANCH  11  14
HETATM   14  C   UNL     1     -40.580  53.749 -53.276  1.00  0.00     0.032 A 
HETATM   15  C   UNL     1     -40.244  53.223 -52.024  1.00  0.00     0.020 A 
HETATM   16  C   UNL     1     -39.862  51.886 -51.910  1.00  0.00     0.038 A 
HETATM   17  C   UNL     1     -39.842  51.057 -53.033  1.00  0.00     0.068 A 
HETATM   18  C   UNL     1     -40.171  51.583 -54.285  1.00  0.00     0.038 A 
HETATM   19  C   UNL     1     -40.543  52.927 -54.408  1.00  0.00     0.020 A 
BRANCH  17  20
HETATM   20  O   UNL     1     -39.472  49.763 -52.788  1.00  0.00    -0.356 OA
HETATM   21  C   UNL     1     -39.542  49.339 -51.431  1.00  0.00     0.210 C 
ENDBRANCH  17  20
ENDBRANCH  11  14
ENDBRANCH   7  10
BRANCH   2  22
HETATM   22  C   UNL     1     -43.435  62.497 -50.247  1.00  0.00     0.268 C 
HETATM   23  N   UNL     1     -44.257  62.563 -49.141  1.00  0.00    -0.353 N 
HETATM   24  H   UNL     1     -44.818  61.751 -48.928  1.00  0.00     0.162 HD
HETATM   25  O   UNL     1     -42.860  63.482 -50.700  1.00  0.00    -0.266 OA
BRANCH  23  26
HETATM   26  C   UNL     1     -44.627  63.828 -48.532  1.00  0.00     0.160 C 
BRANCH  26  27
HETATM   27  C   UNL     1     -45.944  63.767 -47.709  1.00  0.00     0.073 C 
HETATM   28  O   UNL     1     -45.916  64.734 -46.642  1.00  0.00    -0.379 OA
HETATM   29  C   UNL     1     -45.467  64.092 -45.439  1.00  0.00     0.169 C 
HETATM   30  C   UNL     1     -45.257  62.623 -45.749  1.00  0.00     0.029 C 
HETATM   31  C   UNL     1     -46.082  62.421 -46.997  1.00  0.00     0.041 C 
HETATM   32  C   UNL     1     -47.159  64.060 -48.587  1.00  0.00     0.047 C 
ENDBRANCH  26  27
ENDBRANCH  23  26
ENDBRANCH   2  22
BRANCH   1  33
HETATM   33  C   UNL     1     -45.292  61.308 -52.393  1.00  0.00     0.125 C 
HETATM   34  C   UNL     1     -46.607  61.021 -51.691  1.00  0.00     0.027 C 
ENDBRANCH   1  33
TORSDOF 7
ENDMDL
MODEL 3
REMARK VINA RESULT:      -7.6      2.282      3.774
REMARK  7 active torsions:
REMARK  status: ('A' for Active; 'I' for Inactive)
REMARK    1  A    between atoms: C_2  and  N_3 
REMARK    2  A    between atoms: C_4  and  C_5 
REMARK       I    between atoms: C_5  and  N_6 
REMARK    3  A    between atoms: N_6  and  C_7 
REMARK    4  A    between atoms: C_7  and  C_8 
REMARK    5  A    between atoms: C_19  and  N_20 
REMARK       I    between atoms: N_20  and  C_21 
REMARK    6  A    between atoms: C_21  and  C_22 
REMARK    7  A    between atoms: C_25  and  O_26 
ROOT
HETATM    1  N   UNL     1     -43.895  61.148 -50.547  1.00  0.00    -0.342 N 
HETATM    2  C   UNL     1     -45.250  60.849 -50.574  1.00  0.00     0.104 A 
HETATM    3  C   UNL     1     -45.341  59.508 -50.919  1.00  0.00     0.049 A 
HETATM    4  C   UNL     1     -44.039  58.999 -51.141  1.00  0.00    -0.005 A 
HETATM    5  C   UNL     1     -43.145  60.045 -50.930  1.00  0.00     0.045 A 
HETATM    6  C   UNL     1     -43.550  57.728 -51.508  1.00  0.00     0.043 A 
HETATM    7  C   UNL     1     -42.177  57.522 -51.669  1.00  0.00     0.035 A 
HETATM    8  C   UNL     1     -41.303  58.596 -51.481  1.00  0.00     0.032 A 
HETATM    9  C   UNL     1     -41.764  59.867 -51.105  1.00  0.00     0.033 A 
ENDROOT
BRANCH   7  10
HETATM   10  N   UNL     1     -41.615  56.277 -52.029  1.00  0.00    -0.323 N 
HETATM   11  C   UNL     1     -41.336  55.220 -51.181  1.00  0.00     0.256 C 
HETATM   12  O   UNL     1     -41.457  55.195 -49.963  1.00  0.00    -0.267 OA
HETATM   13  H   UNL     1     -41.304  56.192 -52.988  1.00  0.00     0.169 HD
BRANCH  11  14
HETATM   14  C   UNL     1     -40.787  54.009 -51.847  1.00  0.00     0.032 A 
HETATM   15  C   UNL     1     -40.886  53.911 -53.238  1.00  0.00     0.020 A 
HETATM   16  C   UNL     1     -40.346  52.807 -53.900  1.00  0.00     0.038 A 
HETATM   17  C   UNL     1     -39.677  51.812 -53.185  1.00  0.00     0.068 A 
HETATM   18  C   UNL     1     -39.582  51.906 -51.794  1.00  0.00     0.038 A 
HETATM   19  C   UNL     1     -40.133  53.004 -51.123  1.00  0.00     0.020 A 
BRANCH  17  20
HETATM   20  O   UNL     1     -39.172  50.796 -53.948  1.00  0.00    -0.356 OA
HETATM   21  C   UNL     1     -40.114  49.835 -54.412  1.00  0.00     0.210 C 
ENDBRANCH  17  20
ENDBRANCH  11  14
ENDBRANCH   7  10
BRANCH   2  22
HETATM   22  C   UNL     1     -46.330  61.776 -50.274  1.00  0.00     0.268 C 
HETATM   23  N   UNL     1     -46.976  62.255 -51.396  1.00  0.00    -0.353 N 
HETATM   24  H   UNL     1     -46.556  62.061 -52.294  1.00  0.00     0.162 HD
HETATM   25  O   UNL     1     -46.646  62.114 -49.138  1.00  0.00    -0.266 OA
BRANCH  23  26
HETATM   26  C   UNL     1     -47.967  63.313 -51.320  1.00  0.00     0.160 C 
BRANCH  26  27
HETATM   27  C   UNL     1     -48.550  63.728 -52.700  1.00  0.00     0.073 C 
HETATM   28  O   UNL     1     -49.775  64.466 -52.527  1.00  0.00    -0.379 OA
HETATM   29  C   UNL     1     -50.885  63.564 -52.647  1.00  0.00     0.169 C 
HETATM   30  C   UNL     1     -50.333  62.190 -52.974  1.00  0.00     0.029 C 
HETATM   31  C   UNL     1     -48.957  62.499 -53.513  1.00  0.00     0.041 C 
HETATM   32  C   UNL     1     -47.568  64.608 -53.472  1.00  0.00     0.047 C 
ENDBRANCH  26  27
ENDBRANCH  23  26
ENDBRANCH   2  22
BRANCH   1  33
HETATM   33  C   UNL     1     -43.326  62.441 -50.191  1.00  0.00     0.125 C 
HETATM   34  C   UNL     1     -43.234  63.384 -51.378  1.00  0.00     0.027 C 
ENDBRANCH   1  33
TORSDOF 7
ENDMDL
MODEL 4
REMARK VINA RESULT:      -7.6     19.713     22.411
REMARK  7 active torsions:
REMARK  status: ('A' for Active; 'I' for Inactive)
REMARK    1  A    between atoms: C_2  and  N_3 
REMARK    2  A    between atoms: C_4  and  C_5 
REMARK       I    between atoms: C_5  and  N_6 
REMARK    3  A    between atoms: N_6  and  C_7 
REMARK    4  A    between atoms: C_7  and  C_8 
REMARK    5  A    between atoms: C_19  and  N_20 
REMARK       I    between atoms: N_20  and  C_21 
REMARK    6  A    between atoms: C_21  and  C_22 
REMARK    7  A    between atoms: C_25  and  O_26 
ROOT
HETATM    1  N   UNL     1     -34.251  40.282 -54.035  1.00  0.00    -0.342 N 
HETATM    2  C   UNL     1     -35.388  41.043 -53.800  1.00  0.00     0.104 A 
HETATM    3  C   UNL     1     -35.350  41.386 -52.455  1.00  0.00     0.049 A 
HETATM    4  C   UNL     1     -34.207  40.799 -51.862  1.00  0.00    -0.005 A 
HETATM    5  C   UNL     1     -33.543  40.088 -52.857  1.00  0.00     0.045 A 
HETATM    6  C   UNL     1     -33.685  40.814 -50.551  1.00  0.00     0.043 A 
HETATM    7  C   UNL     1     -32.514  40.111 -50.252  1.00  0.00     0.035 A 
HETATM    8  C   UNL     1     -31.883  39.381 -51.263  1.00  0.00     0.032 A 
HETATM    9  C   UNL     1     -32.377  39.359 -52.576  1.00  0.00     0.033 A 
ENDROOT
BRANCH   7  10
HETATM   10  N   UNL     1     -31.931  40.086 -48.965  1.00  0.00    -0.323 N 
HETATM   11  C   UNL     1     -31.994  39.050 -48.050  1.00  0.00     0.256 C 
HETATM   12  O   UNL     1     -32.623  38.005 -48.155  1.00  0.00    -0.267 OA
HETATM   13  H   UNL     1     -31.504  40.948 -48.656  1.00  0.00     0.169 HD
BRANCH  11  14
HETATM   14  C   UNL     1     -31.243  39.282 -46.788  1.00  0.00     0.032 A 
HETATM   15  C   UNL     1     -30.316  40.328 -46.747  1.00  0.00     0.020 A 
HETATM   16  C   UNL     1     -29.622  40.599 -45.566  1.00  0.00     0.038 A 
HETATM   17  C   UNL     1     -29.871  39.853 -44.413  1.00  0.00     0.068 A 
HETATM   18  C   UNL     1     -30.793  38.804 -44.454  1.00  0.00     0.038 A 
HETATM   19  C   UNL     1     -31.483  38.519 -45.639  1.00  0.00     0.020 A 
BRANCH  17  20
HETATM   20  O   UNL     1     -29.146  40.231 -43.316  1.00  0.00    -0.356 OA
HETATM   21  C   UNL     1     -27.847  39.663 -43.199  1.00  0.00     0.210 C 
ENDBRANCH  17  20
ENDBRANCH  11  14
ENDBRANCH   7  10
BRANCH   2  22
HETATM   22  C   UNL     1     -36.387  41.407 -54.792  1.00  0.00     0.268 C 
HETATM   23  N   UNL     1     -37.213  40.363 -55.156  1.00  0.00    -0.353 N 
HETATM   24  H   UNL     1     -36.959  39.437 -54.841  1.00  0.00     0.162 HD
HETATM   25  O   UNL     1     -36.495  42.530 -55.274  1.00  0.00    -0.266 OA
BRANCH  23  26
HETATM   26  C   UNL     1     -38.161  40.477 -56.248  1.00  0.00     0.160 C 
BRANCH  26  27
HETATM   27  C   UNL     1     -37.656  39.864 -57.585  1.00  0.00     0.073 C 
HETATM   28  O   UNL     1     -36.228  40.012 -57.697  1.00  0.00    -0.379 OA
HETATM   29  C   UNL     1     -35.938  41.195 -58.459  1.00  0.00     0.169 C 
HETATM   30  C   UNL     1     -37.257  41.795 -58.902  1.00  0.00     0.029 C 
HETATM   31  C   UNL     1     -38.213  40.632 -58.783  1.00  0.00     0.041 C 
HETATM   32  C   UNL     1     -37.990  38.376 -57.672  1.00  0.00     0.047 C 
ENDBRANCH  26  27
ENDBRANCH  23  26
ENDBRANCH   2  22
BRANCH   1  33
HETATM   33  C   UNL     1     -33.858  39.736 -55.327  1.00  0.00     0.125 C 
HETATM   34  C   UNL     1     -32.959  40.678 -56.108  1.00  0.00     0.027 C 
ENDBRANCH   1  33
TORSDOF 7
ENDMDL
MODEL 5
REMARK VINA RESULT:      -7.5     19.594     22.764
REMARK  7 active torsions:
REMARK  status: ('A' for Active; 'I' for Inactive)
REMARK    1  A    between atoms: C_2  and  N_3 
REMARK    2  A    between atoms: C_4  and  C_5 
REMARK       I    between atoms: C_5  and  N_6 
REMARK    3  A    between atoms: N_6  and  C_7 
REMARK    4  A    between atoms: C_7  and  C_8 
REMARK    5  A    between atoms: C_19  and  N_20 
REMARK       I    between atoms: N_20  and  C_21 
REMARK    6  A    between atoms: C_21  and  C_22 
REMARK    7  A    between atoms: C_25  and  O_26 
ROOT
HETATM    1  N   UNL     1     -34.675  39.602 -53.272  1.00  0.00    -0.342 N 
HETATM    2  C   UNL     1     -33.755  40.087 -54.190  1.00  0.00     0.104 A 
HETATM    3  C   UNL     1     -32.608  40.380 -53.467  1.00  0.00     0.049 A 
HETATM    4  C   UNL     1     -32.844  40.110 -52.098  1.00  0.00    -0.005 A 
HETATM    5  C   UNL     1     -34.152  39.649 -51.987  1.00  0.00     0.045 A 
HETATM    6  C   UNL     1     -32.046  40.225 -50.940  1.00  0.00     0.043 A 
HETATM    7  C   UNL     1     -32.569  39.887 -49.689  1.00  0.00     0.035 A 
HETATM    8  C   UNL     1     -33.895  39.454 -49.601  1.00  0.00     0.032 A 
HETATM    9  C   UNL     1     -34.705  39.322 -50.739  1.00  0.00     0.033 A 
ENDROOT
BRANCH   7  10
HETATM   10  N   UNL     1     -31.828  39.970 -48.488  1.00  0.00    -0.323 N 
HETATM   11  C   UNL     1     -31.329  38.912 -47.750  1.00  0.00     0.256 C 
HETATM   12  O   UNL     1     -31.498  37.718 -47.959  1.00  0.00    -0.267 OA
HETATM   13  H   UNL     1     -31.736  40.894 -48.089  1.00  0.00     0.169 HD
BRANCH  11  14
HETATM   14  C   UNL     1     -30.543  39.301 -46.549  1.00  0.00     0.032 A 
HETATM   15  C   UNL     1     -30.362  40.661 -46.283  1.00  0.00     0.020 A 
HETATM   16  C   UNL     1     -29.664  41.062 -45.143  1.00  0.00     0.038 A 
HETATM   17  C   UNL     1     -29.172  40.113 -44.245  1.00  0.00     0.068 A 
HETATM   18  C   UNL     1     -29.347  38.753 -44.513  1.00  0.00     0.038 A 
HETATM   19  C   UNL     1     -30.035  38.344 -45.662  1.00  0.00     0.020 A 
BRANCH  17  20
HETATM   20  O   UNL     1     -28.527  40.631 -43.156  1.00  0.00    -0.356 OA
HETATM   21  C   UNL     1     -27.437  39.867 -42.652  1.00  0.00     0.210 C 
ENDBRANCH  17  20
ENDBRANCH  11  14
ENDBRANCH   7  10
BRANCH   2  22
HETATM   22  C   UNL     1     -33.977  40.226 -55.621  1.00  0.00     0.268 C 
HETATM   23  N   UNL     1     -34.652  41.379 -55.968  1.00  0.00    -0.353 N 
HETATM   24  H   UNL     1     -35.063  41.920 -55.221  1.00  0.00     0.162 HD
HETATM   25  O   UNL     1     -33.608  39.404 -56.453  1.00  0.00    -0.266 OA
BRANCH  23  26
HETATM   26  C   UNL     1     -35.115  41.621 -57.322  1.00  0.00     0.160 C 
BRANCH  26  27
HETATM   27  C   UNL     1     -36.661  41.573 -57.475  1.00  0.00     0.073 C 
HETATM   28  O   UNL     1     -37.118  40.208 -57.534  1.00  0.00    -0.379 OA
HETATM   29  C   UNL     1     -37.254  39.818 -58.909  1.00  0.00     0.169 C 
HETATM   30  C   UNL     1     -36.921  41.022 -59.767  1.00  0.00     0.029 C 
HETATM   31  C   UNL     1     -37.097  42.177 -58.810  1.00  0.00     0.041 C 
HETATM   32  C   UNL     1     -37.354  42.259 -56.300  1.00  0.00     0.047 C 
ENDBRANCH  26  27
ENDBRANCH  23  26
ENDBRANCH   2  22
BRANCH   1  33
HETATM   33  C   UNL     1     -36.016  39.130 -53.593  1.00  0.00     0.125 C 
HETATM   34  C   UNL     1     -37.080  40.185 -53.349  1.00  0.00     0.027 C 
ENDBRANCH   1  33
TORSDOF 7
ENDMDL
MODEL 6
REMARK VINA RESULT:      -7.4      4.284     11.046
REMARK  7 active torsions:
REMARK  status: ('A' for Active; 'I' for Inactive)
REMARK    1  A    between atoms: C_2  and  N_3 
REMARK    2  A    between atoms: C_4  and  C_5 
REMARK       I    between atoms: C_5  and  N_6 
REMARK    3  A    between atoms: N_6  and  C_7 
REMARK    4  A    between atoms: C_7  and  C_8 
REMARK    5  A    between atoms: C_19  and  N_20 
REMARK       I    between atoms: N_20  and  C_21 
REMARK    6  A    between atoms: C_21  and  C_22 
REMARK    7  A    between atoms: C_25  and  O_26 
ROOT
HETATM    1  N   UNL     1     -41.937  56.178 -53.986  1.00  0.00    -0.342 N 
HETATM    2  C   UNL     1     -43.080  56.029 -54.758  1.00  0.00     0.104 A 
HETATM    3  C   UNL     1     -44.020  56.901 -54.225  1.00  0.00     0.049 A 
HETATM    4  C   UNL     1     -43.458  57.553 -53.101  1.00  0.00    -0.005 A 
HETATM    5  C   UNL     1     -42.162  57.070 -52.948  1.00  0.00     0.045 A 
HETATM    6  C   UNL     1     -43.954  58.518 -52.198  1.00  0.00     0.043 A 
HETATM    7  C   UNL     1     -43.152  58.977 -51.151  1.00  0.00     0.035 A 
HETATM    8  C   UNL     1     -41.864  58.455 -51.001  1.00  0.00     0.032 A 
HETATM    9  C   UNL     1     -41.345  57.503 -51.892  1.00  0.00     0.033 A 
ENDROOT
BRANCH   7  10
HETATM   10  N   UNL     1     -43.578  59.945 -50.213  1.00  0.00    -0.323 N 
HETATM   11  C   UNL     1     -43.665  61.311 -50.416  1.00  0.00     0.256 C 
HETATM   12  O   UNL     1     -43.324  61.935 -51.412  1.00  0.00    -0.267 OA
HETATM   13  H   UNL     1     -43.746  59.607 -49.274  1.00  0.00     0.169 HD
BRANCH  11  14
HETATM   14  C   UNL     1     -44.193  62.084 -49.261  1.00  0.00     0.032 A 
HETATM   15  C   UNL     1     -44.796  61.385 -48.211  1.00  0.00     0.020 A 
HETATM   16  C   UNL     1     -45.266  62.076 -47.093  1.00  0.00     0.038 A 
HETATM   17  C   UNL     1     -45.110  63.460 -46.999  1.00  0.00     0.068 A 
HETATM   18  C   UNL     1     -44.512  64.160 -48.051  1.00  0.00     0.038 A 
HETATM   19  C   UNL     1     -44.050  63.474 -49.180  1.00  0.00     0.020 A 
BRANCH  17  20
HETATM   20  O   UNL     1     -45.590  64.017 -45.846  1.00  0.00    -0.356 OA
HETATM   21  C   UNL     1     -46.937  63.700 -45.512  1.00  0.00     0.210 C 
ENDBRANCH  17  20
ENDBRANCH  11  14
ENDBRANCH   7  10
BRANCH   2  22
HETATM   22  C   UNL     1     -43.223  55.143 -55.902  1.00  0.00     0.268 C 
HETATM   23  N   UNL     1     -43.300  55.806 -57.110  1.00  0.00    -0.353 N 
HETATM   24  H   UNL     1     -43.413  56.809 -57.085  1.00  0.00     0.162 HD
HETATM   25  O   UNL     1     -43.276  53.920 -55.817  1.00  0.00    -0.266 OA
BRANCH  23  26
HETATM   26  C   UNL     1     -43.610  55.114 -58.349  1.00  0.00     0.160 C 
BRANCH  26  27
HETATM   27  C   UNL     1     -43.772  56.059 -59.572  1.00  0.00     0.073 C 
HETATM   28  O   UNL     1     -44.626  57.171 -59.238  1.00  0.00    -0.379 OA
HETATM   29  C   UNL     1     -45.968  56.870 -59.652  1.00  0.00     0.169 C 
HETATM   30  C   UNL     1     -45.950  55.519 -60.338  1.00  0.00     0.029 C 
HETATM   31  C   UNL     1     -44.498  55.353 -60.716  1.00  0.00     0.041 C 
HETATM   32  C   UNL     1     -42.422  56.614 -60.025  1.00  0.00     0.047 C 
ENDBRANCH  26  27
ENDBRANCH  23  26
ENDBRANCH   2  22
BRANCH   1  33
HETATM   33  C   UNL     1     -40.676  55.482 -54.209  1.00  0.00     0.125 C 
HETATM   34  C   UNL     1     -40.610  54.150 -53.485  1.00  0.00     0.027 C 
ENDBRANCH   1  33
TORSDOF 7
ENDMDL
MODEL 7
REMARK VINA RESULT:      -7.4      3.376      4.624
REMARK  7 active torsions:
REMARK  status: ('A' for Active; 'I' for Inactive)
REMARK    1  A    between atoms: C_2  and  N_3 
REMARK    2  A    between atoms: C_4  and  C_5 
REMARK       I    between atoms: C_5  and  N_6 
REMARK    3  A    between atoms: N_6  and  C_7 
REMARK    4  A    between atoms: C_7  and  C_8 
REMARK    5  A    between atoms: C_19  and  N_20 
REMARK       I    between atoms: N_20  and  C_21 
REMARK    6  A    between atoms: C_21  and  C_22 
REMARK    7  A    between atoms: C_25  and  O_26 
ROOT
HETATM    1  N   UNL     1     -45.090  60.952 -53.414  1.00  0.00    -0.342 N 
HETATM    2  C   UNL     1     -46.065  60.771 -52.443  1.00  0.00     0.104 A 
HETATM    3  C   UNL     1     -45.860  59.500 -51.925  1.00  0.00     0.049 A 
HETATM    4  C   UNL     1     -44.783  58.891 -52.611  1.00  0.00    -0.005 A 
HETATM    5  C   UNL     1     -44.327  59.802 -53.559  1.00  0.00     0.045 A 
HETATM    6  C   UNL     1     -44.158  57.630 -52.501  1.00  0.00     0.043 A 
HETATM    7  C   UNL     1     -43.096  57.295 -53.346  1.00  0.00     0.035 A 
HETATM    8  C   UNL     1     -42.677  58.217 -54.309  1.00  0.00     0.032 A 
HETATM    9  C   UNL     1     -43.275  59.481 -54.431  1.00  0.00     0.033 A 
ENDROOT
BRANCH   7  10
HETATM   10  N   UNL     1     -42.419  56.056 -53.290  1.00  0.00    -0.323 N 
HETATM   11  C   UNL     1     -41.502  55.658 -52.333  1.00  0.00     0.256 C 
HETATM   12  O   UNL     1     -41.057  56.326 -51.410  1.00  0.00    -0.267 OA
HETATM   13  H   UNL     1     -42.556  55.441 -54.081  1.00  0.00     0.169 HD
BRANCH  11  14
HETATM   14  C   UNL     1     -40.983  54.275 -52.500  1.00  0.00     0.032 A 
HETATM   15  C   UNL     1     -41.081  53.674 -53.759  1.00  0.00     0.020 A 
HETATM   16  C   UNL     1     -40.567  52.392 -53.961  1.00  0.00     0.038 A 
HETATM   17  C   UNL     1     -39.926  51.715 -52.922  1.00  0.00     0.068 A 
HETATM   18  C   UNL     1     -39.833  52.312 -51.662  1.00  0.00     0.038 A 
HETATM   19  C   UNL     1     -40.357  53.592 -51.450  1.00  0.00     0.020 A 
BRANCH  17  20
HETATM   20  O   UNL     1     -39.446  50.477 -53.252  1.00  0.00    -0.356 OA
HETATM   21  C   UNL     1     -39.822  49.980 -54.531  1.00  0.00     0.210 C 
ENDBRANCH  17  20
ENDBRANCH  11  14
ENDBRANCH   7  10
BRANCH   2  22
HETATM   22  C   UNL     1     -47.070  61.748 -52.057  1.00  0.00     0.268 C 
HETATM   23  N   UNL     1     -48.195  61.731 -52.856  1.00  0.00    -0.353 N 
HETATM   24  H   UNL     1     -48.157  61.183 -53.703  1.00  0.00     0.162 HD
HETATM   25  O   UNL     1     -46.944  62.524 -51.115  1.00  0.00    -0.266 OA
BRANCH  23  26
HETATM   26  C   UNL     1     -49.237  62.736 -52.739  1.00  0.00     0.160 C 
BRANCH  26  27
HETATM   27  C   UNL     1     -50.400  62.555 -53.754  1.00  0.00     0.073 C 
HETATM   28  O   UNL     1     -51.184  63.761 -53.842  1.00  0.00    -0.379 OA
HETATM   29  C   UNL     1     -52.312  63.650 -52.962  1.00  0.00     0.169 C 
HETATM   30  C   UNL     1     -52.273  62.274 -52.327  1.00  0.00     0.029 C 
HETATM   31  C   UNL     1     -51.388  61.494 -53.270  1.00  0.00     0.041 C 
HETATM   32  C   UNL     1     -49.870  62.228 -55.150  1.00  0.00     0.047 C 
ENDBRANCH  26  27
ENDBRANCH  23  26
ENDBRANCH   2  22
BRANCH   1  33
HETATM   33  C   UNL     1     -44.898  62.167 -54.197  1.00  0.00     0.125 C 
HETATM   34  C   UNL     1     -45.689  62.156 -55.493  1.00  0.00     0.027 C 
ENDBRANCH   1  33
TORSDOF 7
ENDMDL
MODEL 8
REMARK VINA RESULT:      -7.3      7.036      9.730
REMARK  7 active torsions:
REMARK  status: ('A' for Active; 'I' for Inactive)
REMARK    1  A    between atoms: C_2  and  N_3 
REMARK    2  A    between atoms: C_4  and  C_5 
REMARK       I    between atoms: C_5  and  N_6 
REMARK    3  A    between atoms: N_6  and  C_7 
REMARK    4  A    between atoms: C_7  and  C_8 
REMARK    5  A    between atoms: C_19  and  N_20 
REMARK       I    between atoms: N_20  and  C_21 
REMARK    6  A    between atoms: C_21  and  C_22 
REMARK    7  A    between atoms: C_25  and  O_26 
ROOT
HETATM    1  N   UNL     1     -43.247  57.517 -59.225  1.00  0.00    -0.342 N 
HETATM    2  C   UNL     1     -42.853  58.833 -59.030  1.00  0.00     0.104 A 
HETATM    3  C   UNL     1     -42.319  58.889 -57.750  1.00  0.00     0.049 A 
HETATM    4  C   UNL     1     -42.424  57.611 -57.150  1.00  0.00    -0.005 A 
HETATM    5  C   UNL     1     -43.032  56.768 -58.076  1.00  0.00     0.045 A 
HETATM    6  C   UNL     1     -42.051  57.104 -55.887  1.00  0.00     0.043 A 
HETATM    7  C   UNL     1     -42.300  55.767 -55.564  1.00  0.00     0.035 A 
HETATM    8  C   UNL     1     -42.939  54.950 -56.501  1.00  0.00     0.032 A 
HETATM    9  C   UNL     1     -43.310  55.428 -57.767  1.00  0.00     0.033 A 
ENDROOT
BRANCH   7  10
HETATM   10  N   UNL     1     -41.950  55.189 -54.323  1.00  0.00    -0.323 N 
HETATM   11  C   UNL     1     -40.856  54.382 -54.067  1.00  0.00     0.256 C 
HETATM   12  O   UNL     1     -40.038  53.965 -54.876  1.00  0.00    -0.267 OA
HETATM   13  H   UNL     1     -42.620  55.308 -53.575  1.00  0.00     0.169 HD
BRANCH  11  14
HETATM   14  C   UNL     1     -40.711  53.953 -52.651  1.00  0.00     0.032 A 
HETATM   15  C   UNL     1     -41.262  54.760 -51.651  1.00  0.00     0.020 A 
HETATM   16  C   UNL     1     -41.179  54.368 -50.314  1.00  0.00     0.038 A 
HETATM   17  C   UNL     1     -40.577  53.156 -49.969  1.00  0.00     0.068 A 
HETATM   18  C   UNL     1     -40.021  52.352 -50.967  1.00  0.00     0.038 A 
HETATM   19  C   UNL     1     -40.089  52.746 -52.308  1.00  0.00     0.020 A 
BRANCH  17  20
HETATM   20  O   UNL     1     -40.580  52.873 -48.630  1.00  0.00    -0.356 OA
HETATM   21  C   UNL     1     -40.260  53.954 -47.762  1.00  0.00     0.210 C 
ENDBRANCH  17  20
ENDBRANCH  11  14
ENDBRANCH   7  10
BRANCH   2  22
HETATM   22  C   UNL     1     -42.972  59.908 -60.002  1.00  0.00     0.268 C 
HETATM   23  N   UNL     1     -41.766  60.297 -60.549  1.00  0.00    -0.353 N 
HETATM   24  H   UNL     1     -40.924  59.934 -60.125  1.00  0.00     0.162 HD
HETATM   25  O   UNL     1     -44.036  60.432 -60.314  1.00  0.00    -0.266 OA
BRANCH  23  26
HETATM   26  C   UNL     1     -41.652  61.460 -61.410  1.00  0.00     0.160 C 
BRANCH  26  27
HETATM   27  C   UNL     1     -41.062  62.711 -60.700  1.00  0.00     0.073 C 
HETATM   28  O   UNL     1     -42.116  63.612 -60.312  1.00  0.00    -0.379 OA
HETATM   29  C   UNL     1     -42.273  64.614 -61.328  1.00  0.00     0.169 C 
HETATM   30  C   UNL     1     -41.220  64.367 -62.390  1.00  0.00     0.029 C 
HETATM   31  C   UNL     1     -40.198  63.528 -61.661  1.00  0.00     0.041 C 
HETATM   32  C   UNL     1     -40.283  62.319 -59.446  1.00  0.00     0.047 C 
ENDBRANCH  26  27
ENDBRANCH  23  26
ENDBRANCH   2  22
BRANCH   1  33
HETATM   33  C   UNL     1     -43.829  56.986 -60.451  1.00  0.00     0.125 C 
HETATM   34  C   UNL     1     -45.345  56.910 -60.391  1.00  0.00     0.027 C 
ENDBRANCH   1  33
TORSDOF 7
ENDMDL
MODEL 9
REMARK VINA RESULT:      -7.2      3.427      4.585
REMARK  7 active torsions:
REMARK  status: ('A' for Active; 'I' for Inactive)
REMARK    1  A    between atoms: C_2  and  N_3 
REMARK    2  A    between atoms: C_4  and  C_5 
REMARK       I    between atoms: C_5  and  N_6 
REMARK    3  A    between atoms: N_6  and  C_7 
REMARK    4  A    between atoms: C_7  and  C_8 
REMARK    5  A    between atoms: C_19  and  N_20 
REMARK       I    between atoms: N_20  and  C_21 
REMARK    6  A    between atoms: C_21  and  C_22 
REMARK    7  A    between atoms: C_25  and  O_26 
ROOT
HETATM    1  N   UNL     1     -43.977  60.822 -53.239  1.00  0.00    -0.342 N 
HETATM    2  C   UNL     1     -45.028  60.640 -54.127  1.00  0.00     0.104 A 
HETATM    3  C   UNL     1     -45.022  59.292 -54.458  1.00  0.00     0.049 A 
HETATM    4  C   UNL     1     -43.940  58.660 -53.800  1.00  0.00    -0.005 A 
HETATM    5  C   UNL     1     -43.278  59.636 -53.061  1.00  0.00     0.045 A 
HETATM    6  C   UNL     1     -43.469  57.330 -53.776  1.00  0.00     0.043 A 
HETATM    7  C   UNL     1     -42.339  56.998 -53.025  1.00  0.00     0.035 A 
HETATM    8  C   UNL     1     -41.675  58.002 -52.315  1.00  0.00     0.032 A 
HETATM    9  C   UNL     1     -42.130  59.330 -52.314  1.00  0.00     0.033 A 
ENDROOT
BRANCH   7  10
HETATM   10  N   UNL     1     -41.814  55.688 -52.949  1.00  0.00    -0.323 N 
HETATM   11  C   UNL     1     -40.877  55.123 -53.797  1.00  0.00     0.256 C 
HETATM   12  O   UNL     1     -40.390  55.624 -54.801  1.00  0.00    -0.267 OA
HETATM   13  H   UNL     1     -42.237  55.081 -52.260  1.00  0.00     0.169 HD
BRANCH  11  14
HETATM   14  C   UNL     1     -40.472  53.735 -53.448  1.00  0.00     0.032 A 
HETATM   15  C   UNL     1     -40.282  53.416 -52.100  1.00  0.00     0.020 A 
HETATM   16  C   UNL     1     -39.941  52.112 -51.734  1.00  0.00     0.038 A 
HETATM   17  C   UNL     1     -39.819  51.115 -52.703  1.00  0.00     0.068 A 
HETATM   18  C   UNL     1     -40.002  51.435 -54.051  1.00  0.00     0.038 A 
HETATM   19  C   UNL     1     -40.332  52.743 -54.426  1.00  0.00     0.020 A 
BRANCH  17  20
HETATM   20  O   UNL     1     -39.504  49.876 -52.217  1.00  0.00    -0.356 OA
HETATM   21  C   UNL     1     -39.533  49.733 -50.802  1.00  0.00     0.210 C 
ENDBRANCH  17  20
ENDBRANCH  11  14
ENDBRANCH   7  10
BRANCH   2  22
HETATM   22  C   UNL     1     -45.944  61.674 -54.581  1.00  0.00     0.268 C 
HETATM   23  N   UNL     1     -47.133  61.707 -53.882  1.00  0.00    -0.353 N 
HETATM   24  H   UNL     1     -47.326  60.939 -53.255  1.00  0.00     0.162 HD
HETATM   25  O   UNL     1     -45.700  62.448 -55.501  1.00  0.00    -0.266 OA
BRANCH  23  26
HETATM   26  C   UNL     1     -48.242  62.552 -54.288  1.00  0.00     0.160 C 
BRANCH  26  27
HETATM   27  C   UNL     1     -49.249  62.858 -53.145  1.00  0.00     0.073 C 
HETATM   28  O   UNL     1     -50.090  61.716 -52.896  1.00  0.00    -0.379 OA
HETATM   29  C   UNL     1     -51.314  61.867 -53.631  1.00  0.00     0.169 C 
HETATM   30  C   UNL     1     -51.269  63.207 -54.337  1.00  0.00     0.029 C 
HETATM   31  C   UNL     1     -50.222  63.964 -53.555  1.00  0.00     0.041 C 
HETATM   32  C   UNL     1     -48.523  63.208 -51.847  1.00  0.00     0.047 C 
ENDBRANCH  26  27
ENDBRANCH  23  26
ENDBRANCH   2  22
BRANCH   1  33
HETATM   33  C   UNL     1     -43.629  62.082 -52.595  1.00  0.00     0.125 C 
HETATM   34  C   UNL     1     -44.311  62.257 -51.249  1.00  0.00     0.027 C 
ENDBRANCH   1  33
TORSDOF 7
ENDMDL
MODEL 10
REMARK VINA RESULT:      -7.2      6.421      7.591
REMARK  7 active torsions:
REMARK  status: ('A' for Active; 'I' for Inactive)
REMARK    1  A    between atoms: C_2  and  N_3 
REMARK    2  A    between atoms: C_4  and  C_5 
REMARK       I    between atoms: C_5  and  N_6 
REMARK    3  A    between atoms: N_6  and  C_7 
REMARK    4  A    between atoms: C_7  and  C_8 
REMARK    5  A    between atoms: C_19  and  N_20 
REMARK       I    between atoms: N_20  and  C_21 
REMARK    6  A    between atoms: C_21  and  C_22 
REMARK    7  A    between atoms: C_25  and  O_26 
ROOT
HETATM    1  N   UNL     1     -44.795  58.789 -57.958  1.00  0.00    -0.342 N 
HETATM    2  C   UNL     1     -45.289  59.564 -56.919  1.00  0.00     0.104 A 
HETATM    3  C   UNL     1     -44.893  58.933 -55.748  1.00  0.00     0.049 A 
HETATM    4  C   UNL     1     -44.190  57.750 -56.076  1.00  0.00    -0.005 A 
HETATM    5  C   UNL     1     -44.160  57.658 -57.464  1.00  0.00     0.045 A 
HETATM    6  C   UNL     1     -43.577  56.744 -55.298  1.00  0.00     0.043 A 
HETATM    7  C   UNL     1     -42.952  55.659 -55.918  1.00  0.00     0.035 A 
HETATM    8  C   UNL     1     -42.962  55.575 -57.313  1.00  0.00     0.032 A 
HETATM    9  C   UNL     1     -43.555  56.567 -58.108  1.00  0.00     0.033 A 
ENDROOT
BRANCH   7  10
HETATM   10  N   UNL     1     -42.314  54.619 -55.205  1.00  0.00    -0.323 N 
HETATM   11  C   UNL     1     -41.038  54.646 -54.670  1.00  0.00     0.256 C 
HETATM   12  O   UNL     1     -40.209  55.539 -54.777  1.00  0.00    -0.267 OA
HETATM   13  H   UNL     1     -42.811  53.739 -55.166  1.00  0.00     0.169 HD
BRANCH  11  14
HETATM   14  C   UNL     1     -40.644  53.419 -53.928  1.00  0.00     0.032 A 
HETATM   15  C   UNL     1     -40.447  52.238 -54.649  1.00  0.00     0.020 A 
HETATM   16  C   UNL     1     -40.037  51.078 -53.989  1.00  0.00     0.038 A 
HETATM   17  C   UNL     1     -39.791  51.096 -52.615  1.00  0.00     0.068 A 
HETATM   18  C   UNL     1     -39.993  52.275 -51.893  1.00  0.00     0.038 A 
HETATM   19  C   UNL     1     -40.416  53.438 -52.547  1.00  0.00     0.020 A 
BRANCH  17  20
HETATM   20  O   UNL     1     -39.372  49.904 -52.090  1.00  0.00    -0.356 OA
HETATM   21  C   UNL     1     -39.504  49.761 -50.681  1.00  0.00     0.210 C 
ENDBRANCH  17  20
ENDBRANCH  11  14
ENDBRANCH   7  10
BRANCH   2  22
HETATM   22  C   UNL     1     -46.048  60.796 -57.065  1.00  0.00     0.268 C 
HETATM   23  N   UNL     1     -47.409  60.631 -56.905  1.00  0.00    -0.353 N 
HETATM   24  H   UNL     1     -47.762  59.685 -56.867  1.00  0.00     0.162 HD
HETATM   25  O   UNL     1     -45.541  61.885 -57.311  1.00  0.00    -0.266 OA
BRANCH  23  26
HETATM   26  C   UNL     1     -48.350  61.702 -57.174  1.00  0.00     0.160 C 
BRANCH  26  27
HETATM   27  C   UNL     1     -49.562  61.268 -58.046  1.00  0.00     0.073 C 
HETATM   28  O   UNL     1     -50.414  62.397 -58.320  1.00  0.00    -0.379 OA
HETATM   29  C   UNL     1     -51.479  62.424 -57.358  1.00  0.00     0.169 C 
HETATM   30  C   UNL     1     -51.325  61.211 -56.462  1.00  0.00     0.029 C 
HETATM   31  C   UNL     1     -50.459  60.290 -57.287  1.00  0.00     0.041 C 
HETATM   32  C   UNL     1     -49.101  60.682 -59.380  1.00  0.00     0.047 C 
ENDBRANCH  26  27
ENDBRANCH  23  26
ENDBRANCH   2  22
BRANCH   1  33
HETATM   33  C   UNL     1     -44.937  59.094 -59.376  1.00  0.00     0.125 C 
HETATM   34  C   UNL     1     -46.170  58.454 -59.989  1.00  0.00     0.027 C 
ENDBRANCH   1  33
TORSDOF 7
ENDMDL
