MODEL 1
REMARK VINA RESULT:      -8.7      0.000      0.000
REMARK  4 active torsions:
REMARK  status: ('A' for Active; 'I' for Inactive)
REMARK    1  A    between atoms: C_2  and  O_3 
REMARK    2  A    between atoms: O_3  and  C_4 
REMARK    3  A    between atoms: C_9  and  N_10 
REMARK       I    between atoms: N_10  and  C_11 
REMARK       I    between atoms: C_11  and  N_12 
REMARK       I    between atoms: N_12  and  C_13 
REMARK    4  A    between atoms: C_13  and  C_14 
ROOT
HETATM    1  N   UNL     1     -43.884  56.125 -55.350  1.00  0.00    -0.019 N 
HETATM    2  C   UNL     1     -43.516  56.500 -56.635  1.00  0.00     0.693 C 
HETATM    3  N   UNL     1     -44.469  56.897 -57.529  1.00  0.00    -0.155 N 
HETATM    4  C   UNL     1     -44.214  57.240 -58.888  1.00  0.00     0.269 C 
HETATM    5  O   UNL     1     -43.067  57.405 -59.275  1.00  0.00    -0.267 OA
HETATM    6  N   UNL     1     -42.220  56.427 -57.015  1.00  0.00    -0.234 N 
HETATM    7  H   UNL     1     -41.540  56.037 -56.359  1.00  0.00     0.174 HD
HETATM    8  H   UNL     1     -41.916  56.726 -57.941  1.00  0.00     0.174 HD
HETATM    9  H   UNL     1     -44.839  56.214 -55.043  1.00  0.00     0.203 HD
HETATM   10  H   UNL     1     -45.424  56.917 -57.207  1.00  0.00     0.187 HD
ENDROOT
BRANCH   1  11
HETATM   11  C   UNL     1     -43.150  55.371 -54.451  1.00  0.00     0.742 A 
HETATM   12  N   UNL     1     -42.622  54.240 -54.917  1.00  0.00    -0.062 NA
HETATM   13  C   UNL     1     -41.799  53.555 -54.110  1.00  0.00     0.088 A 
HETATM   14  C   UNL     1     -41.467  53.993 -52.822  1.00  0.00     0.021 A 
HETATM   15  C   UNL     1     -41.228  52.374 -54.570  1.00  0.00     0.036 A 
HETATM   16  C   UNL     1     -40.541  53.255 -52.047  1.00  0.00     0.052 A 
HETATM   17  C   UNL     1     -42.097  55.173 -52.417  1.00  0.00     0.062 A 
HETATM   18  C   UNL     1     -39.943  52.100 -52.546  1.00  0.00     0.069 A 
HETATM   19  C   UNL     1     -40.310  51.643 -53.804  1.00  0.00     0.039 A 
HETATM   20  N   UNL     1     -42.945  55.859 -53.221  1.00  0.00    -0.066 NA
HETATM   21  C   UNL     1     -41.843  55.783 -51.067  1.00  0.00     0.072 C 
BRANCH  18  22
HETATM   22  O   UNL     1     -39.033  51.519 -51.713  1.00  0.00    -0.351 OA
BRANCH  22  23
HETATM   23  C   UNL     1     -39.294  50.172 -51.313  1.00  0.00     0.171 C 
HETATM   24  C   UNL     1     -40.260  50.212 -50.142  1.00  0.00     0.034 C 
ENDBRANCH  22  23
ENDBRANCH  18  22
ENDBRANCH   1  11
BRANCH   4  25
HETATM   25  C   UNL     1     -45.378  57.333 -59.798  1.00  0.00     0.032 A 
HETATM   26  C   UNL     1     -45.967  58.566 -60.106  1.00  0.00     0.017 A 
HETATM   27  C   UNL     1     -47.120  58.605 -60.897  1.00  0.00     0.007 A 
HETATM   28  C   UNL     1     -47.692  57.424 -61.382  1.00  0.00    -0.062 A 
HETATM   29  C   UNL     1     -48.959  57.456 -62.190  1.00  0.00     0.048 C 
HETATM   30  C   UNL     1     -47.098  56.196 -61.068  1.00  0.00     0.007 A 
HETATM   31  C   UNL     1     -45.949  56.148 -60.277  1.00  0.00     0.017 A 
ENDBRANCH   4  25
TORSDOF 4
ENDMDL
MODEL 2
REMARK VINA RESULT:      -8.6      5.186      8.460
REMARK  4 active torsions:
REMARK  status: ('A' for Active; 'I' for Inactive)
REMARK    1  A    between atoms: C_2  and  O_3 
REMARK    2  A    between atoms: O_3  and  C_4 
REMARK    3  A    between atoms: C_9  and  N_10 
REMARK       I    between atoms: N_10  and  C_11 
REMARK       I    between atoms: C_11  and  N_12 
REMARK       I    between atoms: N_12  and  C_13 
REMARK    4  A    between atoms: C_13  and  C_14 
ROOT
HETATM    1  N   UNL     1     -42.616  58.415 -51.837  1.00  0.00    -0.019 N 
HETATM    2  C   UNL     1     -43.778  58.567 -51.093  1.00  0.00     0.693 C 
HETATM    3  N   UNL     1     -44.055  59.765 -50.498  1.00  0.00    -0.155 N 
HETATM    4  C   UNL     1     -45.180  60.015 -49.661  1.00  0.00     0.269 C 
HETATM    5  O   UNL     1     -46.095  59.206 -49.604  1.00  0.00    -0.267 OA
HETATM    6  N   UNL     1     -44.612  57.516 -50.918  1.00  0.00    -0.234 N 
HETATM    7  H   UNL     1     -44.335  56.607 -51.292  1.00  0.00     0.174 HD
HETATM    8  H   UNL     1     -45.487  57.607 -50.403  1.00  0.00     0.174 HD
HETATM    9  H   UNL     1     -42.009  59.200 -52.008  1.00  0.00     0.203 HD
HETATM   10  H   UNL     1     -43.395  60.514 -50.640  1.00  0.00     0.187 HD
ENDROOT
BRANCH   1  11
HETATM   11  C   UNL     1     -41.995  57.230 -52.193  1.00  0.00     0.742 A 
HETATM   12  N   UNL     1     -41.589  56.449 -51.194  1.00  0.00    -0.062 NA
HETATM   13  C   UNL     1     -41.103  55.238 -51.504  1.00  0.00     0.088 A 
HETATM   14  C   UNL     1     -41.029  54.769 -52.821  1.00  0.00     0.021 A 
HETATM   15  C   UNL     1     -40.676  54.398 -50.482  1.00  0.00     0.036 A 
HETATM   16  C   UNL     1     -40.565  53.456 -53.074  1.00  0.00     0.052 A 
HETATM   17  C   UNL     1     -41.451  55.676 -53.797  1.00  0.00     0.062 A 
HETATM   18  C   UNL     1     -40.189  52.613 -52.031  1.00  0.00     0.069 A 
HETATM   19  C   UNL     1     -40.218  53.097 -50.730  1.00  0.00     0.039 A 
HETATM   20  N   UNL     1     -41.924  56.908 -53.491  1.00  0.00    -0.066 NA
HETATM   21  C   UNL     1     -41.444  55.326 -55.259  1.00  0.00     0.072 C 
BRANCH  18  22
HETATM   22  O   UNL     1     -39.811  51.359 -52.414  1.00  0.00    -0.351 OA
BRANCH  22  23
HETATM   23  C   UNL     1     -39.362  51.205 -53.761  1.00  0.00     0.171 C 
HETATM   24  C   UNL     1     -39.994  49.943 -54.321  1.00  0.00     0.034 C 
ENDBRANCH  22  23
ENDBRANCH  18  22
ENDBRANCH   1  11
BRANCH   4  25
HETATM   25  C   UNL     1     -45.163  61.249 -48.844  1.00  0.00     0.032 A 
HETATM   26  C   UNL     1     -44.887  62.499 -49.415  1.00  0.00     0.017 A 
HETATM   27  C   UNL     1     -44.790  63.629 -48.597  1.00  0.00     0.007 A 
HETATM   28  C   UNL     1     -44.964  63.523 -47.213  1.00  0.00    -0.062 A 
HETATM   29  C   UNL     1     -44.811  64.724 -46.323  1.00  0.00     0.048 C 
HETATM   30  C   UNL     1     -45.238  62.271 -46.650  1.00  0.00     0.007 A 
HETATM   31  C   UNL     1     -45.333  61.138 -47.459  1.00  0.00     0.017 A 
ENDBRANCH   4  25
TORSDOF 4
ENDMDL
MODEL 3
REMARK VINA RESULT:      -8.6      5.596      8.967
REMARK  4 active torsions:
REMARK  status: ('A' for Active; 'I' for Inactive)
REMARK    1  A    between atoms: C_2  and  O_3 
REMARK    2  A    between atoms: O_3  and  C_4 
REMARK    3  A    between atoms: C_9  and  N_10 
REMARK       I    between atoms: N_10  and  C_11 
REMARK       I    between atoms: C_11  and  N_12 
REMARK       I    between atoms: N_12  and  C_13 
REMARK    4  A    between atoms: C_13  and  C_14 
ROOT
HETATM    1  N   UNL     1     -42.784  58.505 -51.084  1.00  0.00    -0.019 N 
HETATM    2  C   UNL     1     -43.976  59.160 -50.806  1.00  0.00     0.693 C 
HETATM    3  N   UNL     1     -44.003  60.157 -49.872  1.00  0.00    -0.155 N 
HETATM    4  C   UNL     1     -45.177  60.851 -49.460  1.00  0.00     0.269 C 
HETATM    5  O   UNL     1     -46.216  60.732 -50.095  1.00  0.00    -0.267 OA
HETATM    6  N   UNL     1     -45.117  58.781 -51.424  1.00  0.00    -0.234 N 
HETATM    7  H   UNL     1     -45.088  57.971 -52.047  1.00  0.00     0.174 HD
HETATM    8  H   UNL     1     -46.000  59.264 -51.263  1.00  0.00     0.174 HD
HETATM    9  H   UNL     1     -41.922  58.805 -50.660  1.00  0.00     0.203 HD
HETATM   10  H   UNL     1     -43.132  60.392 -49.422  1.00  0.00     0.187 HD
ENDROOT
BRANCH   1  11
HETATM   11  C   UNL     1     -42.626  57.273 -51.696  1.00  0.00     0.742 A 
HETATM   12  N   UNL     1     -41.756  57.219 -52.704  1.00  0.00    -0.062 NA
HETATM   13  C   UNL     1     -41.483  56.016 -53.230  1.00  0.00     0.088 A 
HETATM   14  C   UNL     1     -42.058  54.834 -52.751  1.00  0.00     0.021 A 
HETATM   15  C   UNL     1     -40.575  55.926 -54.280  1.00  0.00     0.036 A 
HETATM   16  C   UNL     1     -41.678  53.591 -53.309  1.00  0.00     0.052 A 
HETATM   17  C   UNL     1     -42.980  55.002 -51.713  1.00  0.00     0.062 A 
HETATM   18  C   UNL     1     -40.729  53.519 -54.327  1.00  0.00     0.069 A 
HETATM   19  C   UNL     1     -40.196  54.696 -54.833  1.00  0.00     0.039 A 
HETATM   20  N   UNL     1     -43.274  56.217 -51.190  1.00  0.00    -0.066 NA
HETATM   21  C   UNL     1     -43.680  53.833 -51.079  1.00  0.00     0.072 C 
BRANCH  18  22
HETATM   22  O   UNL     1     -40.420  52.255 -54.736  1.00  0.00    -0.351 OA
BRANCH  22  23
HETATM   23  C   UNL     1     -39.980  51.342 -53.730  1.00  0.00     0.171 C 
HETATM   24  C   UNL     1     -39.804  49.981 -54.379  1.00  0.00     0.034 C 
ENDBRANCH  22  23
ENDBRANCH  18  22
ENDBRANCH   1  11
BRANCH   4  25
HETATM   25  C   UNL     1     -45.093  61.663 -48.226  1.00  0.00     0.032 A 
HETATM   26  C   UNL     1     -45.170  61.074 -46.957  1.00  0.00     0.017 A 
HETATM   27  C   UNL     1     -45.178  61.882 -45.816  1.00  0.00     0.007 A 
HETATM   28  C   UNL     1     -45.111  63.275 -45.930  1.00  0.00    -0.062 A 
HETATM   29  C   UNL     1     -45.170  64.151 -44.710  1.00  0.00     0.048 C 
HETATM   30  C   UNL     1     -45.036  63.856 -47.200  1.00  0.00     0.007 A 
HETATM   31  C   UNL     1     -45.031  63.057 -48.345  1.00  0.00     0.017 A 
ENDBRANCH   4  25
TORSDOF 4
ENDMDL
MODEL 4
REMARK VINA RESULT:      -8.5      1.854     10.021
REMARK  4 active torsions:
REMARK  status: ('A' for Active; 'I' for Inactive)
REMARK    1  A    between atoms: C_2  and  O_3 
REMARK    2  A    between atoms: O_3  and  C_4 
REMARK    3  A    between atoms: C_9  and  N_10 
REMARK       I    between atoms: N_10  and  C_11 
REMARK       I    between atoms: C_11  and  N_12 
REMARK       I    between atoms: N_12  and  C_13 
REMARK    4  A    between atoms: C_13  and  C_14 
ROOT
HETATM    1  N   UNL     1     -42.009  55.793 -56.825  1.00  0.00    -0.019 N 
HETATM    2  C   UNL     1     -41.934  55.839 -55.440  1.00  0.00     0.693 C 
HETATM    3  N   UNL     1     -41.210  54.897 -54.765  1.00  0.00    -0.155 N 
HETATM    4  C   UNL     1     -41.118  54.809 -53.346  1.00  0.00     0.269 C 
HETATM    5  O   UNL     1     -41.520  55.727 -52.645  1.00  0.00    -0.267 OA
HETATM    6  N   UNL     1     -42.615  56.787 -54.757  1.00  0.00    -0.234 N 
HETATM    7  H   UNL     1     -43.224  57.420 -55.278  1.00  0.00     0.174 HD
HETATM    8  H   UNL     1     -42.553  56.864 -53.742  1.00  0.00     0.174 HD
HETATM    9  H   UNL     1     -41.474  55.117 -57.346  1.00  0.00     0.203 HD
HETATM   10  H   UNL     1     -40.736  54.199 -55.315  1.00  0.00     0.187 HD
ENDROOT
BRANCH   1  11
HETATM   11  C   UNL     1     -42.949  56.403 -57.637  1.00  0.00     0.742 A 
HETATM   12  N   UNL     1     -43.563  55.623 -58.525  1.00  0.00    -0.062 NA
HETATM   13  C   UNL     1     -44.570  56.154 -59.234  1.00  0.00     0.088 A 
HETATM   14  C   UNL     1     -45.002  57.474 -59.060  1.00  0.00     0.021 A 
HETATM   15  C   UNL     1     -45.234  55.363 -60.165  1.00  0.00     0.036 A 
HETATM   16  C   UNL     1     -46.112  57.952 -59.796  1.00  0.00     0.052 A 
HETATM   17  C   UNL     1     -44.273  58.218 -58.128  1.00  0.00     0.062 A 
HETATM   18  C   UNL     1     -46.794  57.127 -60.687  1.00  0.00     0.069 A 
HETATM   19  C   UNL     1     -46.335  55.833 -60.892  1.00  0.00     0.039 A 
HETATM   20  N   UNL     1     -43.243  57.692 -57.422  1.00  0.00    -0.066 NA
HETATM   21  C   UNL     1     -44.613  59.648 -57.816  1.00  0.00     0.072 C 
BRANCH  18  22
HETATM   22  O   UNL     1     -47.875  57.701 -61.289  1.00  0.00    -0.351 OA
BRANCH  22  23
HETATM   23  C   UNL     1     -48.578  56.907 -62.246  1.00  0.00     0.171 C 
HETATM   24  C   UNL     1     -49.088  57.832 -63.337  1.00  0.00     0.034 C 
ENDBRANCH  22  23
ENDBRANCH  18  22
ENDBRANCH   1  11
BRANCH   4  25
HETATM   25  C   UNL     1     -40.570  53.558 -52.774  1.00  0.00     0.032 A 
HETATM   26  C   UNL     1     -40.148  52.504 -53.595  1.00  0.00     0.017 A 
HETATM   27  C   UNL     1     -39.721  51.304 -53.017  1.00  0.00     0.007 A 
HETATM   28  C   UNL     1     -39.713  51.146 -51.627  1.00  0.00    -0.062 A 
HETATM   29  C   UNL     1     -39.304  49.841 -51.003  1.00  0.00     0.048 C 
HETATM   30  C   UNL     1     -40.137  52.203 -50.815  1.00  0.00     0.007 A 
HETATM   31  C   UNL     1     -40.568  53.403 -51.383  1.00  0.00     0.017 A 
ENDBRANCH   4  25
TORSDOF 4
ENDMDL
MODEL 5
REMARK VINA RESULT:      -8.0      1.928     10.268
REMARK  4 active torsions:
REMARK  status: ('A' for Active; 'I' for Inactive)
REMARK    1  A    between atoms: C_2  and  O_3 
REMARK    2  A    between atoms: O_3  and  C_4 
REMARK    3  A    between atoms: C_9  and  N_10 
REMARK       I    between atoms: N_10  and  C_11 
REMARK       I    between atoms: C_11  and  N_12 
REMARK       I    between atoms: N_12  and  C_13 
REMARK    4  A    between atoms: C_13  and  C_14 
ROOT
HETATM    1  N   UNL     1     -42.188  55.495 -56.992  1.00  0.00    -0.019 N 
HETATM    2  C   UNL     1     -42.086  55.594 -55.611  1.00  0.00     0.693 C 
HETATM    3  N   UNL     1     -41.325  54.696 -54.918  1.00  0.00    -0.155 N 
HETATM    4  C   UNL     1     -41.201  54.662 -53.499  1.00  0.00     0.269 C 
HETATM    5  O   UNL     1     -41.612  55.595 -52.824  1.00  0.00    -0.267 OA
HETATM    6  N   UNL     1     -42.777  56.550 -54.949  1.00  0.00    -0.234 N 
HETATM    7  H   UNL     1     -43.412  57.148 -55.480  1.00  0.00     0.174 HD
HETATM    8  H   UNL     1     -42.696  56.666 -53.939  1.00  0.00     0.174 HD
HETATM    9  H   UNL     1     -41.648  54.813 -57.499  1.00  0.00     0.203 HD
HETATM   10  H   UNL     1     -40.845  53.989 -55.452  1.00  0.00     0.187 HD
ENDROOT
BRANCH   1  11
HETATM   11  C   UNL     1     -43.161  56.051 -57.805  1.00  0.00     0.742 A 
HETATM   12  N   UNL     1     -43.435  57.339 -57.607  1.00  0.00    -0.062 NA
HETATM   13  C   UNL     1     -44.274  57.939 -58.463  1.00  0.00     0.088 A 
HETATM   14  C   UNL     1     -44.848  57.271 -59.551  1.00  0.00     0.021 A 
HETATM   15  C   UNL     1     -44.576  59.285 -58.285  1.00  0.00     0.036 A 
HETATM   16  C   UNL     1     -45.676  57.980 -60.453  1.00  0.00     0.052 A 
HETATM   17  C   UNL     1     -44.522  55.916 -59.653  1.00  0.00     0.062 A 
HETATM   18  C   UNL     1     -45.925  59.341 -60.284  1.00  0.00     0.069 A 
HETATM   19  C   UNL     1     -45.394  59.989 -59.178  1.00  0.00     0.039 A 
HETATM   20  N   UNL     1     -43.689  55.300 -58.780  1.00  0.00    -0.066 NA
HETATM   21  C   UNL     1     -45.046  55.057 -60.769  1.00  0.00     0.072 C 
BRANCH  18  22
HETATM   22  O   UNL     1     -46.698  59.908 -61.255  1.00  0.00    -0.351 OA
BRANCH  22  23
HETATM   23  C   UNL     1     -48.105  59.678 -61.175  1.00  0.00     0.171 C 
HETATM   24  C   UNL     1     -48.585  59.242 -62.548  1.00  0.00     0.034 C 
ENDBRANCH  22  23
ENDBRANCH  18  22
ENDBRANCH   1  11
BRANCH   4  25
HETATM   25  C   UNL     1     -40.610  53.447 -52.894  1.00  0.00     0.032 A 
HETATM   26  C   UNL     1     -40.160  52.383 -53.685  1.00  0.00     0.017 A 
HETATM   27  C   UNL     1     -39.691  51.215 -53.075  1.00  0.00     0.007 A 
HETATM   28  C   UNL     1     -39.671  51.099 -51.681  1.00  0.00    -0.062 A 
HETATM   29  C   UNL     1     -39.217  49.827 -51.021  1.00  0.00     0.048 C 
HETATM   30  C   UNL     1     -40.125  52.166 -50.898  1.00  0.00     0.007 A 
HETATM   31  C   UNL     1     -40.596  53.334 -51.499  1.00  0.00     0.017 A 
ENDBRANCH   4  25
TORSDOF 4
ENDMDL
MODEL 6
REMARK VINA RESULT:      -7.9     15.522     18.294
REMARK  4 active torsions:
REMARK  status: ('A' for Active; 'I' for Inactive)
REMARK    1  A    between atoms: C_2  and  O_3 
REMARK    2  A    between atoms: O_3  and  C_4 
REMARK    3  A    between atoms: C_9  and  N_10 
REMARK       I    between atoms: N_10  and  C_11 
REMARK       I    between atoms: C_11  and  N_12 
REMARK       I    between atoms: N_12  and  C_13 
REMARK    4  A    between atoms: C_13  and  C_14 
ROOT
HETATM    1  N   UNL     1     -35.500  39.232 -51.105  1.00  0.00    -0.019 N 
HETATM    2  C   UNL     1     -35.535  40.491 -51.691  1.00  0.00     0.693 C 
HETATM    3  N   UNL     1     -36.013  40.638 -52.962  1.00  0.00    -0.155 N 
HETATM    4  C   UNL     1     -36.036  41.866 -53.683  1.00  0.00     0.269 C 
HETATM    5  O   UNL     1     -35.819  42.921 -53.106  1.00  0.00    -0.267 OA
HETATM    6  N   UNL     1     -35.054  41.562 -51.021  1.00  0.00    -0.234 N 
HETATM    7  H   UNL     1     -34.616  41.411 -50.111  1.00  0.00     0.174 HD
HETATM    8  H   UNL     1     -35.096  42.503 -51.413  1.00  0.00     0.174 HD
HETATM    9  H   UNL     1     -35.892  38.435 -51.579  1.00  0.00     0.203 HD
HETATM   10  H   UNL     1     -36.343  39.808 -53.430  1.00  0.00     0.187 HD
ENDROOT
BRANCH   1  11
HETATM   11  C   UNL     1     -34.743  38.833 -50.018  1.00  0.00     0.742 A 
HETATM   12  N   UNL     1     -33.537  39.385 -49.898  1.00  0.00    -0.062 NA
HETATM   13  C   UNL     1     -32.834  39.119 -48.788  1.00  0.00     0.088 A 
HETATM   14  C   UNL     1     -33.326  38.307 -47.759  1.00  0.00     0.021 A 
HETATM   15  C   UNL     1     -31.574  39.686 -48.631  1.00  0.00     0.036 A 
HETATM   16  C   UNL     1     -32.559  38.118 -46.585  1.00  0.00     0.052 A 
HETATM   17  C   UNL     1     -34.587  37.750 -47.996  1.00  0.00     0.062 A 
HETATM   18  C   UNL     1     -31.320  38.736 -46.428  1.00  0.00     0.069 A 
HETATM   19  C   UNL     1     -30.814  39.502 -47.469  1.00  0.00     0.039 A 
HETATM   20  N   UNL     1     -35.293  38.001 -49.124  1.00  0.00    -0.066 NA
HETATM   21  C   UNL     1     -35.262  36.863 -46.988  1.00  0.00     0.072 C 
BRANCH  18  22
HETATM   22  O   UNL     1     -30.713  38.509 -45.228  1.00  0.00    -0.351 OA
BRANCH  22  23
HETATM   23  C   UNL     1     -31.002  39.430 -44.175  1.00  0.00     0.171 C 
HETATM   24  C   UNL     1     -29.928  40.504 -44.187  1.00  0.00     0.034 C 
ENDBRANCH  22  23
ENDBRANCH  18  22
ENDBRANCH   1  11
BRANCH   4  25
HETATM   25  C   UNL     1     -36.279  41.797 -55.142  1.00  0.00     0.032 A 
HETATM   26  C   UNL     1     -35.291  42.164 -56.065  1.00  0.00     0.017 A 
HETATM   27  C   UNL     1     -35.586  42.172 -57.431  1.00  0.00     0.007 A 
HETATM   28  C   UNL     1     -36.862  41.819 -57.886  1.00  0.00    -0.062 A 
HETATM   29  C   UNL     1     -37.200  41.875 -59.349  1.00  0.00     0.048 C 
HETATM   30  C   UNL     1     -37.843  41.455 -56.958  1.00  0.00     0.007 A 
HETATM   31  C   UNL     1     -37.557  41.447 -55.592  1.00  0.00     0.017 A 
ENDBRANCH   4  25
TORSDOF 4
ENDMDL
MODEL 7
REMARK VINA RESULT:      -7.9      2.550      3.292
REMARK  4 active torsions:
REMARK  status: ('A' for Active; 'I' for Inactive)
REMARK    1  A    between atoms: C_2  and  O_3 
REMARK    2  A    between atoms: O_3  and  C_4 
REMARK    3  A    between atoms: C_9  and  N_10 
REMARK       I    between atoms: N_10  and  C_11 
REMARK       I    between atoms: C_11  and  N_12 
REMARK       I    between atoms: N_12  and  C_13 
REMARK    4  A    between atoms: C_13  and  C_14 
ROOT
HETATM    1  N   UNL     1     -42.104  56.271 -56.818  1.00  0.00    -0.019 N 
HETATM    2  C   UNL     1     -43.168  57.000 -57.332  1.00  0.00     0.693 C 
HETATM    3  N   UNL     1     -43.026  57.674 -58.512  1.00  0.00    -0.155 N 
HETATM    4  C   UNL     1     -44.025  58.503 -59.098  1.00  0.00     0.269 C 
HETATM    5  O   UNL     1     -45.169  58.483 -58.668  1.00  0.00    -0.267 OA
HETATM    6  N   UNL     1     -44.328  57.082 -56.641  1.00  0.00    -0.234 N 
HETATM    7  H   UNL     1     -44.376  56.649 -55.717  1.00  0.00     0.174 HD
HETATM    8  H   UNL     1     -45.136  57.584 -57.009  1.00  0.00     0.174 HD
HETATM    9  H   UNL     1     -41.250  56.170 -57.342  1.00  0.00     0.203 HD
HETATM   10  H   UNL     1     -42.137  57.600 -58.981  1.00  0.00     0.187 HD
ENDROOT
BRANCH   1  11
HETATM   11  C   UNL     1     -41.930  55.844 -55.513  1.00  0.00     0.742 A 
HETATM   12  N   UNL     1     -41.413  54.627 -55.351  1.00  0.00    -0.062 NA
HETATM   13  C   UNL     1     -41.111  54.237 -54.104  1.00  0.00     0.088 A 
HETATM   14  C   UNL     1     -41.301  55.061 -52.988  1.00  0.00     0.021 A 
HETATM   15  C   UNL     1     -40.565  52.974 -53.903  1.00  0.00     0.036 A 
HETATM   16  C   UNL     1     -40.901  54.612 -51.707  1.00  0.00     0.052 A 
HETATM   17  C   UNL     1     -41.877  56.305 -53.262  1.00  0.00     0.062 A 
HETATM   18  C   UNL     1     -40.310  53.362 -51.535  1.00  0.00     0.069 A 
HETATM   19  C   UNL     1     -40.167  52.528 -52.636  1.00  0.00     0.039 A 
HETATM   20  N   UNL     1     -42.202  56.697 -54.517  1.00  0.00    -0.066 NA
HETATM   21  C   UNL     1     -42.139  57.311 -52.177  1.00  0.00     0.072 C 
BRANCH  18  22
HETATM   22  O   UNL     1     -39.927  53.079 -50.256  1.00  0.00    -0.351 OA
BRANCH  22  23
HETATM   23  C   UNL     1     -39.681  54.192 -49.396  1.00  0.00     0.171 C 
HETATM   24  C   UNL     1     -40.391  53.931 -48.080  1.00  0.00     0.034 C 
ENDBRANCH  22  23
ENDBRANCH  18  22
ENDBRANCH   1  11
BRANCH   4  25
HETATM   25  C   UNL     1     -43.606  59.407 -60.193  1.00  0.00     0.032 A 
HETATM   26  C   UNL     1     -44.538  59.960 -61.079  1.00  0.00     0.017 A 
HETATM   27  C   UNL     1     -44.097  60.736 -62.156  1.00  0.00     0.007 A 
HETATM   28  C   UNL     1     -42.731  60.962 -62.357  1.00  0.00    -0.062 A 
HETATM   29  C   UNL     1     -42.247  61.752 -63.541  1.00  0.00     0.048 C 
HETATM   30  C   UNL     1     -41.805  60.404 -61.468  1.00  0.00     0.007 A 
HETATM   31  C   UNL     1     -42.238  59.626 -60.393  1.00  0.00     0.017 A 
ENDBRANCH   4  25
TORSDOF 4
ENDMDL
MODEL 8
REMARK VINA RESULT:      -7.8      5.358      6.435
REMARK  4 active torsions:
REMARK  status: ('A' for Active; 'I' for Inactive)
REMARK    1  A    between atoms: C_2  and  O_3 
REMARK    2  A    between atoms: O_3  and  C_4 
REMARK    3  A    between atoms: C_9  and  N_10 
REMARK       I    between atoms: N_10  and  C_11 
REMARK       I    between atoms: C_11  and  N_12 
REMARK       I    between atoms: N_12  and  C_13 
REMARK    4  A    between atoms: C_13  and  C_14 
ROOT
HETATM    1  N   UNL     1     -43.147  57.213 -50.567  1.00  0.00    -0.019 N 
HETATM    2  C   UNL     1     -43.066  58.441 -51.209  1.00  0.00     0.693 C 
HETATM    3  N   UNL     1     -44.070  59.356 -51.060  1.00  0.00    -0.155 N 
HETATM    4  C   UNL     1     -44.123  60.616 -51.721  1.00  0.00     0.269 C 
HETATM    5  O   UNL     1     -43.140  61.045 -52.308  1.00  0.00    -0.267 OA
HETATM    6  N   UNL     1     -42.018  58.712 -52.019  1.00  0.00    -0.234 N 
HETATM    7  H   UNL     1     -41.330  57.976 -52.189  1.00  0.00     0.174 HD
HETATM    8  H   UNL     1     -41.916  59.617 -52.479  1.00  0.00     0.174 HD
HETATM    9  H   UNL     1     -43.902  57.015 -49.930  1.00  0.00     0.203 HD
HETATM   10  H   UNL     1     -44.840  59.101 -50.462  1.00  0.00     0.187 HD
ENDROOT
BRANCH   1  11
HETATM   11  C   UNL     1     -42.449  56.057 -50.872  1.00  0.00     0.742 A 
HETATM   12  N   UNL     1     -42.625  55.563 -52.096  1.00  0.00    -0.062 NA
HETATM   13  C   UNL     1     -41.864  54.522 -52.465  1.00  0.00     0.088 A 
HETATM   14  C   UNL     1     -40.896  53.959 -51.626  1.00  0.00     0.021 A 
HETATM   15  C   UNL     1     -42.020  53.988 -53.740  1.00  0.00     0.036 A 
HETATM   16  C   UNL     1     -40.083  52.902 -52.102  1.00  0.00     0.052 A 
HETATM   17  C   UNL     1     -40.812  54.529 -50.352  1.00  0.00     0.062 A 
HETATM   18  C   UNL     1     -40.223  52.415 -53.399  1.00  0.00     0.069 A 
HETATM   19  C   UNL     1     -41.216  52.943 -54.213  1.00  0.00     0.039 A 
HETATM   20  N   UNL     1     -41.591  55.568 -49.967  1.00  0.00    -0.066 NA
HETATM   21  C   UNL     1     -39.818  54.047 -49.334  1.00  0.00     0.072 C 
BRANCH  18  22
HETATM   22  O   UNL     1     -39.341  51.432 -53.741  1.00  0.00    -0.351 OA
BRANCH  22  23
HETATM   23  C   UNL     1     -39.868  50.111 -53.874  1.00  0.00     0.171 C 
HETATM   24  C   UNL     1     -39.620  49.376 -52.569  1.00  0.00     0.034 C 
ENDBRANCH  22  23
ENDBRANCH  18  22
ENDBRANCH   1  11
BRANCH   4  25
HETATM   25  C   UNL     1     -45.414  61.340 -51.706  1.00  0.00     0.032 A 
HETATM   26  C   UNL     1     -46.476  60.956 -52.535  1.00  0.00     0.017 A 
HETATM   27  C   UNL     1     -47.648  61.719 -52.559  1.00  0.00     0.007 A 
HETATM   28  C   UNL     1     -47.768  62.865 -51.766  1.00  0.00    -0.062 A 
HETATM   29  C   UNL     1     -49.004  63.718 -51.826  1.00  0.00     0.048 C 
HETATM   30  C   UNL     1     -46.702  63.243 -50.942  1.00  0.00     0.007 A 
HETATM   31  C   UNL     1     -45.528  62.489 -50.914  1.00  0.00     0.017 A 
ENDBRANCH   4  25
TORSDOF 4
ENDMDL
MODEL 9
REMARK VINA RESULT:      -7.7      4.399     10.402
REMARK  4 active torsions:
REMARK  status: ('A' for Active; 'I' for Inactive)
REMARK    1  A    between atoms: C_2  and  O_3 
REMARK    2  A    between atoms: O_3  and  C_4 
REMARK    3  A    between atoms: C_9  and  N_10 
REMARK       I    between atoms: N_10  and  C_11 
REMARK       I    between atoms: C_11  and  N_12 
REMARK       I    between atoms: N_12  and  C_13 
REMARK    4  A    between atoms: C_13  and  C_14 
ROOT
HETATM    1  N   UNL     1     -42.282  58.598 -56.506  1.00  0.00    -0.019 N 
HETATM    2  C   UNL     1     -42.547  57.236 -56.553  1.00  0.00     0.693 C 
HETATM    3  N   UNL     1     -42.181  56.434 -55.509  1.00  0.00    -0.155 N 
HETATM    4  C   UNL     1     -42.344  55.019 -55.477  1.00  0.00     0.269 C 
HETATM    5  O   UNL     1     -43.034  54.461 -56.318  1.00  0.00    -0.267 OA
HETATM    6  N   UNL     1     -43.125  56.697 -57.650  1.00  0.00    -0.234 N 
HETATM    7  H   UNL     1     -43.302  57.301 -58.454  1.00  0.00     0.174 HD
HETATM    8  H   UNL     1     -43.360  55.706 -57.699  1.00  0.00     0.174 HD
HETATM    9  H   UNL     1     -41.889  59.016 -55.678  1.00  0.00     0.203 HD
HETATM   10  H   UNL     1     -41.735  56.877 -54.721  1.00  0.00     0.187 HD
ENDROOT
BRANCH   1  11
HETATM   11  C   UNL     1     -42.237  59.483 -57.569  1.00  0.00     0.742 A 
HETATM   12  N   UNL     1     -41.303  60.430 -57.515  1.00  0.00    -0.062 NA
HETATM   13  C   UNL     1     -41.149  61.219 -58.588  1.00  0.00     0.088 A 
HETATM   14  C   UNL     1     -41.913  61.070 -59.751  1.00  0.00     0.021 A 
HETATM   15  C   UNL     1     -40.178  62.215 -58.563  1.00  0.00     0.036 A 
HETATM   16  C   UNL     1     -41.656  61.895 -60.871  1.00  0.00     0.052 A 
HETATM   17  C   UNL     1     -42.886  60.068 -59.695  1.00  0.00     0.062 A 
HETATM   18  C   UNL     1     -40.644  62.853 -60.842  1.00  0.00     0.069 A 
HETATM   19  C   UNL     1     -39.920  63.031 -59.672  1.00  0.00     0.039 A 
HETATM   20  N   UNL     1     -43.059  59.280 -58.607  1.00  0.00    -0.066 NA
HETATM   21  C   UNL     1     -43.784  59.771 -60.863  1.00  0.00     0.072 C 
BRANCH  18  22
HETATM   22  O   UNL     1     -40.472  63.542 -62.007  1.00  0.00    -0.351 OA
BRANCH  22  23
HETATM   23  C   UNL     1     -39.519  63.016 -62.932  1.00  0.00     0.171 C 
HETATM   24  C   UNL     1     -38.279  63.891 -62.872  1.00  0.00     0.034 C 
ENDBRANCH  22  23
ENDBRANCH  18  22
ENDBRANCH   1  11
BRANCH   4  25
HETATM   25  C   UNL     1     -41.612  54.271 -54.430  1.00  0.00     0.032 A 
HETATM   26  C   UNL     1     -40.672  53.286 -54.760  1.00  0.00     0.017 A 
HETATM   27  C   UNL     1     -40.067  52.537 -53.745  1.00  0.00     0.007 A 
HETATM   28  C   UNL     1     -40.394  52.762 -52.403  1.00  0.00    -0.062 A 
HETATM   29  C   UNL     1     -39.786  51.926 -51.312  1.00  0.00     0.048 C 
HETATM   30  C   UNL     1     -41.335  53.747 -52.083  1.00  0.00     0.007 A 
HETATM   31  C   UNL     1     -41.945  54.496 -53.090  1.00  0.00     0.017 A 
ENDBRANCH   4  25
TORSDOF 4
ENDMDL
MODEL 10
REMARK VINA RESULT:      -7.7      5.279      7.654
REMARK  4 active torsions:
REMARK  status: ('A' for Active; 'I' for Inactive)
REMARK    1  A    between atoms: C_2  and  O_3 
REMARK    2  A    between atoms: O_3  and  C_4 
REMARK    3  A    between atoms: C_9  and  N_10 
REMARK       I    between atoms: N_10  and  C_11 
REMARK       I    between atoms: C_11  and  N_12 
REMARK       I    between atoms: N_12  and  C_13 
REMARK    4  A    between atoms: C_13  and  C_14 
ROOT
HETATM    1  N   UNL     1     -42.359  58.049 -50.519  1.00  0.00    -0.019 N 
HETATM    2  C   UNL     1     -42.517  59.343 -50.998  1.00  0.00     0.693 C 
HETATM    3  N   UNL     1     -43.399  60.192 -50.392  1.00  0.00    -0.155 N 
HETATM    4  C   UNL     1     -43.689  61.514 -50.835  1.00  0.00     0.269 C 
HETATM    5  O   UNL     1     -42.984  62.047 -51.680  1.00  0.00    -0.267 OA
HETATM    6  N   UNL     1     -41.832  59.748 -52.092  1.00  0.00    -0.234 N 
HETATM    7  H   UNL     1     -41.251  59.065 -52.583  1.00  0.00     0.174 HD
HETATM    8  H   UNL     1     -41.904  60.701 -52.447  1.00  0.00     0.174 HD
HETATM    9  H   UNL     1     -42.833  57.750 -49.682  1.00  0.00     0.203 HD
HETATM   10  H   UNL     1     -43.902  59.840 -49.592  1.00  0.00     0.187 HD
ENDROOT
BRANCH   1  11
HETATM   11  C   UNL     1     -41.818  56.966 -51.189  1.00  0.00     0.742 A 
HETATM   12  N   UNL     1     -41.247  56.027 -50.435  1.00  0.00    -0.062 NA
HETATM   13  C   UNL     1     -40.832  54.906 -51.042  1.00  0.00     0.088 A 
HETATM   14  C   UNL     1     -40.993  54.685 -52.415  1.00  0.00     0.021 A 
HETATM   15  C   UNL     1     -40.237  53.905 -50.281  1.00  0.00     0.036 A 
HETATM   16  C   UNL     1     -40.589  53.452 -52.980  1.00  0.00     0.052 A 
HETATM   17  C   UNL     1     -41.574  55.743 -53.120  1.00  0.00     0.062 A 
HETATM   18  C   UNL     1     -40.041  52.444 -52.191  1.00  0.00     0.069 A 
HETATM   19  C   UNL     1     -39.839  52.683 -50.839  1.00  0.00     0.039 A 
HETATM   20  N   UNL     1     -41.978  56.886 -52.516  1.00  0.00    -0.066 NA
HETATM   21  C   UNL     1     -41.826  55.664 -54.600  1.00  0.00     0.072 C 
BRANCH  18  22
HETATM   22  O   UNL     1     -39.745  51.290 -52.856  1.00  0.00    -0.351 OA
BRANCH  22  23
HETATM   23  C   UNL     1     -40.247  51.168 -54.188  1.00  0.00     0.171 C 
HETATM   24  C   UNL     1     -39.807  49.820 -54.731  1.00  0.00     0.034 C 
ENDBRANCH  22  23
ENDBRANCH  18  22
ENDBRANCH   1  11
BRANCH   4  25
HETATM   25  C   UNL     1     -44.888  62.175 -50.273  1.00  0.00     0.032 A 
HETATM   26  C   UNL     1     -45.004  62.431 -48.901  1.00  0.00     0.017 A 
HETATM   27  C   UNL     1     -46.189  62.975 -48.395  1.00  0.00     0.007 A 
HETATM   28  C   UNL     1     -47.261  63.264 -49.247  1.00  0.00    -0.062 A 
HETATM   29  C   UNL     1     -48.555  63.801 -48.702  1.00  0.00     0.048 C 
HETATM   30  C   UNL     1     -47.137  63.004 -50.616  1.00  0.00     0.007 A 
HETATM   31  C   UNL     1     -45.959  62.458 -51.129  1.00  0.00     0.017 A 
ENDBRANCH   4  25
TORSDOF 4
ENDMDL
