MODEL 1
REMARK VINA RESULT:      -7.9      0.000      0.000
REMARK  5 active torsions:
REMARK  status: ('A' for Active; 'I' for Inactive)
REMARK    1  A    between atoms: C_2  and  O_3 
REMARK    2  A    between atoms: O_3  and  C_4 
REMARK    3  A    between atoms: C_5  and  C_6 
REMARK       I    between atoms: C_6  and  N_7 
REMARK    4  A    between atoms: N_7  and  N_8 
REMARK    5  A    between atoms: C_9  and  C_10 
ROOT
HETATM    1  C   UNL     1     -40.581  53.525 -54.049  1.00  0.00     0.274 C 
HETATM    2  N   UNL     1     -41.468  54.264 -53.284  1.00  0.00    -0.243 N 
HETATM    3  O   UNL     1     -40.155  53.862 -55.153  1.00  0.00    -0.266 OA
HETATM    4  H   UNL     1     -41.762  53.911 -52.378  1.00  0.00     0.192 HD
ENDROOT
BRANCH   2   5
HETATM    5  N   UNL     1     -42.000  55.417 -53.784  1.00  0.00    -0.183 NA
HETATM    6  C   UNL     1     -43.268  55.394 -54.029  1.00  0.00     0.152 C 
BRANCH   6   7
HETATM    7  C   UNL     1     -43.898  56.569 -54.600  1.00  0.00     0.011 A 
HETATM    8  C   UNL     1     -43.819  57.041 -55.949  1.00  0.00     0.005 A 
HETATM    9  C   UNL     1     -44.563  58.222 -56.024  1.00  0.00     0.043 A 
HETATM   10  C   UNL     1     -43.170  56.584 -57.117  1.00  0.00     0.033 A 
HETATM   11  C   UNL     1     -44.691  58.970 -57.200  1.00  0.00     0.031 A 
HETATM   12  N   UNL     1     -45.085  58.453 -54.772  1.00  0.00    -0.364 N 
HETATM   13  C   UNL     1     -44.037  58.499 -58.342  1.00  0.00     0.021 A 
HETATM   14  C   UNL     1     -43.290  57.325 -58.298  1.00  0.00     0.012 A 
HETATM   15 BR   UNL     1     -42.414  56.719 -59.863  1.00  0.00    -0.051 Br
HETATM   16  H   UNL     1     -45.665  59.242 -54.525  1.00  0.00     0.165 HD
HETATM   17  C   UNL     1     -44.688  57.471 -53.910  1.00  0.00     0.102 A 
ENDBRANCH   6   7
ENDBRANCH   2   5
BRANCH   1  18
HETATM   18  C   UNL     1     -40.183  52.196 -53.492  1.00  0.00     0.067 A 
HETATM   19  C   UNL     1     -39.753  51.990 -52.170  1.00  0.00     0.084 A 
HETATM   20  C   UNL     1     -39.464  50.690 -51.730  1.00  0.00     0.038 A 
HETATM   21  C   UNL     1     -39.558  49.608 -52.607  1.00  0.00     0.003 A 
HETATM   22  C   UNL     1     -39.946  49.811 -53.928  1.00  0.00     0.001 A 
HETATM   23  C   UNL     1     -40.258  51.097 -54.367  1.00  0.00     0.020 A 
BRANCH  19  24
HETATM   24  O   UNL     1     -39.670  53.065 -51.318  1.00  0.00    -0.350 OA
BRANCH  24  25
HETATM   25  C   UNL     1     -40.368  52.876 -50.080  1.00  0.00     0.171 C 
HETATM   26  C   UNL     1     -39.998  54.018 -49.151  1.00  0.00     0.034 C 
ENDBRANCH  24  25
ENDBRANCH  19  24
ENDBRANCH   1  18
TORSDOF 5
ENDMDL
MODEL 2
REMARK VINA RESULT:      -7.7      3.383      8.290
REMARK  5 active torsions:
REMARK  status: ('A' for Active; 'I' for Inactive)
REMARK    1  A    between atoms: C_2  and  O_3 
REMARK    2  A    between atoms: O_3  and  C_4 
REMARK    3  A    between atoms: C_5  and  C_6 
REMARK       I    between atoms: C_6  and  N_7 
REMARK    4  A    between atoms: N_7  and  N_8 
REMARK    5  A    between atoms: C_9  and  C_10 
ROOT
HETATM    1  C   UNL     1     -43.356  56.071 -58.061  1.00  0.00     0.274 C 
HETATM    2  N   UNL     1     -43.439  55.033 -57.148  1.00  0.00    -0.243 N 
HETATM    3  O   UNL     1     -42.507  56.960 -58.038  1.00  0.00    -0.266 OA
HETATM    4  H   UNL     1     -44.172  54.336 -57.247  1.00  0.00     0.192 HD
ENDROOT
BRANCH   2   5
HETATM    5  N   UNL     1     -42.589  54.997 -56.081  1.00  0.00    -0.183 NA
HETATM    6  C   UNL     1     -43.073  54.503 -54.989  1.00  0.00     0.152 C 
BRANCH   6   7
HETATM    7  C   UNL     1     -42.243  54.468 -53.801  1.00  0.00     0.011 A 
HETATM    8  C   UNL     1     -41.307  53.456 -53.412  1.00  0.00     0.005 A 
HETATM    9  C   UNL     1     -40.766  53.837 -52.181  1.00  0.00     0.043 A 
HETATM   10  C   UNL     1     -40.879  52.238 -53.982  1.00  0.00     0.033 A 
HETATM   11  C   UNL     1     -39.822  53.068 -51.491  1.00  0.00     0.031 A 
HETATM   12  N   UNL     1     -41.340  55.041 -51.841  1.00  0.00    -0.364 N 
HETATM   13  C   UNL     1     -39.415  51.865 -52.074  1.00  0.00     0.021 A 
HETATM   14  C   UNL     1     -39.936  51.460 -53.300  1.00  0.00     0.012 A 
HETATM   15 BR   UNL     1     -39.365  49.823 -54.058  1.00  0.00    -0.051 Br
HETATM   16  H   UNL     1     -41.142  55.557 -50.995  1.00  0.00     0.165 HD
HETATM   17  C   UNL     1     -42.231  55.425 -52.803  1.00  0.00     0.102 A 
ENDBRANCH   6   7
ENDBRANCH   2   5
BRANCH   1  18
HETATM   18  C   UNL     1     -44.433  56.120 -59.097  1.00  0.00     0.067 A 
HETATM   19  C   UNL     1     -45.534  56.992 -59.052  1.00  0.00     0.084 A 
HETATM   20  C   UNL     1     -46.455  56.999 -60.111  1.00  0.00     0.038 A 
HETATM   21  C   UNL     1     -46.309  56.118 -61.183  1.00  0.00     0.003 A 
HETATM   22  C   UNL     1     -45.242  55.225 -61.213  1.00  0.00     0.001 A 
HETATM   23  C   UNL     1     -44.309  55.227 -60.177  1.00  0.00     0.020 A 
BRANCH  19  24
HETATM   24  O   UNL     1     -45.660  57.856 -57.992  1.00  0.00    -0.350 OA
BRANCH  24  25
HETATM   25  C   UNL     1     -45.836  59.225 -58.380  1.00  0.00     0.171 C 
HETATM   26  C   UNL     1     -44.484  59.911 -58.317  1.00  0.00     0.034 C 
ENDBRANCH  24  25
ENDBRANCH  19  24
ENDBRANCH   1  18
TORSDOF 5
ENDMDL
MODEL 3
REMARK VINA RESULT:      -7.6      3.545      4.793
REMARK  5 active torsions:
REMARK  status: ('A' for Active; 'I' for Inactive)
REMARK    1  A    between atoms: C_2  and  O_3 
REMARK    2  A    between atoms: O_3  and  C_4 
REMARK    3  A    between atoms: C_5  and  C_6 
REMARK       I    between atoms: C_6  and  N_7 
REMARK    4  A    between atoms: N_7  and  N_8 
REMARK    5  A    between atoms: C_9  and  C_10 
ROOT
HETATM    1  C   UNL     1     -40.723  53.351 -51.618  1.00  0.00     0.274 C 
HETATM    2  N   UNL     1     -42.023  53.785 -51.823  1.00  0.00    -0.243 N 
HETATM    3  O   UNL     1     -39.869  53.968 -50.984  1.00  0.00    -0.266 OA
HETATM    4  H   UNL     1     -42.665  53.205 -52.356  1.00  0.00     0.192 HD
ENDROOT
BRANCH   2   5
HETATM    5  N   UNL     1     -42.406  55.017 -51.379  1.00  0.00    -0.183 NA
HETATM    6  C   UNL     1     -43.090  55.730 -52.212  1.00  0.00     0.152 C 
BRANCH   6   7
HETATM    7  C   UNL     1     -43.499  57.066 -51.827  1.00  0.00     0.011 A 
HETATM    8  C   UNL     1     -42.673  58.139 -51.362  1.00  0.00     0.005 A 
HETATM    9  C   UNL     1     -43.509  59.224 -51.086  1.00  0.00     0.043 A 
HETATM   10  C   UNL     1     -41.288  58.288 -51.133  1.00  0.00     0.033 A 
HETATM   11  C   UNL     1     -43.038  60.446 -50.592  1.00  0.00     0.031 A 
HETATM   12  N   UNL     1     -44.794  58.830 -51.383  1.00  0.00    -0.364 N 
HETATM   13  C   UNL     1     -41.664  60.568 -50.372  1.00  0.00     0.021 A 
HETATM   14  C   UNL     1     -40.805  59.505 -50.639  1.00  0.00     0.012 A 
HETATM   15 BR   UNL     1     -38.950  59.705 -50.323  1.00  0.00    -0.051 Br
HETATM   16  H   UNL     1     -45.615  59.410 -51.277  1.00  0.00     0.165 HD
HETATM   17  C   UNL     1     -44.800  57.537 -51.823  1.00  0.00     0.102 A 
ENDBRANCH   6   7
ENDBRANCH   2   5
BRANCH   1  18
HETATM   18  C   UNL     1     -40.348  52.067 -52.285  1.00  0.00     0.067 A 
HETATM   19  C   UNL     1     -40.497  51.817 -53.660  1.00  0.00     0.084 A 
HETATM   20  C   UNL     1     -40.053  50.598 -54.194  1.00  0.00     0.038 A 
HETATM   21  C   UNL     1     -39.507  49.617 -53.365  1.00  0.00     0.003 A 
HETATM   22  C   UNL     1     -39.393  49.845 -51.997  1.00  0.00     0.001 A 
HETATM   23  C   UNL     1     -39.810  51.062 -51.460  1.00  0.00     0.020 A 
BRANCH  19  24
HETATM   24  O   UNL     1     -41.032  52.795 -54.463  1.00  0.00    -0.350 OA
BRANCH  24  25
HETATM   25  C   UNL     1     -40.054  53.679 -55.027  1.00  0.00     0.171 C 
HETATM   26  C   UNL     1     -40.574  55.099 -54.901  1.00  0.00     0.034 C 
ENDBRANCH  24  25
ENDBRANCH  19  24
ENDBRANCH   1  18
TORSDOF 5
ENDMDL
MODEL 4
REMARK VINA RESULT:      -7.4      2.672      3.366
REMARK  5 active torsions:
REMARK  status: ('A' for Active; 'I' for Inactive)
REMARK    1  A    between atoms: C_2  and  O_3 
REMARK    2  A    between atoms: O_3  and  C_4 
REMARK    3  A    between atoms: C_5  and  C_6 
REMARK       I    between atoms: C_6  and  N_7 
REMARK    4  A    between atoms: N_7  and  N_8 
REMARK    5  A    between atoms: C_9  and  C_10 
ROOT
HETATM    1  C   UNL     1     -40.726  53.719 -53.949  1.00  0.00     0.274 C 
HETATM    2  N   UNL     1     -41.687  54.369 -53.191  1.00  0.00    -0.243 N 
HETATM    3  O   UNL     1     -40.273  54.136 -55.014  1.00  0.00    -0.266 OA
HETATM    4  H   UNL     1     -41.999  53.954 -52.317  1.00  0.00     0.192 HD
ENDROOT
BRANCH   2   5
HETATM    5  N   UNL     1     -42.262  55.514 -53.658  1.00  0.00    -0.183 NA
HETATM    6  C   UNL     1     -43.446  55.775 -53.211  1.00  0.00     0.152 C 
BRANCH   6   7
HETATM    7  C   UNL     1     -44.139  56.954 -53.693  1.00  0.00     0.011 A 
HETATM    8  C   UNL     1     -44.148  58.265 -53.116  1.00  0.00     0.005 A 
HETATM    9  C   UNL     1     -44.974  59.065 -53.909  1.00  0.00     0.043 A 
HETATM   10  C   UNL     1     -43.543  58.847 -51.981  1.00  0.00     0.033 A 
HETATM   11  C   UNL     1     -45.230  60.413 -53.628  1.00  0.00     0.031 A 
HETATM   12  N   UNL     1     -45.440  58.276 -54.936  1.00  0.00    -0.364 N 
HETATM   13  C   UNL     1     -44.622  60.966 -52.498  1.00  0.00     0.021 A 
HETATM   14  C   UNL     1     -43.792  60.193 -51.690  1.00  0.00     0.012 A 
HETATM   15 BR   UNL     1     -42.989  60.974 -50.164  1.00  0.00    -0.051 Br
HETATM   16  H   UNL     1     -46.066  58.587 -55.665  1.00  0.00     0.165 HD
HETATM   17  C   UNL     1     -44.949  57.007 -54.812  1.00  0.00     0.102 A 
ENDBRANCH   6   7
ENDBRANCH   2   5
BRANCH   1  18
HETATM   18  C   UNL     1     -40.278  52.388 -53.439  1.00  0.00     0.067 A 
HETATM   19  C   UNL     1     -39.816  52.157 -52.132  1.00  0.00     0.084 A 
HETATM   20  C   UNL     1     -39.479  50.853 -51.737  1.00  0.00     0.038 A 
HETATM   21  C   UNL     1     -39.556  49.795 -52.645  1.00  0.00     0.003 A 
HETATM   22  C   UNL     1     -39.975  50.026 -53.951  1.00  0.00     0.001 A 
HETATM   23  C   UNL     1     -40.335  51.313 -54.346  1.00  0.00     0.020 A 
BRANCH  19  24
HETATM   24  O   UNL     1     -39.751  53.208 -51.250  1.00  0.00    -0.350 OA
BRANCH  24  25
HETATM   25  C   UNL     1     -40.439  52.970 -50.015  1.00  0.00     0.171 C 
HETATM   26  C   UNL     1     -40.970  54.298 -49.507  1.00  0.00     0.034 C 
ENDBRANCH  24  25
ENDBRANCH  19  24
ENDBRANCH   1  18
TORSDOF 5
ENDMDL
MODEL 5
REMARK VINA RESULT:      -7.4      3.426      8.510
REMARK  5 active torsions:
REMARK  status: ('A' for Active; 'I' for Inactive)
REMARK    1  A    between atoms: C_2  and  O_3 
REMARK    2  A    between atoms: O_3  and  C_4 
REMARK    3  A    between atoms: C_5  and  C_6 
REMARK       I    between atoms: C_6  and  N_7 
REMARK    4  A    between atoms: N_7  and  N_8 
REMARK    5  A    between atoms: C_9  and  C_10 
ROOT
HETATM    1  C   UNL     1     -42.179  58.469 -57.073  1.00  0.00     0.274 C 
HETATM    2  N   UNL     1     -42.223  57.128 -56.730  1.00  0.00    -0.243 N 
HETATM    3  O   UNL     1     -41.876  59.381 -56.306  1.00  0.00    -0.266 OA
HETATM    4  H   UNL     1     -42.479  56.440 -57.433  1.00  0.00     0.192 HD
ENDROOT
BRANCH   2   5
HETATM    5  N   UNL     1     -42.003  56.749 -55.438  1.00  0.00    -0.183 NA
HETATM    6  C   UNL     1     -41.338  55.653 -55.276  1.00  0.00     0.152 C 
BRANCH   6   7
HETATM    7  C   UNL     1     -41.099  55.165 -53.932  1.00  0.00     0.011 A 
HETATM    8  C   UNL     1     -40.653  53.862 -53.536  1.00  0.00     0.005 A 
HETATM    9  C   UNL     1     -40.596  53.846 -52.140  1.00  0.00     0.043 A 
HETATM   10  C   UNL     1     -40.308  52.685 -54.234  1.00  0.00     0.033 A 
HETATM   11  C   UNL     1     -40.214  52.717 -51.405  1.00  0.00     0.031 A 
HETATM   12  N   UNL     1     -40.979  55.093 -51.703  1.00  0.00    -0.364 N 
HETATM   13  C   UNL     1     -39.878  51.563 -52.117  1.00  0.00     0.021 A 
HETATM   14  C   UNL     1     -39.925  51.550 -53.509  1.00  0.00     0.012 A 
HETATM   15 BR   UNL     1     -39.468  49.968 -54.441  1.00  0.00    -0.051 Br
HETATM   16  H   UNL     1     -41.037  55.373 -50.734  1.00  0.00     0.165 HD
HETATM   17  C   UNL     1     -41.288  55.890 -52.769  1.00  0.00     0.102 A 
ENDBRANCH   6   7
ENDBRANCH   2   5
BRANCH   1  18
HETATM   18  C   UNL     1     -42.599  58.803 -58.469  1.00  0.00     0.067 A 
HETATM   19  C   UNL     1     -43.592  58.111 -59.182  1.00  0.00     0.084 A 
HETATM   20  C   UNL     1     -43.955  58.548 -60.465  1.00  0.00     0.038 A 
HETATM   21  C   UNL     1     -43.305  59.633 -61.054  1.00  0.00     0.003 A 
HETATM   22  C   UNL     1     -42.293  60.297 -60.368  1.00  0.00     0.001 A 
HETATM   23  C   UNL     1     -41.943  59.885 -59.083  1.00  0.00     0.020 A 
BRANCH  19  24
HETATM   24  O   UNL     1     -44.226  57.047 -58.586  1.00  0.00    -0.350 OA
BRANCH  24  25
HETATM   25  C   UNL     1     -44.951  56.219 -59.504  1.00  0.00     0.171 C 
HETATM   26  C   UNL     1     -44.221  54.894 -59.622  1.00  0.00     0.034 C 
ENDBRANCH  24  25
ENDBRANCH  19  24
ENDBRANCH   1  18
TORSDOF 5
ENDMDL
MODEL 6
REMARK VINA RESULT:      -7.3      3.263      8.564
REMARK  5 active torsions:
REMARK  status: ('A' for Active; 'I' for Inactive)
REMARK    1  A    between atoms: C_2  and  O_3 
REMARK    2  A    between atoms: O_3  and  C_4 
REMARK    3  A    between atoms: C_5  and  C_6 
REMARK       I    between atoms: C_6  and  N_7 
REMARK    4  A    between atoms: N_7  and  N_8 
REMARK    5  A    between atoms: C_9  and  C_10 
ROOT
HETATM    1  C   UNL     1     -42.881  56.531 -56.168  1.00  0.00     0.274 C 
HETATM    2  N   UNL     1     -41.866  55.602 -56.329  1.00  0.00    -0.243 N 
HETATM    3  O   UNL     1     -43.652  56.568 -55.210  1.00  0.00    -0.266 OA
HETATM    4  H   UNL     1     -41.270  55.650 -57.151  1.00  0.00     0.192 HD
ENDROOT
BRANCH   2   5
HETATM    5  N   UNL     1     -41.724  54.587 -55.429  1.00  0.00    -0.183 NA
HETATM    6  C   UNL     1     -40.509  54.267 -55.125  1.00  0.00     0.152 C 
BRANCH   6   7
HETATM    7  C   UNL     1     -40.276  53.170 -54.206  1.00  0.00     0.011 A 
HETATM    8  C   UNL     1     -40.394  53.179 -52.778  1.00  0.00     0.005 A 
HETATM    9  C   UNL     1     -40.044  51.906 -52.321  1.00  0.00     0.043 A 
HETATM   10  C   UNL     1     -40.751  54.157 -51.825  1.00  0.00     0.033 A 
HETATM   11  C   UNL     1     -40.029  51.559 -50.965  1.00  0.00     0.031 A 
HETATM   12  N   UNL     1     -39.737  51.148 -53.428  1.00  0.00    -0.364 N 
HETATM   13  C   UNL     1     -40.385  52.545 -50.040  1.00  0.00     0.021 A 
HETATM   14  C   UNL     1     -40.739  53.822 -50.467  1.00  0.00     0.012 A 
HETATM   15 BR   UNL     1     -41.210  55.133 -49.186  1.00  0.00    -0.051 Br
HETATM   16  H   UNL     1     -39.443  50.182 -53.402  1.00  0.00     0.165 HD
HETATM   17  C   UNL     1     -39.868  51.898 -54.562  1.00  0.00     0.102 A 
ENDBRANCH   6   7
ENDBRANCH   2   5
BRANCH   1  18
HETATM   18  C   UNL     1     -43.066  57.502 -57.289  1.00  0.00     0.067 A 
HETATM   19  C   UNL     1     -43.129  57.141 -58.645  1.00  0.00     0.084 A 
HETATM   20  C   UNL     1     -43.369  58.127 -59.614  1.00  0.00     0.038 A 
HETATM   21  C   UNL     1     -43.499  59.467 -59.245  1.00  0.00     0.003 A 
HETATM   22  C   UNL     1     -43.397  59.835 -57.907  1.00  0.00     0.001 A 
HETATM   23  C   UNL     1     -43.183  58.858 -56.935  1.00  0.00     0.020 A 
BRANCH  19  24
HETATM   24  O   UNL     1     -43.004  55.817 -58.992  1.00  0.00    -0.350 OA
BRANCH  24  25
HETATM   25  C   UNL     1     -43.845  55.424 -60.085  1.00  0.00     0.171 C 
HETATM   26  C   UNL     1     -44.670  54.231 -59.640  1.00  0.00     0.034 C 
ENDBRANCH  24  25
ENDBRANCH  19  24
ENDBRANCH   1  18
TORSDOF 5
ENDMDL
MODEL 7
REMARK VINA RESULT:      -7.3      3.271      4.598
REMARK  5 active torsions:
REMARK  status: ('A' for Active; 'I' for Inactive)
REMARK    1  A    between atoms: C_2  and  O_3 
REMARK    2  A    between atoms: O_3  and  C_4 
REMARK    3  A    between atoms: C_5  and  C_6 
REMARK       I    between atoms: C_6  and  N_7 
REMARK    4  A    between atoms: N_7  and  N_8 
REMARK    5  A    between atoms: C_9  and  C_10 
ROOT
HETATM    1  C   UNL     1     -40.359  53.355 -51.386  1.00  0.00     0.274 C 
HETATM    2  N   UNL     1     -41.531  54.061 -51.603  1.00  0.00    -0.243 N 
HETATM    3  O   UNL     1     -39.462  53.701 -50.619  1.00  0.00    -0.266 OA
HETATM    4  H   UNL     1     -42.223  53.696 -52.252  1.00  0.00     0.192 HD
ENDROOT
BRANCH   2   5
HETATM    5  N   UNL     1     -41.713  55.276 -51.008  1.00  0.00    -0.183 NA
HETATM    6  C   UNL     1     -41.409  56.307 -51.725  1.00  0.00     0.152 C 
BRANCH   6   7
HETATM    7  C   UNL     1     -41.537  57.631 -51.147  1.00  0.00     0.011 A 
HETATM    8  C   UNL     1     -42.395  58.696 -51.571  1.00  0.00     0.005 A 
HETATM    9  C   UNL     1     -42.153  59.788 -50.734  1.00  0.00     0.043 A 
HETATM   10  C   UNL     1     -43.348  58.843 -52.603  1.00  0.00     0.033 A 
HETATM   11  C   UNL     1     -42.808  61.017 -50.872  1.00  0.00     0.031 A 
HETATM   12  N   UNL     1     -41.193  59.399 -49.827  1.00  0.00    -0.364 N 
HETATM   13  C   UNL     1     -43.745  61.139 -51.902  1.00  0.00     0.021 A 
HETATM   14  C   UNL     1     -44.009  60.068 -52.751  1.00  0.00     0.012 A 
HETATM   15 BR   UNL     1     -45.280  60.271 -54.138  1.00  0.00    -0.051 Br
HETATM   16  H   UNL     1     -40.816  59.987 -49.098  1.00  0.00     0.165 HD
HETATM   17  C   UNL     1     -40.814  58.109 -50.069  1.00  0.00     0.102 A 
ENDBRANCH   6   7
ENDBRANCH   2   5
BRANCH   1  18
HETATM   18  C   UNL     1     -40.176  52.120 -52.210  1.00  0.00     0.067 A 
HETATM   19  C   UNL     1     -40.514  52.021 -53.570  1.00  0.00     0.084 A 
HETATM   20  C   UNL     1     -40.241  50.833 -54.266  1.00  0.00     0.038 A 
HETATM   21  C   UNL     1     -39.680  49.738 -53.606  1.00  0.00     0.003 A 
HETATM   22  C   UNL     1     -39.381  49.818 -52.250  1.00  0.00     0.001 A 
HETATM   23  C   UNL     1     -39.626  51.003 -51.556  1.00  0.00     0.020 A 
BRANCH  19  24
HETATM   24  O   UNL     1     -41.060  53.109 -54.206  1.00  0.00    -0.350 OA
BRANCH  24  25
HETATM   25  C   UNL     1     -40.144  53.793 -55.070  1.00  0.00     0.171 C 
HETATM   26  C   UNL     1     -40.407  55.283 -54.951  1.00  0.00     0.034 C 
ENDBRANCH  24  25
ENDBRANCH  19  24
ENDBRANCH   1  18
TORSDOF 5
ENDMDL
MODEL 8
REMARK VINA RESULT:      -7.2      5.770      8.796
REMARK  5 active torsions:
REMARK  status: ('A' for Active; 'I' for Inactive)
REMARK    1  A    between atoms: C_2  and  O_3 
REMARK    2  A    between atoms: O_3  and  C_4 
REMARK    3  A    between atoms: C_5  and  C_6 
REMARK       I    between atoms: C_6  and  N_7 
REMARK    4  A    between atoms: N_7  and  N_8 
REMARK    5  A    between atoms: C_9  and  C_10 
ROOT
HETATM    1  C   UNL     1     -45.415  59.490 -50.220  1.00  0.00     0.274 C 
HETATM    2  N   UNL     1     -44.241  58.851 -50.583  1.00  0.00    -0.243 N 
HETATM    3  O   UNL     1     -46.541  59.147 -50.578  1.00  0.00    -0.266 OA
HETATM    4  H   UNL     1     -43.353  59.199 -50.234  1.00  0.00     0.192 HD
ENDROOT
BRANCH   2   5
HETATM    5  N   UNL     1     -44.278  57.812 -51.467  1.00  0.00    -0.183 NA
HETATM    6  C   UNL     1     -43.287  57.737 -52.293  1.00  0.00     0.152 C 
BRANCH   6   7
HETATM    7  C   UNL     1     -43.276  56.684 -53.290  1.00  0.00     0.011 A 
HETATM    8  C   UNL     1     -42.542  55.454 -53.261  1.00  0.00     0.005 A 
HETATM    9  C   UNL     1     -42.823  54.771 -54.447  1.00  0.00     0.043 A 
HETATM   10  C   UNL     1     -41.648  54.861 -52.344  1.00  0.00     0.033 A 
HETATM   11  C   UNL     1     -42.259  53.530 -54.766  1.00  0.00     0.031 A 
HETATM   12  N   UNL     1     -43.704  55.549 -55.164  1.00  0.00    -0.364 N 
HETATM   13  C   UNL     1     -41.376  52.964 -53.843  1.00  0.00     0.021 A 
HETATM   14  C   UNL     1     -41.077  53.622 -52.652  1.00  0.00     0.012 A 
HETATM   15 BR   UNL     1     -39.872  52.827 -51.428  1.00  0.00    -0.051 Br
HETATM   16  H   UNL     1     -44.081  55.308 -56.070  1.00  0.00     0.165 HD
HETATM   17  C   UNL     1     -43.978  56.699 -54.481  1.00  0.00     0.102 A 
ENDBRANCH   6   7
ENDBRANCH   2   5
BRANCH   1  18
HETATM   18  C   UNL     1     -45.260  60.719 -49.383  1.00  0.00     0.067 A 
HETATM   19  C   UNL     1     -45.633  60.808 -48.031  1.00  0.00     0.084 A 
HETATM   20  C   UNL     1     -45.385  61.992 -47.321  1.00  0.00     0.038 A 
HETATM   21  C   UNL     1     -44.814  63.095 -47.958  1.00  0.00     0.003 A 
HETATM   22  C   UNL     1     -44.480  63.025 -49.307  1.00  0.00     0.001 A 
HETATM   23  C   UNL     1     -44.700  61.845 -50.015  1.00  0.00     0.020 A 
BRANCH  19  24
HETATM   24  O   UNL     1     -46.189  59.712 -47.417  1.00  0.00    -0.350 OA
BRANCH  24  25
HETATM   25  C   UNL     1     -46.464  59.907 -46.024  1.00  0.00     0.171 C 
HETATM   26  C   UNL     1     -47.121  58.647 -45.492  1.00  0.00     0.034 C 
ENDBRANCH  24  25
ENDBRANCH  19  24
ENDBRANCH   1  18
TORSDOF 5
ENDMDL
MODEL 9
REMARK VINA RESULT:      -7.1      2.375      3.800
REMARK  5 active torsions:
REMARK  status: ('A' for Active; 'I' for Inactive)
REMARK    1  A    between atoms: C_2  and  O_3 
REMARK    2  A    between atoms: O_3  and  C_4 
REMARK    3  A    between atoms: C_5  and  C_6 
REMARK       I    between atoms: C_6  and  N_7 
REMARK    4  A    between atoms: N_7  and  N_8 
REMARK    5  A    between atoms: C_9  and  C_10 
ROOT
HETATM    1  C   UNL     1     -42.353  54.416 -53.951  1.00  0.00     0.274 C 
HETATM    2  N   UNL     1     -41.635  54.625 -55.117  1.00  0.00    -0.243 N 
HETATM    3  O   UNL     1     -43.575  54.514 -53.851  1.00  0.00    -0.266 OA
HETATM    4  H   UNL     1     -40.624  54.515 -55.109  1.00  0.00     0.192 HD
ENDROOT
BRANCH   2   5
HETATM    5  N   UNL     1     -42.276  55.053 -56.243  1.00  0.00    -0.183 NA
HETATM    6  C   UNL     1     -42.161  56.311 -56.515  1.00  0.00     0.152 C 
BRANCH   6   7
HETATM    7  C   UNL     1     -42.848  56.848 -57.673  1.00  0.00     0.011 A 
HETATM    8  C   UNL     1     -42.664  58.127 -58.290  1.00  0.00     0.005 A 
HETATM    9  C   UNL     1     -43.564  58.213 -59.355  1.00  0.00     0.043 A 
HETATM   10  C   UNL     1     -41.825  59.233 -58.033  1.00  0.00     0.033 A 
HETATM   11  C   UNL     1     -43.673  59.342 -60.175  1.00  0.00     0.031 A 
HETATM   12  N   UNL     1     -44.261  57.027 -59.393  1.00  0.00    -0.364 N 
HETATM   13  C   UNL     1     -42.833  60.425 -59.900  1.00  0.00     0.021 A 
HETATM   14  C   UNL     1     -41.925  60.368 -58.846  1.00  0.00     0.012 A 
HETATM   15 BR   UNL     1     -40.807  61.855 -58.500  1.00  0.00    -0.051 Br
HETATM   16  H   UNL     1     -44.986  56.804 -60.060  1.00  0.00     0.165 HD
HETATM   17  C   UNL     1     -43.843  56.204 -58.386  1.00  0.00     0.102 A 
ENDBRANCH   6   7
ENDBRANCH   2   5
BRANCH   1  18
HETATM   18  C   UNL     1     -41.546  54.114 -52.729  1.00  0.00     0.067 A 
HETATM   19  C   UNL     1     -40.597  53.081 -52.644  1.00  0.00     0.084 A 
HETATM   20  C   UNL     1     -39.848  52.924 -51.469  1.00  0.00     0.038 A 
HETATM   21  C   UNL     1     -40.069  53.756 -50.370  1.00  0.00     0.003 A 
HETATM   22  C   UNL     1     -41.035  54.755 -50.436  1.00  0.00     0.001 A 
HETATM   23  C   UNL     1     -41.768  54.934 -51.608  1.00  0.00     0.020 A 
BRANCH  19  24
HETATM   24  O   UNL     1     -40.388  52.273 -53.736  1.00  0.00    -0.350 OA
BRANCH  24  25
HETATM   25  C   UNL     1     -39.602  51.108 -53.450  1.00  0.00     0.171 C 
HETATM   26  C   UNL     1     -40.031  50.006 -54.401  1.00  0.00     0.034 C 
ENDBRANCH  24  25
ENDBRANCH  19  24
ENDBRANCH   1  18
TORSDOF 5
ENDMDL
MODEL 10
REMARK VINA RESULT:      -6.9      2.103      3.587
REMARK  5 active torsions:
REMARK  status: ('A' for Active; 'I' for Inactive)
REMARK    1  A    between atoms: C_2  and  O_3 
REMARK    2  A    between atoms: O_3  and  C_4 
REMARK    3  A    between atoms: C_5  and  C_6 
REMARK       I    between atoms: C_6  and  N_7 
REMARK    4  A    between atoms: N_7  and  N_8 
REMARK    5  A    between atoms: C_9  and  C_10 
ROOT
HETATM    1  C   UNL     1     -41.650  56.278 -52.407  1.00  0.00     0.274 C 
HETATM    2  N   UNL     1     -42.672  55.977 -53.292  1.00  0.00    -0.243 N 
HETATM    3  O   UNL     1     -41.036  57.343 -52.379  1.00  0.00    -0.266 OA
HETATM    4  H   UNL     1     -43.130  55.071 -53.238  1.00  0.00     0.192 HD
ENDROOT
BRANCH   2   5
HETATM    5  N   UNL     1     -43.002  56.862 -54.276  1.00  0.00    -0.183 NA
HETATM    6  C   UNL     1     -42.264  56.829 -55.337  1.00  0.00     0.152 C 
BRANCH   6   7
HETATM    7  C   UNL     1     -42.528  57.768 -56.410  1.00  0.00     0.011 A 
HETATM    8  C   UNL     1     -43.115  57.499 -57.688  1.00  0.00     0.005 A 
HETATM    9  C   UNL     1     -43.142  58.702 -58.397  1.00  0.00     0.043 A 
HETATM   10  C   UNL     1     -43.613  56.339 -58.319  1.00  0.00     0.033 A 
HETATM   11  C   UNL     1     -43.637  58.809 -59.702  1.00  0.00     0.031 A 
HETATM   12  N   UNL     1     -42.603  59.668 -57.578  1.00  0.00    -0.364 N 
HETATM   13  C   UNL     1     -44.124  57.646 -60.307  1.00  0.00     0.021 A 
HETATM   14  C   UNL     1     -44.111  56.433 -59.624  1.00  0.00     0.012 A 
HETATM   15 BR   UNL     1     -44.773  54.878 -60.476  1.00  0.00    -0.051 Br
HETATM   16  H   UNL     1     -42.490  60.641 -57.829  1.00  0.00     0.165 HD
HETATM   17  C   UNL     1     -42.228  59.117 -56.387  1.00  0.00     0.102 A 
ENDBRANCH   6   7
ENDBRANCH   2   5
BRANCH   1  18
HETATM   18  C   UNL     1     -41.246  55.182 -51.473  1.00  0.00     0.067 A 
HETATM   19  C   UNL     1     -41.165  53.826 -51.835  1.00  0.00     0.084 A 
HETATM   20  C   UNL     1     -40.713  52.885 -50.897  1.00  0.00     0.038 A 
HETATM   21  C   UNL     1     -40.388  53.279 -49.598  1.00  0.00     0.003 A 
HETATM   22  C   UNL     1     -40.505  54.614 -49.224  1.00  0.00     0.001 A 
HETATM   23  C   UNL     1     -40.930  55.560 -50.156  1.00  0.00     0.020 A 
BRANCH  19  24
HETATM   24  O   UNL     1     -41.484  53.455 -53.119  1.00  0.00    -0.350 OA
BRANCH  24  25
HETATM   25  C   UNL     1     -40.372  52.948 -53.867  1.00  0.00     0.171 C 
HETATM   26  C   UNL     1     -40.150  53.860 -55.059  1.00  0.00     0.034 C 
ENDBRANCH  24  25
ENDBRANCH  19  24
ENDBRANCH   1  18
TORSDOF 5
ENDMDL
