MODEL 1
REMARK VINA RESULT:      -7.5      0.000      0.000
REMARK  6 active torsions:
REMARK  status: ('A' for Active; 'I' for Inactive)
REMARK    1  A    between atoms: C_2  and  O_3 
REMARK    2  A    between atoms: O_3  and  C_4 
REMARK    3  A    between atoms: C_4  and  C_5 
REMARK    4  A    between atoms: C_6  and  O_7 
REMARK    5  A    between atoms: C_12  and  O_13 
REMARK    6  A    between atoms: C_17  and  C_18 
ROOT
HETATM    1  C   UNL     1     -41.495  57.173 -53.473  1.00  0.00     0.133 C 
HETATM    2  C   UNL     1     -42.863  57.703 -54.027  1.00  0.00     0.073 C 
HETATM    3  C   UNL     1     -43.457  56.706 -55.035  1.00  0.00     0.047 C 
HETATM    4  C   UNL     1     -43.914  58.015 -52.925  1.00  0.00     0.097 C 
HETATM    5  C   UNL     1     -43.906  56.941 -51.909  1.00  0.00     0.042 A 
HETATM    6  C   UNL     1     -42.865  56.084 -51.618  1.00  0.00     0.030 A 
HETATM    7  C   UNL     1     -43.378  55.314 -50.561  1.00  0.00     0.190 A 
HETATM    8  N   UNL     1     -44.624  55.627 -50.225  1.00  0.00    -0.149 NA
HETATM    9  N   UNL     1     -44.930  56.631 -51.064  1.00  0.00    -0.279 N 
HETATM   10  H   UNL     1     -45.850  57.055 -50.991  1.00  0.00     0.189 HD
HETATM   11  C   UNL     1     -41.540  56.149 -52.301  1.00  0.00     0.075 C 
ENDROOT
BRANCH  11  12
HETATM   12  C   UNL     1     -41.129  54.744 -52.720  1.00  0.00    -0.045 A 
HETATM   13  C   UNL     1     -40.320  53.898 -51.946  1.00  0.00     0.050 A 
HETATM   14  C   UNL     1     -40.006  52.617 -52.395  1.00  0.00     0.117 A 
HETATM   15  F   UNL     1     -39.229  51.829 -51.642  1.00  0.00    -0.206 F 
HETATM   16  C   UNL     1     -40.485  52.142 -53.610  1.00  0.00     0.042 A 
HETATM   17  C   UNL     1     -41.296  52.961 -54.388  1.00  0.00     0.004 A 
HETATM   18  C   UNL     1     -41.620  54.247 -53.945  1.00  0.00     0.008 A 
ENDBRANCH  11  12
BRANCH   1  19
HETATM   19  C   UNL     1     -40.650  58.336 -52.994  1.00  0.00     0.267 C 
HETATM   20  O   UNL     1     -40.245  59.243 -53.708  1.00  0.00    -0.265 OA
BRANCH  19  21
HETATM   21  O   UNL     1     -40.406  58.218 -51.658  1.00  0.00    -0.316 OA
BRANCH  21  22
HETATM   22  C   UNL     1     -40.170  59.440 -50.932  1.00  0.00     0.123 C 
HETATM   23  C   UNL     1     -38.713  59.517 -50.485  1.00  0.00     0.040 C 
HETATM   24  C   UNL     1     -41.094  59.416 -49.721  1.00  0.00     0.040 C 
ENDBRANCH  21  22
ENDBRANCH  19  21
ENDBRANCH   1  19
BRANCH   2  25
HETATM   25  O   UNL     1     -42.643  58.896 -54.808  1.00  0.00    -0.389 OA
HETATM   26  H   UNL     1     -43.381  58.982 -55.444  1.00  0.00     0.210 HD
ENDBRANCH   2  25
BRANCH   7  27
HETATM   27  O   UNL     1     -42.808  54.327 -49.865  1.00  0.00    -0.343 OA
HETATM   28  H   UNL     1     -43.068  54.390 -48.934  1.00  0.00     0.219 HD
ENDBRANCH   7  27
TORSDOF 6
ENDMDL
MODEL 2
REMARK VINA RESULT:      -7.5      1.693      2.064
REMARK  6 active torsions:
REMARK  status: ('A' for Active; 'I' for Inactive)
REMARK    1  A    between atoms: C_2  and  O_3 
REMARK    2  A    between atoms: O_3  and  C_4 
REMARK    3  A    between atoms: C_4  and  C_5 
REMARK    4  A    between atoms: C_6  and  O_7 
REMARK    5  A    between atoms: C_12  and  O_13 
REMARK    6  A    between atoms: C_17  and  C_18 
ROOT
HETATM    1  C   UNL     1     -41.120  57.940 -53.478  1.00  0.00     0.133 C 
HETATM    2  C   UNL     1     -42.091  59.046 -54.021  1.00  0.00     0.073 C 
HETATM    3  C   UNL     1     -42.842  58.539 -55.263  1.00  0.00     0.047 C 
HETATM    4  C   UNL     1     -43.114  59.561 -52.970  1.00  0.00     0.097 C 
HETATM    5  C   UNL     1     -43.662  58.420 -52.206  1.00  0.00     0.042 A 
HETATM    6  C   UNL     1     -43.069  57.189 -52.016  1.00  0.00     0.030 A 
HETATM    7  C   UNL     1     -43.990  56.521 -51.192  1.00  0.00     0.190 A 
HETATM    8  N   UNL     1     -45.070  57.237 -50.903  1.00  0.00    -0.149 NA
HETATM    9  N   UNL     1     -44.849  58.402 -51.534  1.00  0.00    -0.279 N 
HETATM   10  H   UNL     1     -45.547  59.135 -51.451  1.00  0.00     0.189 HD
HETATM   11  C   UNL     1     -41.723  56.840 -52.556  1.00  0.00     0.075 C 
ENDROOT
BRANCH  11  12
HETATM   12  C   UNL     1     -41.797  55.475 -53.226  1.00  0.00    -0.045 A 
HETATM   13  C   UNL     1     -42.655  55.169 -54.294  1.00  0.00     0.050 A 
HETATM   14  C   UNL     1     -42.645  53.898 -54.865  1.00  0.00     0.117 A 
HETATM   15  F   UNL     1     -43.475  53.627 -55.880  1.00  0.00    -0.206 F 
HETATM   16  C   UNL     1     -41.790  52.906 -54.400  1.00  0.00     0.042 A 
HETATM   17  C   UNL     1     -40.926  53.191 -53.348  1.00  0.00     0.004 A 
HETATM   18  C   UNL     1     -40.925  54.465 -52.771  1.00  0.00     0.008 A 
ENDBRANCH  11  12
BRANCH   1  19
HETATM   19  C   UNL     1     -39.994  58.585 -52.695  1.00  0.00     0.267 C 
HETATM   20  O   UNL     1     -39.026  59.141 -53.197  1.00  0.00    -0.265 OA
BRANCH  19  21
HETATM   21  O   UNL     1     -40.216  58.449 -51.358  1.00  0.00    -0.316 OA
BRANCH  21  22
HETATM   22  C   UNL     1     -40.203  59.657 -50.573  1.00  0.00     0.123 C 
HETATM   23  C   UNL     1     -38.834  59.856 -49.929  1.00  0.00     0.040 C 
HETATM   24  C   UNL     1     -41.273  59.495 -49.500  1.00  0.00     0.040 C 
ENDBRANCH  21  22
ENDBRANCH  19  21
ENDBRANCH   1  19
BRANCH   2  25
HETATM   25  O   UNL     1     -41.327  60.167 -54.511  1.00  0.00    -0.389 OA
HETATM   26  H   UNL     1     -40.471  59.829 -54.843  1.00  0.00     0.210 HD
ENDBRANCH   2  25
BRANCH   7  27
HETATM   27  O   UNL     1     -43.941  55.291 -50.675  1.00  0.00    -0.343 OA
HETATM   28  H   UNL     1     -43.033  55.082 -50.410  1.00  0.00     0.219 HD
ENDBRANCH   7  27
TORSDOF 6
ENDMDL
MODEL 3
REMARK VINA RESULT:      -7.2      2.227      3.938
REMARK  6 active torsions:
REMARK  status: ('A' for Active; 'I' for Inactive)
REMARK    1  A    between atoms: C_2  and  O_3 
REMARK    2  A    between atoms: O_3  and  C_4 
REMARK    3  A    between atoms: C_4  and  C_5 
REMARK    4  A    between atoms: C_6  and  O_7 
REMARK    5  A    between atoms: C_12  and  O_13 
REMARK    6  A    between atoms: C_17  and  C_18 
ROOT
HETATM    1  C   UNL     1     -41.743  55.594 -51.005  1.00  0.00     0.133 C 
HETATM    2  C   UNL     1     -41.685  57.156 -50.866  1.00  0.00     0.073 C 
HETATM    3  C   UNL     1     -40.557  57.730 -51.738  1.00  0.00     0.047 C 
HETATM    4  C   UNL     1     -43.021  57.871 -51.209  1.00  0.00     0.097 C 
HETATM    5  C   UNL     1     -43.614  57.268 -52.422  1.00  0.00     0.042 A 
HETATM    6  C   UNL     1     -43.392  55.996 -52.907  1.00  0.00     0.030 A 
HETATM    7  C   UNL     1     -44.228  55.939 -54.035  1.00  0.00     0.190 A 
HETATM    8  N   UNL     1     -44.897  57.063 -54.263  1.00  0.00    -0.149 NA
HETATM    9  N   UNL     1     -44.508  57.867 -53.260  1.00  0.00    -0.279 N 
HETATM   10  H   UNL     1     -44.902  58.802 -53.210  1.00  0.00     0.189 HD
HETATM   11  C   UNL     1     -42.507  55.007 -52.227  1.00  0.00     0.075 C 
ENDROOT
BRANCH  11  12
HETATM   12  C   UNL     1     -41.583  54.375 -53.260  1.00  0.00    -0.045 A 
HETATM   13  C   UNL     1     -41.387  52.992 -53.397  1.00  0.00     0.050 A 
HETATM   14  C   UNL     1     -40.538  52.495 -54.383  1.00  0.00     0.117 A 
HETATM   15  F   UNL     1     -40.362  51.172 -54.493  1.00  0.00    -0.206 F 
HETATM   16  C   UNL     1     -39.869  53.346 -55.254  1.00  0.00     0.042 A 
HETATM   17  C   UNL     1     -40.056  54.719 -55.141  1.00  0.00     0.004 A 
HETATM   18  C   UNL     1     -40.910  55.228 -54.157  1.00  0.00     0.008 A 
ENDBRANCH  11  12
BRANCH   1  19
HETATM   19  C   UNL     1     -42.384  54.993 -49.769  1.00  0.00     0.267 C 
HETATM   20  O   UNL     1     -43.550  54.631 -49.696  1.00  0.00    -0.265 OA
BRANCH  19  21
HETATM   21  O   UNL     1     -41.473  54.922 -48.759  1.00  0.00    -0.316 OA
BRANCH  21  22
HETATM   22  C   UNL     1     -40.275  54.165 -49.018  1.00  0.00     0.123 C 
HETATM   23  C   UNL     1     -40.609  52.889 -49.786  1.00  0.00     0.040 C 
HETATM   24  C   UNL     1     -39.669  53.823 -47.663  1.00  0.00     0.040 C 
ENDBRANCH  21  22
ENDBRANCH  19  21
ENDBRANCH   1  19
BRANCH   2  25
HETATM   25  O   UNL     1     -41.301  57.512 -49.522  1.00  0.00    -0.389 OA
HETATM   26  H   UNL     1     -41.664  58.399 -49.328  1.00  0.00     0.210 HD
ENDBRANCH   2  25
BRANCH   7  27
HETATM   27  O   UNL     1     -44.436  54.942 -54.898  1.00  0.00    -0.343 OA
HETATM   28  H   UNL     1     -44.990  55.252 -55.630  1.00  0.00     0.219 HD
ENDBRANCH   7  27
TORSDOF 6
ENDMDL
MODEL 4
REMARK VINA RESULT:      -6.7      2.976      5.229
REMARK  6 active torsions:
REMARK  status: ('A' for Active; 'I' for Inactive)
REMARK    1  A    between atoms: C_2  and  O_3 
REMARK    2  A    between atoms: O_3  and  C_4 
REMARK    3  A    between atoms: C_4  and  C_5 
REMARK    4  A    between atoms: C_6  and  O_7 
REMARK    5  A    between atoms: C_12  and  O_13 
REMARK    6  A    between atoms: C_17  and  C_18 
ROOT
HETATM    1  C   UNL     1     -43.442  57.238 -56.103  1.00  0.00     0.133 C 
HETATM    2  C   UNL     1     -44.618  58.103 -55.529  1.00  0.00     0.073 C 
HETATM    3  C   UNL     1     -45.347  57.343 -54.409  1.00  0.00     0.047 C 
HETATM    4  C   UNL     1     -44.180  59.500 -55.008  1.00  0.00     0.097 C 
HETATM    5  C   UNL     1     -42.924  59.375 -54.238  1.00  0.00     0.042 A 
HETATM    6  C   UNL     1     -41.979  58.377 -54.352  1.00  0.00     0.030 A 
HETATM    7  C   UNL     1     -40.992  58.772 -53.434  1.00  0.00     0.190 A 
HETATM    8  N   UNL     1     -41.283  59.892 -52.783  1.00  0.00    -0.149 NA
HETATM    9  N   UNL     1     -42.473  60.249 -53.293  1.00  0.00    -0.279 N 
HETATM   10  H   UNL     1     -42.907  61.102 -52.953  1.00  0.00     0.189 HD
HETATM   11  C   UNL     1     -42.090  57.256 -55.330  1.00  0.00     0.075 C 
ENDROOT
BRANCH  11  12
HETATM   12  C   UNL     1     -41.794  55.944 -54.617  1.00  0.00    -0.045 A 
HETATM   13  C   UNL     1     -42.576  55.421 -53.576  1.00  0.00     0.050 A 
HETATM   14  C   UNL     1     -42.246  54.201 -52.990  1.00  0.00     0.117 A 
HETATM   15  F   UNL     1     -43.005  53.723 -51.996  1.00  0.00    -0.206 F 
HETATM   16  C   UNL     1     -41.144  53.471 -53.418  1.00  0.00     0.042 A 
HETATM   17  C   UNL     1     -40.360  53.967 -54.453  1.00  0.00     0.004 A 
HETATM   18  C   UNL     1     -40.686  55.189 -55.051  1.00  0.00     0.008 A 
ENDBRANCH  11  12
BRANCH   1  19
HETATM   19  C   UNL     1     -43.131  57.672 -57.521  1.00  0.00     0.267 C 
HETATM   20  O   UNL     1     -42.353  58.567 -57.821  1.00  0.00    -0.265 OA
BRANCH  19  21
HETATM   21  O   UNL     1     -43.846  56.923 -58.406  1.00  0.00    -0.316 OA
BRANCH  21  22
HETATM   22  C   UNL     1     -43.162  55.811 -59.016  1.00  0.00     0.123 C 
HETATM   23  C   UNL     1     -42.228  56.303 -60.118  1.00  0.00     0.040 C 
HETATM   24  C   UNL     1     -44.237  54.903 -59.601  1.00  0.00     0.040 C 
ENDBRANCH  21  22
ENDBRANCH  19  21
ENDBRANCH   1  19
BRANCH   2  25
HETATM   25  O   UNL     1     -45.629  58.283 -56.542  1.00  0.00    -0.389 OA
HETATM   26  H   UNL     1     -46.467  57.907 -56.204  1.00  0.00     0.210 HD
ENDBRANCH   2  25
BRANCH   7  27
HETATM   27  O   UNL     1     -39.831  58.192 -53.121  1.00  0.00    -0.343 OA
HETATM   28  H   UNL     1     -39.773  58.069 -52.163  1.00  0.00     0.219 HD
ENDBRANCH   7  27
TORSDOF 6
ENDMDL
MODEL 5
REMARK VINA RESULT:      -6.7      2.612      5.666
REMARK  6 active torsions:
REMARK  status: ('A' for Active; 'I' for Inactive)
REMARK    1  A    between atoms: C_2  and  O_3 
REMARK    2  A    between atoms: O_3  and  C_4 
REMARK    3  A    between atoms: C_4  and  C_5 
REMARK    4  A    between atoms: C_6  and  O_7 
REMARK    5  A    between atoms: C_12  and  O_13 
REMARK    6  A    between atoms: C_17  and  C_18 
ROOT
HETATM    1  C   UNL     1     -41.863  55.399 -51.619  1.00  0.00     0.133 C 
HETATM    2  C   UNL     1     -43.327  54.881 -51.843  1.00  0.00     0.073 C 
HETATM    3  C   UNL     1     -44.328  55.745 -51.059  1.00  0.00     0.047 C 
HETATM    4  C   UNL     1     -43.754  54.818 -53.336  1.00  0.00     0.097 C 
HETATM    5  C   UNL     1     -43.296  56.035 -54.038  1.00  0.00     0.042 A 
HETATM    6  C   UNL     1     -42.247  56.855 -53.676  1.00  0.00     0.030 A 
HETATM    7  C   UNL     1     -42.230  57.816 -54.702  1.00  0.00     0.190 A 
HETATM    8  N   UNL     1     -43.181  57.644 -55.613  1.00  0.00    -0.149 NA
HETATM    9  N   UNL     1     -43.824  56.544 -55.189  1.00  0.00    -0.279 N 
HETATM   10  H   UNL     1     -44.604  56.199 -55.740  1.00  0.00     0.189 HD
HETATM   11  C   UNL     1     -41.381  56.595 -52.491  1.00  0.00     0.075 C 
ENDROOT
BRANCH  11  12
HETATM   12  C   UNL     1     -41.224  57.885 -51.698  1.00  0.00    -0.045 A 
HETATM   13  C   UNL     1     -39.996  58.372 -51.224  1.00  0.00     0.050 A 
HETATM   14  C   UNL     1     -39.937  59.574 -50.523  1.00  0.00     0.117 A 
HETATM   15  F   UNL     1     -38.755  60.018 -50.077  1.00  0.00    -0.206 F 
HETATM   16  C   UNL     1     -41.082  60.321 -50.276  1.00  0.00     0.042 A 
HETATM   17  C   UNL     1     -42.308  59.861 -50.743  1.00  0.00     0.004 A 
HETATM   18  C   UNL     1     -42.377  58.658 -51.453  1.00  0.00     0.008 A 
ENDBRANCH  11  12
BRANCH   1  19
HETATM   19  C   UNL     1     -40.878  54.271 -51.855  1.00  0.00     0.267 C 
HETATM   20  O   UNL     1     -39.907  54.036 -51.149  1.00  0.00    -0.265 OA
BRANCH  19  21
HETATM   21  O   UNL     1     -41.232  53.567 -52.966  1.00  0.00    -0.316 OA
BRANCH  21  22
HETATM   22  C   UNL     1     -40.170  53.206 -53.871  1.00  0.00     0.123 C 
HETATM   23  C   UNL     1     -40.234  54.062 -55.132  1.00  0.00     0.040 C 
HETATM   24  C   UNL     1     -40.369  51.736 -54.218  1.00  0.00     0.040 C 
ENDBRANCH  21  22
ENDBRANCH  19  21
ENDBRANCH   1  19
BRANCH   2  25
HETATM   25  O   UNL     1     -43.473  53.568 -51.264  1.00  0.00    -0.389 OA
HETATM   26  H   UNL     1     -43.750  53.677 -50.332  1.00  0.00     0.210 HD
ENDBRANCH   2  25
BRANCH   7  27
HETATM   27  O   UNL     1     -41.417  58.859 -54.885  1.00  0.00    -0.343 OA
HETATM   28  H   UNL     1     -41.447  59.139 -55.811  1.00  0.00     0.219 HD
ENDBRANCH   7  27
TORSDOF 6
ENDMDL
MODEL 6
REMARK VINA RESULT:      -6.6      2.451      4.616
REMARK  6 active torsions:
REMARK  status: ('A' for Active; 'I' for Inactive)
REMARK    1  A    between atoms: C_2  and  O_3 
REMARK    2  A    between atoms: O_3  and  C_4 
REMARK    3  A    between atoms: C_4  and  C_5 
REMARK    4  A    between atoms: C_6  and  O_7 
REMARK    5  A    between atoms: C_12  and  O_13 
REMARK    6  A    between atoms: C_17  and  C_18 
ROOT
HETATM    1  C   UNL     1     -43.978  57.221 -53.045  1.00  0.00     0.133 C 
HETATM    2  C   UNL     1     -44.350  57.503 -51.547  1.00  0.00     0.073 C 
HETATM    3  C   UNL     1     -43.962  56.305 -50.663  1.00  0.00     0.047 C 
HETATM    4  C   UNL     1     -43.716  58.799 -50.971  1.00  0.00     0.097 C 
HETATM    5  C   UNL     1     -42.306  58.901 -51.404  1.00  0.00     0.042 A 
HETATM    6  C   UNL     1     -41.737  58.314 -52.515  1.00  0.00     0.030 A 
HETATM    7  C   UNL     1     -40.409  58.773 -52.467  1.00  0.00     0.190 A 
HETATM    8  N   UNL     1     -40.148  59.552 -51.425  1.00  0.00    -0.149 NA
HETATM    9  N   UNL     1     -41.327  59.621 -50.784  1.00  0.00    -0.279 N 
HETATM   10  H   UNL     1     -41.385  60.183 -49.940  1.00  0.00     0.189 HD
HETATM   11  C   UNL     1     -42.508  57.485 -53.485  1.00  0.00     0.075 C 
ENDROOT
BRANCH  11  12
HETATM   12  C   UNL     1     -41.734  56.205 -53.770  1.00  0.00    -0.045 A 
HETATM   13  C   UNL     1     -41.264  55.333 -52.776  1.00  0.00     0.050 A 
HETATM   14  C   UNL     1     -40.579  54.170 -53.124  1.00  0.00     0.117 A 
HETATM   15  F   UNL     1     -40.137  53.354 -52.160  1.00  0.00    -0.206 F 
HETATM   16  C   UNL     1     -40.347  53.842 -54.454  1.00  0.00     0.042 A 
HETATM   17  C   UNL     1     -40.811  54.689 -55.455  1.00  0.00     0.004 A 
HETATM   18  C   UNL     1     -41.503  55.856 -55.116  1.00  0.00     0.008 A 
ENDBRANCH  11  12
BRANCH   1  19
HETATM   19  C   UNL     1     -44.855  58.057 -53.956  1.00  0.00     0.267 C 
HETATM   20  O   UNL     1     -45.313  59.154 -53.667  1.00  0.00    -0.265 OA
BRANCH  19  21
HETATM   21  O   UNL     1     -45.060  57.404 -55.134  1.00  0.00    -0.316 OA
BRANCH  21  22
HETATM   22  C   UNL     1     -44.950  58.189 -56.337  1.00  0.00     0.123 C 
HETATM   23  C   UNL     1     -46.302  58.274 -57.040  1.00  0.00     0.040 C 
HETATM   24  C   UNL     1     -43.934  57.487 -57.229  1.00  0.00     0.040 C 
ENDBRANCH  21  22
ENDBRANCH  19  21
ENDBRANCH   1  19
BRANCH   2  25
HETATM   25  O   UNL     1     -45.783  57.587 -51.407  1.00  0.00    -0.389 OA
HETATM   26  H   UNL     1     -46.168  57.707 -52.298  1.00  0.00     0.210 HD
ENDBRANCH   2  25
BRANCH   7  27
HETATM   27  O   UNL     1     -39.391  58.536 -53.298  1.00  0.00    -0.343 OA
HETATM   28  H   UNL     1     -38.558  58.798 -52.879  1.00  0.00     0.219 HD
ENDBRANCH   7  27
TORSDOF 6
ENDMDL
MODEL 7
REMARK VINA RESULT:      -6.5      2.882      5.426
REMARK  6 active torsions:
REMARK  status: ('A' for Active; 'I' for Inactive)
REMARK    1  A    between atoms: C_2  and  O_3 
REMARK    2  A    between atoms: O_3  and  C_4 
REMARK    3  A    between atoms: C_4  and  C_5 
REMARK    4  A    between atoms: C_6  and  O_7 
REMARK    5  A    between atoms: C_12  and  O_13 
REMARK    6  A    between atoms: C_17  and  C_18 
ROOT
HETATM    1  C   UNL     1     -42.160  56.290 -53.556  1.00  0.00     0.133 C 
HETATM    2  C   UNL     1     -41.616  57.283 -52.470  1.00  0.00     0.073 C 
HETATM    3  C   UNL     1     -40.647  58.295 -53.104  1.00  0.00     0.047 C 
HETATM    4  C   UNL     1     -42.728  58.045 -51.696  1.00  0.00     0.097 C 
HETATM    5  C   UNL     1     -43.773  58.496 -52.639  1.00  0.00     0.042 A 
HETATM    6  C   UNL     1     -44.069  57.951 -53.871  1.00  0.00     0.030 A 
HETATM    7  C   UNL     1     -45.156  58.727 -54.305  1.00  0.00     0.190 A 
HETATM    8  N   UNL     1     -45.506  59.684 -53.454  1.00  0.00    -0.149 NA
HETATM    9  N   UNL     1     -44.646  59.525 -52.435  1.00  0.00    -0.279 N 
HETATM   10  H   UNL     1     -44.723  60.148 -51.637  1.00  0.00     0.189 HD
HETATM   11  C   UNL     1     -43.361  56.762 -54.427  1.00  0.00     0.075 C 
ENDROOT
BRANCH  11  12
HETATM   12  C   UNL     1     -42.973  57.047 -55.872  1.00  0.00    -0.045 A 
HETATM   13  C   UNL     1     -43.128  56.130 -56.923  1.00  0.00     0.050 A 
HETATM   14  C   UNL     1     -42.766  56.478 -58.222  1.00  0.00     0.117 A 
HETATM   15  F   UNL     1     -42.918  55.585 -59.208  1.00  0.00    -0.206 F 
HETATM   16  C   UNL     1     -42.249  57.734 -58.514  1.00  0.00     0.042 A 
HETATM   17  C   UNL     1     -42.096  58.662 -57.489  1.00  0.00     0.004 A 
HETATM   18  C   UNL     1     -42.460  58.323 -56.182  1.00  0.00     0.008 A 
ENDBRANCH  11  12
BRANCH   1  19
HETATM   19  C   UNL     1     -42.591  54.995 -52.898  1.00  0.00     0.267 C 
HETATM   20  O   UNL     1     -43.282  54.922 -51.891  1.00  0.00    -0.265 OA
BRANCH  19  21
HETATM   21  O   UNL     1     -42.092  53.932 -53.587  1.00  0.00    -0.316 OA
BRANCH  21  22
HETATM   22  C   UNL     1     -40.658  53.847 -53.699  1.00  0.00     0.123 C 
HETATM   23  C   UNL     1     -40.236  53.909 -55.164  1.00  0.00     0.040 C 
HETATM   24  C   UNL     1     -40.247  52.514 -53.086  1.00  0.00     0.040 C 
ENDBRANCH  21  22
ENDBRANCH  19  21
ENDBRANCH   1  19
BRANCH   2  25
HETATM   25  O   UNL     1     -40.799  56.567 -51.521  1.00  0.00    -0.389 OA
HETATM   26  H   UNL     1     -39.863  56.672 -51.787  1.00  0.00     0.210 HD
ENDBRANCH   2  25
BRANCH   7  27
HETATM   27  O   UNL     1     -45.869  58.649 -55.432  1.00  0.00    -0.343 OA
HETATM   28  H   UNL     1     -45.294  58.807 -56.195  1.00  0.00     0.219 HD
ENDBRANCH   7  27
TORSDOF 6
ENDMDL
MODEL 8
REMARK VINA RESULT:      -6.5      2.984      4.164
REMARK  6 active torsions:
REMARK  status: ('A' for Active; 'I' for Inactive)
REMARK    1  A    between atoms: C_2  and  O_3 
REMARK    2  A    between atoms: O_3  and  C_4 
REMARK    3  A    between atoms: C_4  and  C_5 
REMARK    4  A    between atoms: C_6  and  O_7 
REMARK    5  A    between atoms: C_12  and  O_13 
REMARK    6  A    between atoms: C_17  and  C_18 
ROOT
HETATM    1  C   UNL     1     -43.140  58.593 -53.173  1.00  0.00     0.133 C 
HETATM    2  C   UNL     1     -42.044  59.298 -54.047  1.00  0.00     0.073 C 
HETATM    3  C   UNL     1     -40.638  58.900 -53.569  1.00  0.00     0.047 C 
HETATM    4  C   UNL     1     -42.173  59.016 -55.570  1.00  0.00     0.097 C 
HETATM    5  C   UNL     1     -42.473  57.585 -55.790  1.00  0.00     0.042 A 
HETATM    6  C   UNL     1     -43.064  56.716 -54.896  1.00  0.00     0.030 A 
HETATM    7  C   UNL     1     -43.146  55.520 -55.629  1.00  0.00     0.190 A 
HETATM    8  N   UNL     1     -42.642  55.605 -56.854  1.00  0.00    -0.149 NA
HETATM    9  N   UNL     1     -42.235  56.883 -56.935  1.00  0.00    -0.279 N 
HETATM   10  H   UNL     1     -41.814  57.201 -57.803  1.00  0.00     0.189 HD
HETATM   11  C   UNL     1     -43.524  57.130 -53.539  1.00  0.00     0.075 C 
ENDROOT
BRANCH  11  12
HETATM   12  C   UNL     1     -43.036  56.112 -52.517  1.00  0.00    -0.045 A 
HETATM   13  C   UNL     1     -41.762  55.523 -52.542  1.00  0.00     0.050 A 
HETATM   14  C   UNL     1     -41.386  54.614 -51.556  1.00  0.00     0.117 A 
HETATM   15  F   UNL     1     -40.168  54.060 -51.601  1.00  0.00    -0.206 F 
HETATM   16  C   UNL     1     -42.253  54.270 -50.526  1.00  0.00     0.042 A 
HETATM   17  C   UNL     1     -43.516  54.848 -50.477  1.00  0.00     0.004 A 
HETATM   18  C   UNL     1     -43.901  55.765 -51.460  1.00  0.00     0.008 A 
ENDBRANCH  11  12
BRANCH   1  19
HETATM   19  C   UNL     1     -44.424  59.397 -53.215  1.00  0.00     0.267 C 
HETATM   20  O   UNL     1     -45.321  59.234 -54.031  1.00  0.00    -0.265 OA
BRANCH  19  21
HETATM   21  O   UNL     1     -44.427  60.325 -52.217  1.00  0.00    -0.316 OA
BRANCH  21  22
HETATM   22  C   UNL     1     -44.269  59.832 -50.873  1.00  0.00     0.123 C 
HETATM   23  C   UNL     1     -45.598  59.300 -50.344  1.00  0.00     0.040 C 
HETATM   24  C   UNL     1     -43.796  61.008 -50.027  1.00  0.00     0.040 C 
ENDBRANCH  21  22
ENDBRANCH  19  21
ENDBRANCH   1  19
BRANCH   2  25
HETATM   25  O   UNL     1     -42.093  60.723 -53.835  1.00  0.00    -0.389 OA
HETATM   26  H   UNL     1     -42.479  61.136 -54.633  1.00  0.00     0.210 HD
ENDBRANCH   2  25
BRANCH   7  27
HETATM   27  O   UNL     1     -43.642  54.331 -55.275  1.00  0.00    -0.343 OA
HETATM   28  H   UNL     1     -43.415  53.669 -55.944  1.00  0.00     0.219 HD
ENDBRANCH   7  27
TORSDOF 6
ENDMDL
MODEL 9
REMARK VINA RESULT:      -6.5      3.089      4.921
REMARK  6 active torsions:
REMARK  status: ('A' for Active; 'I' for Inactive)
REMARK    1  A    between atoms: C_2  and  O_3 
REMARK    2  A    between atoms: O_3  and  C_4 
REMARK    3  A    between atoms: C_4  and  C_5 
REMARK    4  A    between atoms: C_6  and  O_7 
REMARK    5  A    between atoms: C_12  and  O_13 
REMARK    6  A    between atoms: C_17  and  C_18 
ROOT
HETATM    1  C   UNL     1     -43.410  56.859 -56.287  1.00  0.00     0.133 C 
HETATM    2  C   UNL     1     -44.619  57.762 -55.858  1.00  0.00     0.073 C 
HETATM    3  C   UNL     1     -45.379  57.119 -54.686  1.00  0.00     0.047 C 
HETATM    4  C   UNL     1     -44.221  59.216 -55.483  1.00  0.00     0.097 C 
HETATM    5  C   UNL     1     -42.993  59.201 -54.660  1.00  0.00     0.042 A 
HETATM    6  C   UNL     1     -42.030  58.214 -54.626  1.00  0.00     0.030 A 
HETATM    7  C   UNL     1     -41.084  58.728 -53.723  1.00  0.00     0.190 A 
HETATM    8  N   UNL     1     -41.415  59.909 -53.215  1.00  0.00    -0.149 NA
HETATM    9  N   UNL     1     -42.590  60.184 -53.804  1.00  0.00    -0.279 N 
HETATM   10  H   UNL     1     -43.049  61.062 -53.578  1.00  0.00     0.189 HD
HETATM   11  C   UNL     1     -42.089  56.989 -55.474  1.00  0.00     0.075 C 
ENDROOT
BRANCH  11  12
HETATM   12  C   UNL     1     -41.801  55.770 -54.607  1.00  0.00    -0.045 A 
HETATM   13  C   UNL     1     -42.603  55.367 -53.528  1.00  0.00     0.050 A 
HETATM   14  C   UNL     1     -42.279  54.226 -52.797  1.00  0.00     0.117 A 
HETATM   15  F   UNL     1     -43.056  53.862 -51.769  1.00  0.00    -0.206 F 
HETATM   16  C   UNL     1     -41.165  53.459 -53.114  1.00  0.00     0.042 A 
HETATM   17  C   UNL     1     -40.361  53.837 -54.185  1.00  0.00     0.004 A 
HETATM   18  C   UNL     1     -40.680  54.978 -54.928  1.00  0.00     0.008 A 
ENDBRANCH  11  12
BRANCH   1  19
HETATM   19  C   UNL     1     -43.052  57.135 -57.734  1.00  0.00     0.267 C 
HETATM   20  O   UNL     1     -42.766  56.276 -58.557  1.00  0.00    -0.265 OA
BRANCH  19  21
HETATM   21  O   UNL     1     -43.091  58.475 -57.977  1.00  0.00    -0.316 OA
BRANCH  21  22
HETATM   22  C   UNL     1     -41.924  59.057 -58.589  1.00  0.00     0.123 C 
HETATM   23  C   UNL     1     -41.541  60.351 -57.876  1.00  0.00     0.040 C 
HETATM   24  C   UNL     1     -42.285  59.341 -60.042  1.00  0.00     0.040 C 
ENDBRANCH  21  22
ENDBRANCH  19  21
ENDBRANCH   1  19
BRANCH   2  25
HETATM   25  O   UNL     1     -45.594  57.808 -56.920  1.00  0.00    -0.389 OA
HETATM   26  H   UNL     1     -45.606  56.934 -57.359  1.00  0.00     0.210 HD
ENDBRANCH   2  25
BRANCH   7  27
HETATM   27  O   UNL     1     -39.927  58.208 -53.306  1.00  0.00    -0.343 OA
HETATM   28  H   UNL     1     -39.894  57.265 -53.525  1.00  0.00     0.219 HD
ENDBRANCH   7  27
TORSDOF 6
ENDMDL
MODEL 10
REMARK VINA RESULT:      -6.4      2.519      4.368
REMARK  6 active torsions:
REMARK  status: ('A' for Active; 'I' for Inactive)
REMARK    1  A    between atoms: C_2  and  O_3 
REMARK    2  A    between atoms: O_3  and  C_4 
REMARK    3  A    between atoms: C_4  and  C_5 
REMARK    4  A    between atoms: C_6  and  O_7 
REMARK    5  A    between atoms: C_12  and  O_13 
REMARK    6  A    between atoms: C_17  and  C_18 
ROOT
HETATM    1  C   UNL     1     -42.955  58.333 -54.384  1.00  0.00     0.133 C 
HETATM    2  C   UNL     1     -44.021  59.411 -53.982  1.00  0.00     0.073 C 
HETATM    3  C   UNL     1     -45.174  58.760 -53.200  1.00  0.00     0.047 C 
HETATM    4  C   UNL     1     -43.444  60.597 -53.161  1.00  0.00     0.097 C 
HETATM    5  C   UNL     1     -42.501  60.088 -52.142  1.00  0.00     0.042 A 
HETATM    6  C   UNL     1     -41.805  58.898 -52.179  1.00  0.00     0.030 A 
HETATM    7  C   UNL     1     -41.040  58.945 -51.001  1.00  0.00     0.190 A 
HETATM    8  N   UNL     1     -41.241  60.037 -50.274  1.00  0.00    -0.149 NA
HETATM    9  N   UNL     1     -42.141  60.729 -50.993  1.00  0.00    -0.279 N 
HETATM   10  H   UNL     1     -42.452  61.628 -50.638  1.00  0.00     0.189 HD
HETATM   11  C   UNL     1     -41.892  57.938 -53.317  1.00  0.00     0.075 C 
ENDROOT
BRANCH  11  12
HETATM   12  C   UNL     1     -42.095  56.533 -52.766  1.00  0.00    -0.045 A 
HETATM   13  C   UNL     1     -43.109  56.184 -51.859  1.00  0.00     0.050 A 
HETATM   14  C   UNL     1     -43.238  54.868 -51.419  1.00  0.00     0.117 A 
HETATM   15  F   UNL     1     -44.209  54.558 -50.551  1.00  0.00    -0.206 F 
HETATM   16  C   UNL     1     -42.378  53.872 -51.863  1.00  0.00     0.042 A 
HETATM   17  C   UNL     1     -41.372  54.195 -52.767  1.00  0.00     0.004 A 
HETATM   18  C   UNL     1     -41.236  55.511 -53.219  1.00  0.00     0.008 A 
ENDBRANCH  11  12
BRANCH   1  19
HETATM   19  C   UNL     1     -42.185  58.803 -55.602  1.00  0.00     0.267 C 
HETATM   20  O   UNL     1     -41.676  59.910 -55.720  1.00  0.00    -0.265 OA
BRANCH  19  21
HETATM   21  O   UNL     1     -42.149  57.817 -56.541  1.00  0.00    -0.316 OA
BRANCH  21  22
HETATM   22  C   UNL     1     -43.277  56.921 -56.583  1.00  0.00     0.123 C 
HETATM   23  C   UNL     1     -42.802  55.474 -56.680  1.00  0.00     0.040 C 
HETATM   24  C   UNL     1     -44.089  57.295 -57.817  1.00  0.00     0.040 C 
ENDBRANCH  21  22
ENDBRANCH  19  21
ENDBRANCH   1  19
BRANCH   2  25
HETATM   25  O   UNL     1     -44.657  59.933 -55.166  1.00  0.00    -0.389 OA
HETATM   26  H   UNL     1     -44.075  59.746 -55.930  1.00  0.00     0.210 HD
ENDBRANCH   2  25
BRANCH   7  27
HETATM   27  O   UNL     1     -40.163  58.063 -50.514  1.00  0.00    -0.343 OA
HETATM   28  H   UNL     1     -40.433  57.165 -50.756  1.00  0.00     0.219 HD
ENDBRANCH   7  27
TORSDOF 6
ENDMDL
