MODEL 1
REMARK VINA RESULT:      -8.4      0.000      0.000
REMARK  7 active torsions:
REMARK  status: ('A' for Active; 'I' for Inactive)
REMARK    1  A    between atoms: C_2  and  O_3 
REMARK    2  A    between atoms: O_3  and  C_4 
REMARK    3  A    between atoms: C_4  and  C_5 
REMARK    4  A    between atoms: C_6  and  C_7 
REMARK    5  A    between atoms: C_18  and  S_19 
REMARK    6  A    between atoms: S_19  and  C_20 
REMARK    7  A    between atoms: C_20  and  C_21 
ROOT
HETATM    1  C   UNL     1     -43.563  58.325 -52.094  1.00  0.00     0.070 C 
HETATM    2  C   UNL     1     -42.472  57.343 -52.528  1.00  0.00     0.203 C 
HETATM    3  N   UNL     1     -42.449  56.167 -51.655  1.00  0.00    -0.082 N 
HETATM    4  C   UNL     1     -43.468  55.825 -50.813  1.00  0.00     0.726 A 
HETATM    5  N   UNL     1     -44.551  56.624 -50.742  1.00  0.00    -0.192 N 
HETATM    6  N   UNL     1     -41.396  55.344 -51.515  1.00  0.00    -0.128 NA
HETATM    7  C   UNL     1     -41.870  54.482 -50.607  1.00  0.00     0.226 A 
HETATM    8  N   UNL     1     -43.146  54.736 -50.162  1.00  0.00    -0.035 NA
HETATM    9  C   UNL     1     -44.575  57.913 -51.283  1.00  0.00     0.037 C 
HETATM   10  C   UNL     1     -45.775  58.743 -50.903  1.00  0.00     0.070 C 
HETATM   11  H   UNL     1     -45.255  56.409 -50.039  1.00  0.00     0.184 HD
ENDROOT
BRANCH   7  12
HETATM   12  S   UNL     1     -40.875  53.176 -50.031  1.00  0.00    -0.083 SA
BRANCH  12  13
HETATM   13  C   UNL     1     -39.561  53.181 -51.280  1.00  0.00     0.123 C 
BRANCH  13  14
HETATM   14  C   UNL     1     -39.674  51.980 -52.191  1.00  0.00    -0.027 A 
HETATM   15  C   UNL     1     -40.007  52.083 -53.551  1.00  0.00     0.041 A 
HETATM   16 CL   UNL     1     -40.284  53.606 -54.318  1.00  0.00    -0.084 Cl
HETATM   17  C   UNL     1     -40.132  50.934 -54.341  1.00  0.00     0.024 A 
HETATM   18  C   UNL     1     -39.935  49.671 -53.784  1.00  0.00     0.002 A 
HETATM   19  C   UNL     1     -39.612  49.551 -52.437  1.00  0.00     0.001 A 
HETATM   20  C   UNL     1     -39.483  50.695 -51.646  1.00  0.00     0.009 A 
ENDBRANCH  13  14
ENDBRANCH  12  13
ENDBRANCH   7  12
BRANCH   2  21
HETATM   21  C   UNL     1     -42.637  56.895 -53.983  1.00  0.00    -0.028 A 
HETATM   22  C   UNL     1     -42.173  57.718 -55.023  1.00  0.00     0.011 A 
HETATM   23  C   UNL     1     -42.339  57.344 -56.359  1.00  0.00     0.024 A 
HETATM   24  C   UNL     1     -42.972  56.143 -56.670  1.00  0.00     0.034 A 
HETATM   25 CL   UNL     1     -43.188  55.688 -58.314  1.00  0.00    -0.084 Cl
HETATM   26  C   UNL     1     -43.435  55.309 -55.655  1.00  0.00     0.024 A 
HETATM   27  C   UNL     1     -43.268  55.682 -54.318  1.00  0.00     0.011 A 
ENDBRANCH   2  21
BRANCH   1  28
HETATM   28  C   UNL     1     -43.318  59.700 -52.605  1.00  0.00     0.293 C 
HETATM   29  O   UNL     1     -44.026  60.226 -53.452  1.00  0.00    -0.259 OA
BRANCH  28  30
HETATM   30  O   UNL     1     -42.176  60.234 -52.114  1.00  0.00    -0.318 OA
BRANCH  30  31
HETATM   31  C   UNL     1     -42.173  60.527 -50.708  1.00  0.00     0.174 C 
HETATM   32  C   UNL     1     -43.082  61.703 -50.400  1.00  0.00     0.034 C 
ENDBRANCH  30  31
ENDBRANCH  28  30
ENDBRANCH   1  28
TORSDOF 7
ENDMDL
MODEL 2
REMARK VINA RESULT:      -8.2      3.170      4.735
REMARK  7 active torsions:
REMARK  status: ('A' for Active; 'I' for Inactive)
REMARK    1  A    between atoms: C_2  and  O_3 
REMARK    2  A    between atoms: O_3  and  C_4 
REMARK    3  A    between atoms: C_4  and  C_5 
REMARK    4  A    between atoms: C_6  and  C_7 
REMARK    5  A    between atoms: C_18  and  S_19 
REMARK    6  A    between atoms: S_19  and  C_20 
REMARK    7  A    between atoms: C_20  and  C_21 
ROOT
HETATM    1  C   UNL     1     -43.108  59.445 -56.686  1.00  0.00     0.070 C 
HETATM    2  C   UNL     1     -42.808  57.944 -56.676  1.00  0.00     0.203 C 
HETATM    3  N   UNL     1     -43.262  57.329 -55.426  1.00  0.00    -0.082 N 
HETATM    4  C   UNL     1     -44.138  57.920 -54.561  1.00  0.00     0.726 A 
HETATM    5  N   UNL     1     -44.594  59.158 -54.840  1.00  0.00    -0.192 N 
HETATM    6  N   UNL     1     -42.806  56.160 -54.944  1.00  0.00    -0.128 NA
HETATM    7  C   UNL     1     -43.497  56.073 -53.801  1.00  0.00     0.226 A 
HETATM    8  N   UNL     1     -44.338  57.130 -53.537  1.00  0.00    -0.035 NA
HETATM    9  C   UNL     1     -44.022  59.969 -55.824  1.00  0.00     0.037 C 
HETATM   10  C   UNL     1     -44.504  61.398 -55.834  1.00  0.00     0.070 C 
HETATM   11  H   UNL     1     -45.167  59.623 -54.139  1.00  0.00     0.184 HD
ENDROOT
BRANCH   7  12
HETATM   12  S   UNL     1     -43.270  54.716 -52.737  1.00  0.00    -0.083 SA
BRANCH  12  13
HETATM   13  C   UNL     1     -41.484  54.817 -52.443  1.00  0.00     0.123 C 
BRANCH  13  14
HETATM   14  C   UNL     1     -40.815  53.487 -52.707  1.00  0.00    -0.027 A 
HETATM   15  C   UNL     1     -40.047  52.815 -51.741  1.00  0.00     0.041 A 
HETATM   16 CL   UNL     1     -39.828  53.437 -50.144  1.00  0.00    -0.084 Cl
HETATM   17  C   UNL     1     -39.420  51.602 -52.050  1.00  0.00     0.024 A 
HETATM   18  C   UNL     1     -39.545  51.049 -53.324  1.00  0.00     0.002 A 
HETATM   19  C   UNL     1     -40.296  51.705 -54.293  1.00  0.00     0.001 A 
HETATM   20  C   UNL     1     -40.925  52.915 -53.988  1.00  0.00     0.009 A 
ENDBRANCH  13  14
ENDBRANCH  12  13
ENDBRANCH   7  12
BRANCH   2  21
HETATM   21  C   UNL     1     -43.441  57.214 -57.863  1.00  0.00    -0.028 A 
HETATM   22  C   UNL     1     -42.714  56.220 -58.539  1.00  0.00     0.011 A 
HETATM   23  C   UNL     1     -43.260  55.561 -59.644  1.00  0.00     0.024 A 
HETATM   24  C   UNL     1     -44.539  55.890 -60.085  1.00  0.00     0.034 A 
HETATM   25 CL   UNL     1     -45.207  55.089 -61.453  1.00  0.00    -0.084 Cl
HETATM   26  C   UNL     1     -45.280  56.869 -59.427  1.00  0.00     0.024 A 
HETATM   27  C   UNL     1     -44.735  57.527 -58.322  1.00  0.00     0.011 A 
ENDBRANCH   2  21
BRANCH   1  28
HETATM   28  C   UNL     1     -42.263  60.181 -57.664  1.00  0.00     0.293 C 
HETATM   29  O   UNL     1     -41.134  60.569 -57.401  1.00  0.00    -0.259 OA
BRANCH  28  30
HETATM   30  O   UNL     1     -42.928  60.462 -58.808  1.00  0.00    -0.318 OA
BRANCH  30  31
HETATM   31  C   UNL     1     -42.131  60.519 -60.001  1.00  0.00     0.174 C 
HETATM   32  C   UNL     1     -42.112  59.172 -60.701  1.00  0.00     0.034 C 
ENDBRANCH  30  31
ENDBRANCH  28  30
ENDBRANCH   1  28
TORSDOF 7
ENDMDL
MODEL 3
REMARK VINA RESULT:      -7.9      3.617      6.827
REMARK  7 active torsions:
REMARK  status: ('A' for Active; 'I' for Inactive)
REMARK    1  A    between atoms: C_2  and  O_3 
REMARK    2  A    between atoms: O_3  and  C_4 
REMARK    3  A    between atoms: C_4  and  C_5 
REMARK    4  A    between atoms: C_6  and  C_7 
REMARK    5  A    between atoms: C_18  and  S_19 
REMARK    6  A    between atoms: S_19  and  C_20 
REMARK    7  A    between atoms: C_20  and  C_21 
ROOT
HETATM    1  C   UNL     1     -42.742  57.805 -52.501  1.00  0.00     0.070 C 
HETATM    2  C   UNL     1     -43.060  57.150 -53.848  1.00  0.00     0.203 C 
HETATM    3  N   UNL     1     -42.704  58.037 -54.958  1.00  0.00    -0.082 N 
HETATM    4  C   UNL     1     -41.887  59.124 -54.832  1.00  0.00     0.726 A 
HETATM    5  N   UNL     1     -41.398  59.434 -53.614  1.00  0.00    -0.192 N 
HETATM    6  N   UNL     1     -43.206  57.940 -56.201  1.00  0.00    -0.128 NA
HETATM    7  C   UNL     1     -42.601  58.974 -56.798  1.00  0.00     0.226 A 
HETATM    8  N   UNL     1     -41.770  59.717 -55.992  1.00  0.00    -0.035 NA
HETATM    9  C   UNL     1     -41.889  58.862 -52.436  1.00  0.00     0.037 C 
HETATM   10  C   UNL     1     -41.392  59.499 -51.162  1.00  0.00     0.070 C 
HETATM   11  H   UNL     1     -40.873  60.300 -53.519  1.00  0.00     0.184 HD
ENDROOT
BRANCH   7  12
HETATM   12  S   UNL     1     -42.920  59.333 -58.469  1.00  0.00    -0.083 SA
BRANCH  12  13
HETATM   13  C   UNL     1     -44.644  58.790 -58.606  1.00  0.00     0.123 C 
BRANCH  13  14
HETATM   14  C   UNL     1     -44.744  57.485 -59.361  1.00  0.00    -0.027 A 
HETATM   15  C   UNL     1     -45.895  57.098 -60.068  1.00  0.00     0.041 A 
HETATM   16 CL   UNL     1     -47.296  58.105 -60.166  1.00  0.00    -0.084 Cl
HETATM   17  C   UNL     1     -45.945  55.861 -60.721  1.00  0.00     0.024 A 
HETATM   18  C   UNL     1     -44.855  54.993 -60.673  1.00  0.00     0.002 A 
HETATM   19  C   UNL     1     -43.711  55.358 -59.972  1.00  0.00     0.001 A 
HETATM   20  C   UNL     1     -43.655  56.592 -59.320  1.00  0.00     0.009 A 
ENDBRANCH  13  14
ENDBRANCH  12  13
ENDBRANCH   7  12
BRANCH   2  21
HETATM   21  C   UNL     1     -42.349  55.804 -54.023  1.00  0.00    -0.028 A 
HETATM   22  C   UNL     1     -43.098  54.655 -54.330  1.00  0.00     0.011 A 
HETATM   23  C   UNL     1     -42.475  53.411 -54.465  1.00  0.00     0.024 A 
HETATM   24  C   UNL     1     -41.098  53.303 -54.295  1.00  0.00     0.034 A 
HETATM   25 CL   UNL     1     -40.333  51.771 -54.448  1.00  0.00    -0.084 Cl
HETATM   26  C   UNL     1     -40.335  54.430 -53.996  1.00  0.00     0.024 A 
HETATM   27  C   UNL     1     -40.957  55.674 -53.861  1.00  0.00     0.011 A 
ENDBRANCH   2  21
BRANCH   1  28
HETATM   28  C   UNL     1     -43.507  57.191 -51.383  1.00  0.00     0.293 C 
HETATM   29  O   UNL     1     -44.661  57.498 -51.124  1.00  0.00    -0.259 OA
BRANCH  28  30
HETATM   30  O   UNL     1     -42.744  56.358 -50.638  1.00  0.00    -0.318 OA
BRANCH  30  31
HETATM   31  C   UNL     1     -43.176  54.990 -50.582  1.00  0.00     0.174 C 
HETATM   32  C   UNL     1     -41.991  54.046 -50.677  1.00  0.00     0.034 C 
ENDBRANCH  30  31
ENDBRANCH  28  30
ENDBRANCH   1  28
TORSDOF 7
ENDMDL
MODEL 4
REMARK VINA RESULT:      -7.9      3.822      6.580
REMARK  7 active torsions:
REMARK  status: ('A' for Active; 'I' for Inactive)
REMARK    1  A    between atoms: C_2  and  O_3 
REMARK    2  A    between atoms: O_3  and  C_4 
REMARK    3  A    between atoms: C_4  and  C_5 
REMARK    4  A    between atoms: C_6  and  C_7 
REMARK    5  A    between atoms: C_18  and  S_19 
REMARK    6  A    between atoms: S_19  and  C_20 
REMARK    7  A    between atoms: C_20  and  C_21 
ROOT
HETATM    1  C   UNL     1     -44.293  58.263 -52.563  1.00  0.00     0.070 C 
HETATM    2  C   UNL     1     -44.596  57.472 -53.838  1.00  0.00     0.203 C 
HETATM    3  N   UNL     1     -44.872  58.373 -54.960  1.00  0.00    -0.082 N 
HETATM    4  C   UNL     1     -44.556  59.701 -54.963  1.00  0.00     0.726 A 
HETATM    5  N   UNL     1     -43.987  60.240 -53.866  1.00  0.00    -0.192 N 
HETATM    6  N   UNL     1     -45.543  58.022 -56.070  1.00  0.00    -0.128 NA
HETATM    7  C   UNL     1     -45.547  59.183 -56.737  1.00  0.00     0.226 A 
HETATM    8  N   UNL     1     -44.936  60.235 -56.096  1.00  0.00    -0.035 NA
HETATM    9  C   UNL     1     -43.945  59.576 -52.636  1.00  0.00     0.037 C 
HETATM   10  C   UNL     1     -43.489  60.418 -51.471  1.00  0.00     0.070 C 
HETATM   11  H   UNL     1     -43.849  61.247 -53.847  1.00  0.00     0.184 HD
ENDROOT
BRANCH   7  12
HETATM   12  S   UNL     1     -46.329  59.303 -58.286  1.00  0.00    -0.083 SA
BRANCH  12  13
HETATM   13  C   UNL     1     -44.953  58.882 -59.389  1.00  0.00     0.123 C 
BRANCH  13  14
HETATM   14  C   UNL     1     -44.753  57.386 -59.460  1.00  0.00    -0.027 A 
HETATM   15  C   UNL     1     -43.693  56.726 -58.817  1.00  0.00     0.041 A 
HETATM   16 CL   UNL     1     -42.536  57.570 -57.850  1.00  0.00    -0.084 Cl
HETATM   17  C   UNL     1     -43.535  55.341 -58.945  1.00  0.00     0.024 A 
HETATM   18  C   UNL     1     -44.425  54.599 -59.720  1.00  0.00     0.002 A 
HETATM   19  C   UNL     1     -45.476  55.238 -60.370  1.00  0.00     0.001 A 
HETATM   20  C   UNL     1     -45.638  56.619 -60.243  1.00  0.00     0.009 A 
ENDBRANCH  13  14
ENDBRANCH  12  13
ENDBRANCH   7  12
BRANCH   2  21
HETATM   21  C   UNL     1     -43.458  56.519 -54.218  1.00  0.00    -0.028 A 
HETATM   22  C   UNL     1     -43.747  55.184 -54.545  1.00  0.00     0.011 A 
HETATM   23  C   UNL     1     -42.723  54.288 -54.866  1.00  0.00     0.024 A 
HETATM   24  C   UNL     1     -41.399  54.719 -54.861  1.00  0.00     0.034 A 
HETATM   25 CL   UNL     1     -40.137  53.615 -55.243  1.00  0.00    -0.084 Cl
HETATM   26  C   UNL     1     -41.090  56.040 -54.545  1.00  0.00     0.024 A 
HETATM   27  C   UNL     1     -42.114  56.936 -54.225  1.00  0.00     0.011 A 
ENDBRANCH   2  21
BRANCH   1  28
HETATM   28  C   UNL     1     -44.489  57.447 -51.335  1.00  0.00     0.293 C 
HETATM   29  O   UNL     1     -45.533  57.451 -50.699  1.00  0.00    -0.259 OA
BRANCH  28  30
HETATM   30  O   UNL     1     -43.357  56.810 -50.957  1.00  0.00    -0.318 OA
BRANCH  30  31
HETATM   31  C   UNL     1     -43.474  55.394 -50.742  1.00  0.00     0.174 C 
HETATM   32  C   UNL     1     -42.194  54.681 -51.142  1.00  0.00     0.034 C 
ENDBRANCH  30  31
ENDBRANCH  28  30
ENDBRANCH   1  28
TORSDOF 7
ENDMDL
MODEL 5
REMARK VINA RESULT:      -7.8      2.666      4.226
REMARK  7 active torsions:
REMARK  status: ('A' for Active; 'I' for Inactive)
REMARK    1  A    between atoms: C_2  and  O_3 
REMARK    2  A    between atoms: O_3  and  C_4 
REMARK    3  A    between atoms: C_4  and  C_5 
REMARK    4  A    between atoms: C_6  and  C_7 
REMARK    5  A    between atoms: C_18  and  S_19 
REMARK    6  A    between atoms: S_19  and  C_20 
REMARK    7  A    between atoms: C_20  and  C_21 
ROOT
HETATM    1  C   UNL     1     -43.614  58.761 -54.207  1.00  0.00     0.070 C 
HETATM    2  C   UNL     1     -43.018  57.665 -53.321  1.00  0.00     0.203 C 
HETATM    3  N   UNL     1     -42.609  56.509 -54.122  1.00  0.00    -0.082 N 
HETATM    4  C   UNL     1     -42.448  56.542 -55.478  1.00  0.00     0.726 A 
HETATM    5  N   UNL     1     -42.709  57.689 -56.138  1.00  0.00    -0.192 N 
HETATM    6  N   UNL     1     -42.433  55.269 -53.635  1.00  0.00    -0.128 NA
HETATM    7  C   UNL     1     -42.106  54.605 -54.750  1.00  0.00     0.226 A 
HETATM    8  N   UNL     1     -42.089  55.357 -55.902  1.00  0.00    -0.035 NA
HETATM    9  C   UNL     1     -43.385  58.761 -55.548  1.00  0.00     0.037 C 
HETATM   10  C   UNL     1     -43.797  59.857 -56.499  1.00  0.00     0.070 C 
HETATM   11  H   UNL     1     -42.680  57.669 -57.155  1.00  0.00     0.184 HD
ENDROOT
BRANCH   7  12
HETATM   12  S   UNL     1     -41.781  52.897 -54.694  1.00  0.00    -0.083 SA
BRANCH  12  13
HETATM   13  C   UNL     1     -40.091  52.900 -54.036  1.00  0.00     0.123 C 
BRANCH  13  14
HETATM   14  C   UNL     1     -39.952  51.921 -52.894  1.00  0.00    -0.027 A 
HETATM   15  C   UNL     1     -39.692  50.554 -53.089  1.00  0.00     0.041 A 
HETATM   16 CL   UNL     1     -39.469  49.875 -54.662  1.00  0.00    -0.084 Cl
HETATM   17  C   UNL     1     -39.607  49.684 -51.995  1.00  0.00     0.024 A 
HETATM   18  C   UNL     1     -39.789  50.162 -50.698  1.00  0.00     0.002 A 
HETATM   19  C   UNL     1     -40.054  51.511 -50.489  1.00  0.00     0.001 A 
HETATM   20  C   UNL     1     -40.137  52.383 -51.577  1.00  0.00     0.009 A 
ENDBRANCH  13  14
ENDBRANCH  12  13
ENDBRANCH   7  12
BRANCH   2  21
HETATM   21  C   UNL     1     -41.825  58.163 -52.499  1.00  0.00    -0.028 A 
HETATM   22  C   UNL     1     -41.894  58.157 -51.096  1.00  0.00     0.011 A 
HETATM   23  C   UNL     1     -40.830  58.635 -50.326  1.00  0.00     0.024 A 
HETATM   24  C   UNL     1     -39.686  59.124 -50.951  1.00  0.00     0.034 A 
HETATM   25 CL   UNL     1     -38.382  59.724 -50.005  1.00  0.00    -0.084 Cl
HETATM   26  C   UNL     1     -39.595  59.135 -52.341  1.00  0.00     0.024 A 
HETATM   27  C   UNL     1     -40.658  58.656 -53.112  1.00  0.00     0.011 A 
ENDBRANCH   2  21
BRANCH   1  28
HETATM   28  C   UNL     1     -44.466  59.706 -53.436  1.00  0.00     0.293 C 
HETATM   29  O   UNL     1     -45.659  59.515 -53.245  1.00  0.00    -0.259 OA
BRANCH  28  30
HETATM   30  O   UNL     1     -43.799  60.829 -53.086  1.00  0.00    -0.318 OA
BRANCH  30  31
HETATM   31  C   UNL     1     -44.098  61.358 -51.785  1.00  0.00     0.174 C 
HETATM   32  C   UNL     1     -42.822  61.690 -51.031  1.00  0.00     0.034 C 
ENDBRANCH  30  31
ENDBRANCH  28  30
ENDBRANCH   1  28
TORSDOF 7
ENDMDL
MODEL 6
REMARK VINA RESULT:      -7.7      4.303      6.123
REMARK  7 active torsions:
REMARK  status: ('A' for Active; 'I' for Inactive)
REMARK    1  A    between atoms: C_2  and  O_3 
REMARK    2  A    between atoms: O_3  and  C_4 
REMARK    3  A    between atoms: C_4  and  C_5 
REMARK    4  A    between atoms: C_6  and  C_7 
REMARK    5  A    between atoms: C_18  and  S_19 
REMARK    6  A    between atoms: S_19  and  C_20 
REMARK    7  A    between atoms: C_20  and  C_21 
ROOT
HETATM    1  C   UNL     1     -45.113  57.286 -58.883  1.00  0.00     0.070 C 
HETATM    2  C   UNL     1     -44.252  58.053 -57.875  1.00  0.00     0.203 C 
HETATM    3  N   UNL     1     -43.391  57.139 -57.120  1.00  0.00    -0.082 N 
HETATM    4  C   UNL     1     -43.130  55.853 -57.499  1.00  0.00     0.726 A 
HETATM    5  N   UNL     1     -43.717  55.369 -58.612  1.00  0.00    -0.192 N 
HETATM    6  N   UNL     1     -42.835  57.425 -55.931  1.00  0.00    -0.128 NA
HETATM    7  C   UNL     1     -42.196  56.279 -55.670  1.00  0.00     0.226 A 
HETATM    8  N   UNL     1     -42.340  55.292 -56.618  1.00  0.00    -0.035 NA
HETATM    9  C   UNL     1     -44.777  56.020 -59.250  1.00  0.00     0.037 C 
HETATM   10  C   UNL     1     -45.460  55.220 -60.331  1.00  0.00     0.070 C 
HETATM   11  H   UNL     1     -43.590  54.382 -58.826  1.00  0.00     0.184 HD
ENDROOT
BRANCH   7  12
HETATM   12  S   UNL     1     -41.297  56.090 -54.193  1.00  0.00    -0.083 SA
BRANCH  12  13
HETATM   13  C   UNL     1     -42.191  54.708 -53.432  1.00  0.00     0.123 C 
BRANCH  13  14
HETATM   14  C   UNL     1     -41.291  53.505 -53.267  1.00  0.00    -0.027 A 
HETATM   15  C   UNL     1     -40.524  53.279 -52.112  1.00  0.00     0.041 A 
HETATM   16 CL   UNL     1     -40.572  54.345 -50.753  1.00  0.00    -0.084 Cl
HETATM   17  C   UNL     1     -39.680  52.166 -52.026  1.00  0.00     0.024 A 
HETATM   18  C   UNL     1     -39.582  51.271 -53.091  1.00  0.00     0.002 A 
HETATM   19  C   UNL     1     -40.329  51.485 -54.245  1.00  0.00     0.001 A 
HETATM   20  C   UNL     1     -41.175  52.593 -54.333  1.00  0.00     0.009 A 
ENDBRANCH  13  14
ENDBRANCH  12  13
ENDBRANCH   7  12
BRANCH   2  21
HETATM   21  C   UNL     1     -43.390  59.128 -58.544  1.00  0.00    -0.028 A 
HETATM   22  C   UNL     1     -42.768  58.857 -59.774  1.00  0.00     0.011 A 
HETATM   23  C   UNL     1     -41.953  59.812 -60.389  1.00  0.00     0.024 A 
HETATM   24  C   UNL     1     -41.752  61.048 -59.780  1.00  0.00     0.034 A 
HETATM   25 CL   UNL     1     -40.740  62.219 -60.529  1.00  0.00    -0.084 Cl
HETATM   26  C   UNL     1     -42.364  61.340 -58.563  1.00  0.00     0.024 A 
HETATM   27  C   UNL     1     -43.179  60.386 -57.948  1.00  0.00     0.011 A 
ENDBRANCH   2  21
BRANCH   1  28
HETATM   28  C   UNL     1     -46.308  58.062 -59.306  1.00  0.00     0.293 C 
HETATM   29  O   UNL     1     -46.437  58.517 -60.434  1.00  0.00    -0.259 OA
BRANCH  28  30
HETATM   30  O   UNL     1     -47.158  58.296 -58.280  1.00  0.00    -0.318 OA
BRANCH  30  31
HETATM   31  C   UNL     1     -47.782  59.589 -58.261  1.00  0.00     0.174 C 
HETATM   32  C   UNL     1     -46.948  60.579 -57.468  1.00  0.00     0.034 C 
ENDBRANCH  30  31
ENDBRANCH  28  30
ENDBRANCH   1  28
TORSDOF 7
ENDMDL
MODEL 7
REMARK VINA RESULT:      -7.4      1.938      2.637
REMARK  7 active torsions:
REMARK  status: ('A' for Active; 'I' for Inactive)
REMARK    1  A    between atoms: C_2  and  O_3 
REMARK    2  A    between atoms: O_3  and  C_4 
REMARK    3  A    between atoms: C_4  and  C_5 
REMARK    4  A    between atoms: C_6  and  C_7 
REMARK    5  A    between atoms: C_18  and  S_19 
REMARK    6  A    between atoms: S_19  and  C_20 
REMARK    7  A    between atoms: C_20  and  C_21 
ROOT
HETATM    1  C   UNL     1     -44.345  60.151 -52.476  1.00  0.00     0.070 C 
HETATM    2  C   UNL     1     -43.479  58.994 -52.980  1.00  0.00     0.203 C 
HETATM    3  N   UNL     1     -43.653  57.806 -52.140  1.00  0.00    -0.082 N 
HETATM    4  C   UNL     1     -44.690  57.637 -51.268  1.00  0.00     0.726 A 
HETATM    5  N   UNL     1     -45.596  58.625 -51.132  1.00  0.00    -0.192 N 
HETATM    6  N   UNL     1     -42.774  56.793 -52.064  1.00  0.00    -0.128 NA
HETATM    7  C   UNL     1     -43.373  56.007 -51.162  1.00  0.00     0.226 A 
HETATM    8  N   UNL     1     -44.562  56.485 -50.659  1.00  0.00    -0.035 NA
HETATM    9  C   UNL     1     -45.390  59.912 -51.637  1.00  0.00     0.037 C 
HETATM   10  C   UNL     1     -46.395  60.943 -51.189  1.00  0.00     0.070 C 
HETATM   11  H   UNL     1     -46.305  58.525 -50.409  1.00  0.00     0.184 HD
ENDROOT
BRANCH   7  12
HETATM   12  S   UNL     1     -42.630  54.517 -50.661  1.00  0.00    -0.083 SA
BRANCH  12  13
HETATM   13  C   UNL     1     -40.937  54.770 -51.259  1.00  0.00     0.123 C 
BRANCH  13  14
HETATM   14  C   UNL     1     -40.483  53.606 -52.110  1.00  0.00    -0.027 A 
HETATM   15  C   UNL     1     -40.645  53.572 -53.505  1.00  0.00     0.041 A 
HETATM   16 CL   UNL     1     -41.349  54.884 -54.382  1.00  0.00    -0.084 Cl
HETATM   17  C   UNL     1     -40.237  52.453 -54.241  1.00  0.00     0.024 A 
HETATM   18  C   UNL     1     -39.673  51.353 -53.597  1.00  0.00     0.002 A 
HETATM   19  C   UNL     1     -39.513  51.368 -52.215  1.00  0.00     0.001 A 
HETATM   20  C   UNL     1     -39.916  52.483 -51.478  1.00  0.00     0.009 A 
ENDBRANCH  13  14
ENDBRANCH  12  13
ENDBRANCH   7  12
BRANCH   2  21
HETATM   21  C   UNL     1     -43.776  58.635 -54.439  1.00  0.00    -0.028 A 
HETATM   22  C   UNL     1     -45.107  58.472 -54.859  1.00  0.00     0.011 A 
HETATM   23  C   UNL     1     -45.401  58.115 -56.178  1.00  0.00     0.024 A 
HETATM   24  C   UNL     1     -44.368  57.918 -57.090  1.00  0.00     0.034 A 
HETATM   25 CL   UNL     1     -44.729  57.467 -58.710  1.00  0.00    -0.084 Cl
HETATM   26  C   UNL     1     -43.042  58.080 -56.696  1.00  0.00     0.024 A 
HETATM   27  C   UNL     1     -42.746  58.438 -55.378  1.00  0.00     0.011 A 
ENDBRANCH   2  21
BRANCH   1  28
HETATM   28  C   UNL     1     -43.859  61.470 -52.960  1.00  0.00     0.293 C 
HETATM   29  O   UNL     1     -43.025  62.129 -52.356  1.00  0.00    -0.259 OA
BRANCH  28  30
HETATM   30  O   UNL     1     -44.524  61.890 -54.060  1.00  0.00    -0.318 OA
BRANCH  30  31
HETATM   31  C   UNL     1     -43.710  62.280 -55.177  1.00  0.00     0.174 C 
HETATM   32  C   UNL     1     -44.287  61.748 -56.477  1.00  0.00     0.034 C 
ENDBRANCH  30  31
ENDBRANCH  28  30
ENDBRANCH   1  28
TORSDOF 7
ENDMDL
MODEL 8
REMARK VINA RESULT:      -7.4      2.350      2.915
REMARK  7 active torsions:
REMARK  status: ('A' for Active; 'I' for Inactive)
REMARK    1  A    between atoms: C_2  and  O_3 
REMARK    2  A    between atoms: O_3  and  C_4 
REMARK    3  A    between atoms: C_4  and  C_5 
REMARK    4  A    between atoms: C_6  and  C_7 
REMARK    5  A    between atoms: C_18  and  S_19 
REMARK    6  A    between atoms: S_19  and  C_20 
REMARK    7  A    between atoms: C_20  and  C_21 
ROOT
HETATM    1  C   UNL     1     -43.593  59.079 -52.432  1.00  0.00     0.070 C 
HETATM    2  C   UNL     1     -42.733  58.601 -53.604  1.00  0.00     0.203 C 
HETATM    3  N   UNL     1     -42.842  57.150 -53.776  1.00  0.00    -0.082 N 
HETATM    4  C   UNL     1     -43.829  56.390 -53.217  1.00  0.00     0.726 A 
HETATM    5  N   UNL     1     -44.746  56.988 -52.429  1.00  0.00    -0.192 N 
HETATM    6  N   UNL     1     -41.942  56.391 -54.423  1.00  0.00    -0.128 NA
HETATM    7  C   UNL     1     -42.479  55.176 -54.267  1.00  0.00     0.226 A 
HETATM    8  N   UNL     1     -43.649  55.135 -53.544  1.00  0.00    -0.035 NA
HETATM    9  C   UNL     1     -44.589  58.290 -51.944  1.00  0.00     0.037 C 
HETATM   10  C   UNL     1     -45.588  58.704 -50.893  1.00  0.00     0.070 C 
HETATM   11  H   UNL     1     -45.414  56.395 -51.942  1.00  0.00     0.184 HD
ENDROOT
BRANCH   7  12
HETATM   12  S   UNL     1     -41.684  53.772 -54.917  1.00  0.00    -0.083 SA
BRANCH  12  13
HETATM   13  C   UNL     1     -40.259  53.649 -53.802  1.00  0.00     0.123 C 
BRANCH  13  14
HETATM   14  C   UNL     1     -40.061  52.227 -53.330  1.00  0.00    -0.027 A 
HETATM   15  C   UNL     1     -39.810  51.897 -51.988  1.00  0.00     0.041 A 
HETATM   16 CL   UNL     1     -39.742  53.094 -50.744  1.00  0.00    -0.084 Cl
HETATM   17  C   UNL     1     -39.599  50.566 -51.611  1.00  0.00     0.024 A 
HETATM   18  C   UNL     1     -39.628  49.550 -52.565  1.00  0.00     0.002 A 
HETATM   19  C   UNL     1     -39.868  49.861 -53.900  1.00  0.00     0.001 A 
HETATM   20  C   UNL     1     -40.081  51.188 -54.280  1.00  0.00     0.009 A 
ENDBRANCH  13  14
ENDBRANCH  12  13
ENDBRANCH   7  12
BRANCH   2  21
HETATM   21  C   UNL     1     -43.098  59.299 -54.918  1.00  0.00    -0.028 A 
HETATM   22  C   UNL     1     -42.121  60.033 -55.612  1.00  0.00     0.011 A 
HETATM   23  C   UNL     1     -42.439  60.702 -56.797  1.00  0.00     0.024 A 
HETATM   24  C   UNL     1     -43.736  60.646 -57.300  1.00  0.00     0.034 A 
HETATM   25 CL   UNL     1     -44.130  61.480 -58.751  1.00  0.00    -0.084 Cl
HETATM   26  C   UNL     1     -44.719  59.920 -56.630  1.00  0.00     0.024 A 
HETATM   27  C   UNL     1     -44.402  59.249 -55.446  1.00  0.00     0.011 A 
ENDBRANCH   2  21
BRANCH   1  28
HETATM   28  C   UNL     1     -43.156  60.403 -51.916  1.00  0.00     0.293 C 
HETATM   29  O   UNL     1     -43.913  61.360 -51.825  1.00  0.00    -0.259 OA
BRANCH  28  30
HETATM   30  O   UNL     1     -41.825  60.448 -51.680  1.00  0.00    -0.318 OA
BRANCH  30  31
HETATM   31  C   UNL     1     -41.409  60.080 -50.355  1.00  0.00     0.174 C 
HETATM   32  C   UNL     1     -40.121  59.278 -50.398  1.00  0.00     0.034 C 
ENDBRANCH  30  31
ENDBRANCH  28  30
ENDBRANCH   1  28
TORSDOF 7
ENDMDL
MODEL 9
REMARK VINA RESULT:      -7.2      3.896      7.092
REMARK  7 active torsions:
REMARK  status: ('A' for Active; 'I' for Inactive)
REMARK    1  A    between atoms: C_2  and  O_3 
REMARK    2  A    between atoms: O_3  and  C_4 
REMARK    3  A    between atoms: C_4  and  C_5 
REMARK    4  A    between atoms: C_6  and  C_7 
REMARK    5  A    between atoms: C_18  and  S_19 
REMARK    6  A    between atoms: S_19  and  C_20 
REMARK    7  A    between atoms: C_20  and  C_21 
ROOT
HETATM    1  C   UNL     1     -42.171  55.999 -51.542  1.00  0.00     0.070 C 
HETATM    2  C   UNL     1     -41.830  57.268 -52.327  1.00  0.00     0.203 C 
HETATM    3  N   UNL     1     -42.385  57.211 -53.682  1.00  0.00    -0.082 N 
HETATM    4  C   UNL     1     -43.355  56.332 -54.070  1.00  0.00     0.726 A 
HETATM    5  N   UNL     1     -43.818  55.435 -53.176  1.00  0.00    -0.192 N 
HETATM    6  N   UNL     1     -41.944  57.948 -54.715  1.00  0.00    -0.128 NA
HETATM    7  C   UNL     1     -42.738  57.503 -55.697  1.00  0.00     0.226 A 
HETATM    8  N   UNL     1     -43.630  56.520 -55.336  1.00  0.00    -0.035 NA
HETATM    9  C   UNL     1     -43.177  55.183 -51.959  1.00  0.00     0.037 C 
HETATM   10  C   UNL     1     -43.696  53.987 -51.200  1.00  0.00     0.070 C 
HETATM   11  H   UNL     1     -44.467  54.725 -53.507  1.00  0.00     0.184 HD
ENDROOT
BRANCH   7  12
HETATM   12  S   UNL     1     -42.576  58.130 -57.311  1.00  0.00    -0.083 SA
BRANCH  12  13
HETATM   13  C   UNL     1     -44.314  58.181 -57.826  1.00  0.00     0.123 C 
BRANCH  13  14
HETATM   14  C   UNL     1     -44.621  57.075 -58.809  1.00  0.00    -0.027 A 
HETATM   15  C   UNL     1     -45.808  57.029 -59.559  1.00  0.00     0.041 A 
HETATM   16 CL   UNL     1     -47.014  58.262 -59.449  1.00  0.00    -0.084 Cl
HETATM   17  C   UNL     1     -46.058  55.962 -60.430  1.00  0.00     0.024 A 
HETATM   18  C   UNL     1     -45.133  54.926 -60.558  1.00  0.00     0.002 A 
HETATM   19  C   UNL     1     -43.956  54.953 -59.818  1.00  0.00     0.001 A 
HETATM   20  C   UNL     1     -43.703  56.017 -58.949  1.00  0.00     0.009 A 
ENDBRANCH  13  14
ENDBRANCH  12  13
ENDBRANCH   7  12
BRANCH   2  21
HETATM   21  C   UNL     1     -42.327  58.537 -51.626  1.00  0.00    -0.028 A 
HETATM   22  C   UNL     1     -43.705  58.730 -51.430  1.00  0.00     0.011 A 
HETATM   23  C   UNL     1     -44.183  59.893 -50.819  1.00  0.00     0.024 A 
HETATM   24  C   UNL     1     -43.289  60.875 -50.400  1.00  0.00     0.034 A 
HETATM   25 CL   UNL     1     -43.878  62.311 -49.661  1.00  0.00    -0.084 Cl
HETATM   26  C   UNL     1     -41.919  60.701 -50.580  1.00  0.00     0.024 A 
HETATM   27  C   UNL     1     -41.440  59.538 -51.189  1.00  0.00     0.011 A 
ENDBRANCH   2  21
BRANCH   1  28
HETATM   28  C   UNL     1     -41.257  55.788 -50.388  1.00  0.00     0.293 C 
HETATM   29  O   UNL     1     -41.159  56.587 -49.468  1.00  0.00    -0.259 OA
BRANCH  28  30
HETATM   30  O   UNL     1     -40.483  54.689 -50.541  1.00  0.00    -0.318 OA
BRANCH  30  31
HETATM   31  C   UNL     1     -39.696  54.310 -49.401  1.00  0.00     0.174 C 
HETATM   32  C   UNL     1     -40.503  53.439 -48.455  1.00  0.00     0.034 C 
ENDBRANCH  30  31
ENDBRANCH  28  30
ENDBRANCH   1  28
TORSDOF 7
ENDMDL
MODEL 10
REMARK VINA RESULT:      -7.2      4.141      7.699
REMARK  7 active torsions:
REMARK  status: ('A' for Active; 'I' for Inactive)
REMARK    1  A    between atoms: C_2  and  O_3 
REMARK    2  A    between atoms: O_3  and  C_4 
REMARK    3  A    between atoms: C_4  and  C_5 
REMARK    4  A    between atoms: C_6  and  C_7 
REMARK    5  A    between atoms: C_18  and  S_19 
REMARK    6  A    between atoms: S_19  and  C_20 
REMARK    7  A    between atoms: C_20  and  C_21 
ROOT
HETATM    1  C   UNL     1     -41.901  57.453 -52.038  1.00  0.00     0.070 C 
HETATM    2  C   UNL     1     -42.470  56.795 -53.298  1.00  0.00     0.203 C 
HETATM    3  N   UNL     1     -42.386  57.702 -54.445  1.00  0.00    -0.082 N 
HETATM    4  C   UNL     1     -41.600  58.818 -54.477  1.00  0.00     0.726 A 
HETATM    5  N   UNL     1     -40.877  59.138 -53.385  1.00  0.00    -0.192 N 
HETATM    6  N   UNL     1     -43.134  57.594 -55.556  1.00  0.00    -0.128 NA
HETATM    7  C   UNL     1     -42.704  58.653 -56.252  1.00  0.00     0.226 A 
HETATM    8  N   UNL     1     -41.749  59.422 -55.629  1.00  0.00    -0.035 NA
HETATM    9  C   UNL     1     -41.090  58.541 -52.138  1.00  0.00     0.037 C 
HETATM   10  C   UNL     1     -40.359  59.188 -50.988  1.00  0.00     0.070 C 
HETATM   11  H   UNL     1     -40.375  60.023 -53.389  1.00  0.00     0.184 HD
ENDROOT
BRANCH   7  12
HETATM   12  S   UNL     1     -43.378  59.011 -57.815  1.00  0.00    -0.083 SA
BRANCH  12  13
HETATM   13  C   UNL     1     -41.878  59.016 -58.833  1.00  0.00     0.123 C 
BRANCH  13  14
HETATM   14  C   UNL     1     -41.948  60.089 -59.896  1.00  0.00    -0.027 A 
HETATM   15  C   UNL     1     -41.410  61.374 -59.719  1.00  0.00     0.041 A 
HETATM   16 CL   UNL     1     -40.581  61.834 -58.274  1.00  0.00    -0.084 Cl
HETATM   17  C   UNL     1     -41.533  62.341 -60.724  1.00  0.00     0.024 A 
HETATM   18  C   UNL     1     -42.201  62.042 -61.911  1.00  0.00     0.002 A 
HETATM   19  C   UNL     1     -42.746  60.776 -62.099  1.00  0.00     0.001 A 
HETATM   20  C   UNL     1     -42.622  59.808 -61.100  1.00  0.00     0.009 A 
ENDBRANCH  13  14
ENDBRANCH  12  13
ENDBRANCH   7  12
BRANCH   2  21
HETATM   21  C   UNL     1     -41.765  55.478 -53.636  1.00  0.00    -0.028 A 
HETATM   22  C   UNL     1     -40.725  55.467 -54.580  1.00  0.00     0.011 A 
HETATM   23  C   UNL     1     -40.087  54.273 -54.927  1.00  0.00     0.024 A 
HETATM   24  C   UNL     1     -40.483  53.077 -54.334  1.00  0.00     0.034 A 
HETATM   25 CL   UNL     1     -39.708  51.606 -54.770  1.00  0.00    -0.084 Cl
HETATM   26  C   UNL     1     -41.509  53.066 -53.391  1.00  0.00     0.024 A 
HETATM   27  C   UNL     1     -42.146  54.260 -53.043  1.00  0.00     0.011 A 
ENDBRANCH   2  21
BRANCH   1  28
HETATM   28  C   UNL     1     -42.392  56.804 -50.793  1.00  0.00     0.293 C 
HETATM   29  O   UNL     1     -43.581  56.651 -50.552  1.00  0.00    -0.259 OA
BRANCH  28  30
HETATM   30  O   UNL     1     -41.387  56.521 -49.933  1.00  0.00    -0.318 OA
BRANCH  30  31
HETATM   31  C   UNL     1     -41.326  55.165 -49.462  1.00  0.00     0.174 C 
HETATM   32  C   UNL     1     -39.992  54.531 -49.817  1.00  0.00     0.034 C 
ENDBRANCH  30  31
ENDBRANCH  28  30
ENDBRANCH   1  28
TORSDOF 7
ENDMDL
