MODEL 1
REMARK VINA RESULT:      -8.3      0.000      0.000
REMARK  5 active torsions:
REMARK  status: ('A' for Active; 'I' for Inactive)
REMARK    1  A    between atoms: C_6  and  O_7 
REMARK    2  A    between atoms: O_7  and  C_8 
REMARK    3  A    between atoms: C_8  and  C_9 
REMARK       I    between atoms: C_9  and  N_10 
REMARK    4  A    between atoms: N_10  and  N_11 
REMARK    5  A    between atoms: C_12  and  C_13 
ROOT
HETATM    1  C   UNL     1     -42.493  56.466 -56.115  1.00  0.00     0.261 C 
HETATM    2  N   UNL     1     -42.199  55.114 -56.218  1.00  0.00    -0.246 N 
HETATM    3  O   UNL     1     -42.584  57.098 -55.062  1.00  0.00    -0.269 OA
HETATM    4  H   UNL     1     -42.186  54.676 -57.134  1.00  0.00     0.192 HD
ENDROOT
BRANCH   2   5
HETATM    5  N   UNL     1     -41.988  54.381 -55.088  1.00  0.00    -0.184 NA
HETATM    6  C   UNL     1     -40.757  54.205 -54.736  1.00  0.00     0.152 C 
BRANCH   6   7
HETATM    7  C   UNL     1     -40.469  53.443 -53.539  1.00  0.00     0.011 A 
HETATM    8  C   UNL     1     -40.154  52.048 -53.438  1.00  0.00     0.004 A 
HETATM    9  C   UNL     1     -39.941  51.765 -52.087  1.00  0.00     0.043 A 
HETATM   10  C   UNL     1     -40.016  50.997 -54.370  1.00  0.00     0.014 A 
HETATM   11  C   UNL     1     -39.600  50.490 -51.621  1.00  0.00     0.030 A 
HETATM   12  N   UNL     1     -40.124  52.937 -51.391  1.00  0.00    -0.364 N 
HETATM   13  C   UNL     1     -39.469  49.469 -52.566  1.00  0.00     0.002 A 
HETATM   14  C   UNL     1     -39.673  49.715 -53.920  1.00  0.00     0.001 A 
HETATM   15  H   UNL     1     -40.030  53.033 -50.390  1.00  0.00     0.165 HD
HETATM   16  C   UNL     1     -40.435  53.952 -52.253  1.00  0.00     0.102 A 
ENDBRANCH   6   7
ENDBRANCH   2   5
BRANCH   1  17
HETATM   17  C   UNL     1     -42.592  57.163 -57.468  1.00  0.00     0.280 C 
BRANCH  17  18
HETATM   18  O   UNL     1     -42.762  56.221 -58.527  1.00  0.00    -0.342 OA
BRANCH  18  19
HETATM   19  C   UNL     1     -43.966  56.332 -59.171  1.00  0.00     0.069 A 
HETATM   20  C   UNL     1     -44.924  57.305 -58.878  1.00  0.00     0.044 A 
HETATM   21  C   UNL     1     -46.133  57.366 -59.594  1.00  0.00    -0.053 A 
HETATM   22  C   UNL     1     -46.383  56.422 -60.609  1.00  0.00    -0.056 A 
HETATM   23  C   UNL     1     -47.142  58.424 -59.237  1.00  0.00     0.049 C 
HETATM   24  C   UNL     1     -47.663  56.436 -61.400  1.00  0.00     0.049 C 
HETATM   25  C   UNL     1     -45.398  55.470 -60.916  1.00  0.00     0.010 A 
HETATM   26  C   UNL     1     -44.196  55.431 -60.206  1.00  0.00     0.037 A 
ENDBRANCH  18  19
ENDBRANCH  17  18
ENDBRANCH   1  17
TORSDOF 5
ENDMDL
MODEL 2
REMARK VINA RESULT:      -8.2      1.869      9.659
REMARK  5 active torsions:
REMARK  status: ('A' for Active; 'I' for Inactive)
REMARK    1  A    between atoms: C_6  and  O_7 
REMARK    2  A    between atoms: O_7  and  C_8 
REMARK    3  A    between atoms: C_8  and  C_9 
REMARK       I    between atoms: C_9  and  N_10 
REMARK    4  A    between atoms: N_10  and  N_11 
REMARK    5  A    between atoms: C_12  and  C_13 
ROOT
HETATM    1  C   UNL     1     -42.100  55.268 -55.504  1.00  0.00     0.261 C 
HETATM    2  N   UNL     1     -42.033  55.723 -56.813  1.00  0.00    -0.246 N 
HETATM    3  O   UNL     1     -43.135  55.002 -54.893  1.00  0.00    -0.269 OA
HETATM    4  H   UNL     1     -41.129  55.952 -57.216  1.00  0.00     0.192 HD
ENDROOT
BRANCH   2   5
HETATM    5  N   UNL     1     -43.183  55.910 -57.523  1.00  0.00    -0.184 NA
HETATM    6  C   UNL     1     -43.085  55.833 -58.809  1.00  0.00     0.152 C 
BRANCH   6   7
HETATM    7  C   UNL     1     -44.273  56.013 -59.617  1.00  0.00     0.011 A 
HETATM    8  C   UNL     1     -45.227  57.080 -59.553  1.00  0.00     0.004 A 
HETATM    9  C   UNL     1     -46.193  56.836 -60.533  1.00  0.00     0.043 A 
HETATM   10  C   UNL     1     -45.357  58.243 -58.764  1.00  0.00     0.014 A 
HETATM   11  C   UNL     1     -47.279  57.690 -60.760  1.00  0.00     0.030 A 
HETATM   12  N   UNL     1     -45.846  55.664 -61.163  1.00  0.00    -0.364 N 
HETATM   13  C   UNL     1     -47.381  58.834 -59.965  1.00  0.00     0.002 A 
HETATM   14  C   UNL     1     -46.436  59.110 -58.981  1.00  0.00     0.001 A 
HETATM   15  H   UNL     1     -46.365  55.242 -61.921  1.00  0.00     0.165 HD
HETATM   16  C   UNL     1     -44.692  55.165 -60.627  1.00  0.00     0.102 A 
ENDBRANCH   6   7
ENDBRANCH   2   5
BRANCH   1  17
HETATM   17  C   UNL     1     -40.728  55.007 -54.890  1.00  0.00     0.280 C 
BRANCH  17  18
HETATM   18  O   UNL     1     -40.809  54.881 -53.470  1.00  0.00    -0.342 OA
BRANCH  18  19
HETATM   19  C   UNL     1     -40.471  53.635 -53.011  1.00  0.00     0.069 A 
HETATM   20  C   UNL     1     -40.255  52.529 -53.836  1.00  0.00     0.044 A 
HETATM   21  C   UNL     1     -39.894  51.283 -53.292  1.00  0.00    -0.053 A 
HETATM   22  C   UNL     1     -39.764  51.150 -51.896  1.00  0.00    -0.056 A 
HETATM   23  C   UNL     1     -39.684  50.114 -54.216  1.00  0.00     0.049 C 
HETATM   24  C   UNL     1     -39.390  49.839 -51.260  1.00  0.00     0.049 C 
HETATM   25  C   UNL     1     -39.951  52.278 -51.081  1.00  0.00     0.010 A 
HETATM   26  C   UNL     1     -40.295  53.512 -51.637  1.00  0.00     0.037 A 
ENDBRANCH  18  19
ENDBRANCH  17  18
ENDBRANCH   1  17
TORSDOF 5
ENDMDL
MODEL 3
REMARK VINA RESULT:      -8.1      0.804      1.604
REMARK  5 active torsions:
REMARK  status: ('A' for Active; 'I' for Inactive)
REMARK    1  A    between atoms: C_6  and  O_7 
REMARK    2  A    between atoms: O_7  and  C_8 
REMARK    3  A    between atoms: C_8  and  C_9 
REMARK       I    between atoms: C_9  and  N_10 
REMARK    4  A    between atoms: N_10  and  N_11 
REMARK    5  A    between atoms: C_12  and  C_13 
ROOT
HETATM    1  C   UNL     1     -42.326  57.154 -56.230  1.00  0.00     0.261 C 
HETATM    2  N   UNL     1     -41.745  55.895 -56.184  1.00  0.00    -0.246 N 
HETATM    3  O   UNL     1     -42.602  57.848 -55.251  1.00  0.00    -0.269 OA
HETATM    4  H   UNL     1     -41.594  55.385 -57.049  1.00  0.00     0.192 HD
ENDROOT
BRANCH   2   5
HETATM    5  N   UNL     1     -41.438  55.336 -54.979  1.00  0.00    -0.184 NA
HETATM    6  C   UNL     1     -40.933  54.146 -55.008  1.00  0.00     0.152 C 
BRANCH   6   7
HETATM    7  C   UNL     1     -40.576  53.503 -53.760  1.00  0.00     0.011 A 
HETATM    8  C   UNL     1     -40.240  52.127 -53.544  1.00  0.00     0.004 A 
HETATM    9  C   UNL     1     -39.956  51.975 -52.184  1.00  0.00     0.043 A 
HETATM   10  C   UNL     1     -40.136  50.993 -54.377  1.00  0.00     0.014 A 
HETATM   11  C   UNL     1     -39.577  50.752 -51.618  1.00  0.00     0.030 A 
HETATM   12  N   UNL     1     -40.118  53.207 -51.594  1.00  0.00    -0.364 N 
HETATM   13  C   UNL     1     -39.481  49.647 -52.467  1.00  0.00     0.002 A 
HETATM   14  C   UNL     1     -39.755  49.762 -53.827  1.00  0.00     0.001 A 
HETATM   15  H   UNL     1     -39.976  53.398 -50.613  1.00  0.00     0.165 HD
HETATM   16  C   UNL     1     -40.484  54.132 -52.531  1.00  0.00     0.102 A 
ENDBRANCH   6   7
ENDBRANCH   2   5
BRANCH   1  17
HETATM   17  C   UNL     1     -42.506  57.680 -57.650  1.00  0.00     0.280 C 
BRANCH  17  18
HETATM   18  O   UNL     1     -43.703  58.448 -57.773  1.00  0.00    -0.342 OA
BRANCH  18  19
HETATM   19  C   UNL     1     -44.604  57.919 -58.659  1.00  0.00     0.069 A 
HETATM   20  C   UNL     1     -44.366  56.782 -59.433  1.00  0.00     0.044 A 
HETATM   21  C   UNL     1     -45.347  56.288 -60.311  1.00  0.00    -0.053 A 
HETATM   22  C   UNL     1     -46.580  56.961 -60.419  1.00  0.00    -0.056 A 
HETATM   23  C   UNL     1     -45.044  55.066 -61.136  1.00  0.00     0.049 C 
HETATM   24  C   UNL     1     -47.662  56.483 -61.349  1.00  0.00     0.049 C 
HETATM   25  C   UNL     1     -46.819  58.084 -59.610  1.00  0.00     0.010 A 
HETATM   26  C   UNL     1     -45.840  58.554 -58.732  1.00  0.00     0.037 A 
ENDBRANCH  18  19
ENDBRANCH  17  18
ENDBRANCH   1  17
TORSDOF 5
ENDMDL
MODEL 4
REMARK VINA RESULT:      -8.0      2.271      8.625
REMARK  5 active torsions:
REMARK  status: ('A' for Active; 'I' for Inactive)
REMARK    1  A    between atoms: C_6  and  O_7 
REMARK    2  A    between atoms: O_7  and  C_8 
REMARK    3  A    between atoms: C_8  and  C_9 
REMARK       I    between atoms: C_9  and  N_10 
REMARK    4  A    between atoms: N_10  and  N_11 
REMARK    5  A    between atoms: C_12  and  C_13 
ROOT
HETATM    1  C   UNL     1     -42.982  55.448 -53.045  1.00  0.00     0.261 C 
HETATM    2  N   UNL     1     -42.422  56.637 -53.488  1.00  0.00    -0.246 N 
HETATM    3  O   UNL     1     -43.865  54.816 -53.625  1.00  0.00    -0.269 OA
HETATM    4  H   UNL     1     -41.725  57.104 -52.915  1.00  0.00     0.192 HD
ENDROOT
BRANCH   2   5
HETATM    5  N   UNL     1     -42.854  57.193 -54.656  1.00  0.00    -0.184 NA
HETATM    6  C   UNL     1     -42.143  56.948 -55.708  1.00  0.00     0.152 C 
BRANCH   6   7
HETATM    7  C   UNL     1     -42.556  57.503 -56.980  1.00  0.00     0.011 A 
HETATM    8  C   UNL     1     -43.111  56.808 -58.105  1.00  0.00     0.004 A 
HETATM    9  C   UNL     1     -43.366  57.758 -59.098  1.00  0.00     0.043 A 
HETATM   10  C   UNL     1     -43.435  55.461 -58.372  1.00  0.00     0.014 A 
HETATM   11  C   UNL     1     -43.924  57.429 -60.339  1.00  0.00     0.030 A 
HETATM   12  N   UNL     1     -42.977  58.980 -58.602  1.00  0.00    -0.364 N 
HETATM   13  C   UNL     1     -44.236  56.088 -60.575  1.00  0.00     0.002 A 
HETATM   14  C   UNL     1     -43.997  55.116 -59.608  1.00  0.00     0.001 A 
HETATM   15  H   UNL     1     -43.049  59.854 -59.103  1.00  0.00     0.165 HD
HETATM   16  C   UNL     1     -42.496  58.840 -57.330  1.00  0.00     0.102 A 
ENDBRANCH   6   7
ENDBRANCH   2   5
BRANCH   1  17
HETATM   17  C   UNL     1     -42.316  54.905 -51.785  1.00  0.00     0.280 C 
BRANCH  17  18
HETATM   18  O   UNL     1     -40.905  54.774 -51.958  1.00  0.00    -0.342 OA
BRANCH  18  19
HETATM   19  C   UNL     1     -40.522  53.545 -52.427  1.00  0.00     0.069 A 
HETATM   20  C   UNL     1     -40.167  52.470 -51.608  1.00  0.00     0.044 A 
HETATM   21  C   UNL     1     -39.800  51.231 -52.163  1.00  0.00    -0.053 A 
HETATM   22  C   UNL     1     -39.776  51.081 -53.563  1.00  0.00    -0.056 A 
HETATM   23  C   UNL     1     -39.413  50.104 -51.244  1.00  0.00     0.049 C 
HETATM   24  C   UNL     1     -39.382  49.781 -54.210  1.00  0.00     0.049 C 
HETATM   25  C   UNL     1     -40.167  52.159 -54.374  1.00  0.00     0.010 A 
HETATM   26  C   UNL     1     -40.544  53.378 -53.807  1.00  0.00     0.037 A 
ENDBRANCH  18  19
ENDBRANCH  17  18
ENDBRANCH   1  17
TORSDOF 5
ENDMDL
MODEL 5
REMARK VINA RESULT:      -8.0      1.892      9.506
REMARK  5 active torsions:
REMARK  status: ('A' for Active; 'I' for Inactive)
REMARK    1  A    between atoms: C_6  and  O_7 
REMARK    2  A    between atoms: O_7  and  C_8 
REMARK    3  A    between atoms: C_8  and  C_9 
REMARK       I    between atoms: C_9  and  N_10 
REMARK    4  A    between atoms: N_10  and  N_11 
REMARK    5  A    between atoms: C_12  and  C_13 
ROOT
HETATM    1  C   UNL     1     -41.956  55.116 -55.583  1.00  0.00     0.261 C 
HETATM    2  N   UNL     1     -42.015  56.327 -56.257  1.00  0.00    -0.246 N 
HETATM    3  O   UNL     1     -42.867  54.291 -55.519  1.00  0.00    -0.269 OA
HETATM    4  H   UNL     1     -41.220  56.959 -56.217  1.00  0.00     0.192 HD
ENDROOT
BRANCH   2   5
HETATM    5  N   UNL     1     -43.156  56.679 -56.916  1.00  0.00    -0.184 NA
HETATM    6  C   UNL     1     -43.088  57.732 -57.663  1.00  0.00     0.152 C 
BRANCH   6   7
HETATM    7  C   UNL     1     -44.265  58.151 -58.396  1.00  0.00     0.011 A 
HETATM    8  C   UNL     1     -45.080  57.366 -59.276  1.00  0.00     0.004 A 
HETATM    9  C   UNL     1     -46.108  58.190 -59.739  1.00  0.00     0.043 A 
HETATM   10  C   UNL     1     -45.051  56.025 -59.715  1.00  0.00     0.014 A 
HETATM   11  C   UNL     1     -47.103  57.745 -60.617  1.00  0.00     0.030 A 
HETATM   12  N   UNL     1     -45.925  59.429 -59.170  1.00  0.00    -0.364 N 
HETATM   13  C   UNL     1     -47.051  56.413 -61.034  1.00  0.00     0.002 A 
HETATM   14  C   UNL     1     -46.041  55.563 -60.591  1.00  0.00     0.001 A 
HETATM   15  H   UNL     1     -46.524  60.228 -59.324  1.00  0.00     0.165 HD
HETATM   16  C   UNL     1     -44.826  59.415 -58.357  1.00  0.00     0.102 A 
ENDBRANCH   6   7
ENDBRANCH   2   5
BRANCH   1  17
HETATM   17  C   UNL     1     -40.580  54.824 -54.994  1.00  0.00     0.280 C 
BRANCH  17  18
HETATM   18  O   UNL     1     -40.629  54.749 -53.569  1.00  0.00    -0.342 OA
BRANCH  18  19
HETATM   19  C   UNL     1     -40.337  53.504 -53.076  1.00  0.00     0.069 A 
HETATM   20  C   UNL     1     -40.090  52.384 -53.873  1.00  0.00     0.044 A 
HETATM   21  C   UNL     1     -39.780  51.141 -53.294  1.00  0.00    -0.053 A 
HETATM   22  C   UNL     1     -39.735  51.024 -51.891  1.00  0.00    -0.056 A 
HETATM   23  C   UNL     1     -39.532  49.958 -54.190  1.00  0.00     0.049 C 
HETATM   24  C   UNL     1     -39.418  49.716 -51.218  1.00  0.00     0.049 C 
HETATM   25  C   UNL     1     -39.953  52.165 -51.102  1.00  0.00     0.010 A 
HETATM   26  C   UNL     1     -40.244  53.397 -51.693  1.00  0.00     0.037 A 
ENDBRANCH  18  19
ENDBRANCH  17  18
ENDBRANCH   1  17
TORSDOF 5
ENDMDL
MODEL 6
REMARK VINA RESULT:      -8.0      2.634      3.611
REMARK  5 active torsions:
REMARK  status: ('A' for Active; 'I' for Inactive)
REMARK    1  A    between atoms: C_6  and  O_7 
REMARK    2  A    between atoms: O_7  and  C_8 
REMARK    3  A    between atoms: C_8  and  C_9 
REMARK       I    between atoms: C_9  and  N_10 
REMARK    4  A    between atoms: N_10  and  N_11 
REMARK    5  A    between atoms: C_12  and  C_13 
ROOT
HETATM    1  C   UNL     1     -41.067  58.875 -53.541  1.00  0.00     0.261 C 
HETATM    2  N   UNL     1     -41.698  57.649 -53.389  1.00  0.00    -0.246 N 
HETATM    3  O   UNL     1     -39.905  59.123 -53.221  1.00  0.00    -0.269 OA
HETATM    4  H   UNL     1     -42.675  57.556 -53.649  1.00  0.00     0.192 HD
ENDROOT
BRANCH   2   5
HETATM    5  N   UNL     1     -41.017  56.602 -52.841  1.00  0.00    -0.184 NA
HETATM    6  C   UNL     1     -41.705  55.537 -52.586  1.00  0.00     0.152 C 
BRANCH   6   7
HETATM    7  C   UNL     1     -41.036  54.388 -52.013  1.00  0.00     0.011 A 
HETATM    8  C   UNL     1     -40.630  53.184 -52.676  1.00  0.00     0.004 A 
HETATM    9  C   UNL     1     -40.013  52.371 -51.723  1.00  0.00     0.043 A 
HETATM   10  C   UNL     1     -40.714  52.711 -54.003  1.00  0.00     0.014 A 
HETATM   11  C   UNL     1     -39.480  51.112 -52.027  1.00  0.00     0.030 A 
HETATM   12  N   UNL     1     -40.048  53.047 -50.526  1.00  0.00    -0.364 N 
HETATM   13  C   UNL     1     -39.576  50.670 -53.349  1.00  0.00     0.002 A 
HETATM   14  C   UNL     1     -40.183  51.456 -54.325  1.00  0.00     0.001 A 
HETATM   15  H   UNL     1     -39.669  52.698 -49.657  1.00  0.00     0.165 HD
HETATM   16  C   UNL     1     -40.654  54.261 -50.689  1.00  0.00     0.102 A 
ENDBRANCH   6   7
ENDBRANCH   2   5
BRANCH   1  17
HETATM   17  C   UNL     1     -41.926  59.905 -54.267  1.00  0.00     0.280 C 
BRANCH  17  18
HETATM   18  O   UNL     1     -43.043  59.291 -54.910  1.00  0.00    -0.342 OA
BRANCH  18  19
HETATM   19  C   UNL     1     -42.762  58.824 -56.168  1.00  0.00     0.069 A 
HETATM   20  C   UNL     1     -43.134  57.562 -56.636  1.00  0.00     0.044 A 
HETATM   21  C   UNL     1     -42.824  57.159 -57.947  1.00  0.00    -0.053 A 
HETATM   22  C   UNL     1     -42.116  58.036 -58.791  1.00  0.00    -0.056 A 
HETATM   23  C   UNL     1     -43.234  55.785 -58.406  1.00  0.00     0.049 C 
HETATM   24  C   UNL     1     -41.750  57.653 -60.199  1.00  0.00     0.049 C 
HETATM   25  C   UNL     1     -41.777  59.315 -58.319  1.00  0.00     0.010 A 
HETATM   26  C   UNL     1     -42.105  59.706 -57.019  1.00  0.00     0.037 A 
ENDBRANCH  18  19
ENDBRANCH  17  18
ENDBRANCH   1  17
TORSDOF 5
ENDMDL
MODEL 7
REMARK VINA RESULT:      -7.8      2.646      9.848
REMARK  5 active torsions:
REMARK  status: ('A' for Active; 'I' for Inactive)
REMARK    1  A    between atoms: C_6  and  O_7 
REMARK    2  A    between atoms: O_7  and  C_8 
REMARK    3  A    between atoms: C_8  and  C_9 
REMARK       I    between atoms: C_9  and  N_10 
REMARK    4  A    between atoms: N_10  and  N_11 
REMARK    5  A    between atoms: C_12  and  C_13 
ROOT
HETATM    1  C   UNL     1     -42.895  55.543 -55.752  1.00  0.00     0.261 C 
HETATM    2  N   UNL     1     -42.505  55.702 -57.074  1.00  0.00    -0.246 N 
HETATM    3  O   UNL     1     -43.660  56.289 -55.140  1.00  0.00    -0.269 OA
HETATM    4  H   UNL     1     -41.836  55.053 -57.478  1.00  0.00     0.192 HD
ENDROOT
BRANCH   2   5
HETATM    5  N   UNL     1     -42.978  56.758 -57.796  1.00  0.00    -0.184 NA
HETATM    6  C   UNL     1     -43.667  56.471 -58.852  1.00  0.00     0.152 C 
BRANCH   6   7
HETATM    7  C   UNL     1     -44.206  57.550 -59.654  1.00  0.00     0.011 A 
HETATM    8  C   UNL     1     -43.485  58.592 -60.325  1.00  0.00     0.004 A 
HETATM    9  C   UNL     1     -44.424  59.391 -60.983  1.00  0.00     0.043 A 
HETATM   10  C   UNL     1     -42.120  58.927 -60.449  1.00  0.00     0.014 A 
HETATM   11  C   UNL     1     -44.068  60.505 -61.753  1.00  0.00     0.030 A 
HETATM   12  N   UNL     1     -45.665  58.862 -60.719  1.00  0.00    -0.364 N 
HETATM   13  C   UNL     1     -42.710  60.812 -61.859  1.00  0.00     0.002 A 
HETATM   14  C   UNL     1     -41.747  60.037 -61.218  1.00  0.00     0.001 A 
HETATM   15  H   UNL     1     -46.536  59.235 -61.070  1.00  0.00     0.165 HD
HETATM   16  C   UNL     1     -45.546  57.754 -59.928  1.00  0.00     0.102 A 
ENDBRANCH   6   7
ENDBRANCH   2   5
BRANCH   1  17
HETATM   17  C   UNL     1     -42.366  54.259 -55.122  1.00  0.00     0.280 C 
BRANCH  17  18
HETATM   18  O   UNL     1     -41.124  54.480 -54.455  1.00  0.00    -0.342 OA
BRANCH  18  19
HETATM   19  C   UNL     1     -40.678  53.391 -53.752  1.00  0.00     0.069 A 
HETATM   20  C   UNL     1     -40.300  52.182 -54.340  1.00  0.00     0.044 A 
HETATM   21  C   UNL     1     -39.836  51.112 -53.553  1.00  0.00    -0.053 A 
HETATM   22  C   UNL     1     -39.768  51.261 -52.154  1.00  0.00    -0.056 A 
HETATM   23  C   UNL     1     -39.451  49.822 -54.226  1.00  0.00     0.049 C 
HETATM   24  C   UNL     1     -39.289  50.147 -51.264  1.00  0.00     0.049 C 
HETATM   25  C   UNL     1     -40.120  52.494 -51.580  1.00  0.00     0.010 A 
HETATM   26  C   UNL     1     -40.564  53.552 -52.375  1.00  0.00     0.037 A 
ENDBRANCH  18  19
ENDBRANCH  17  18
ENDBRANCH   1  17
TORSDOF 5
ENDMDL
MODEL 8
REMARK VINA RESULT:      -7.8      2.655      3.547
REMARK  5 active torsions:
REMARK  status: ('A' for Active; 'I' for Inactive)
REMARK    1  A    between atoms: C_6  and  O_7 
REMARK    2  A    between atoms: O_7  and  C_8 
REMARK    3  A    between atoms: C_8  and  C_9 
REMARK       I    between atoms: C_9  and  N_10 
REMARK    4  A    between atoms: N_10  and  N_11 
REMARK    5  A    between atoms: C_12  and  C_13 
ROOT
HETATM    1  C   UNL     1     -42.791  55.844 -55.904  1.00  0.00     0.261 C 
HETATM    2  N   UNL     1     -42.499  56.093 -54.570  1.00  0.00    -0.246 N 
HETATM    3  O   UNL     1     -42.794  54.735 -56.438  1.00  0.00    -0.269 OA
HETATM    4  H   UNL     1     -42.486  57.051 -54.234  1.00  0.00     0.192 HD
ENDROOT
BRANCH   2   5
HETATM    5  N   UNL     1     -42.179  55.056 -53.744  1.00  0.00    -0.184 NA
HETATM    6  C   UNL     1     -40.920  54.797 -53.606  1.00  0.00     0.152 C 
BRANCH   6   7
HETATM    7  C   UNL     1     -40.516  53.714 -52.733  1.00  0.00     0.011 A 
HETATM    8  C   UNL     1     -40.262  52.348 -53.086  1.00  0.00     0.004 A 
HETATM    9  C   UNL     1     -39.888  51.679 -51.918  1.00  0.00     0.043 A 
HETATM   10  C   UNL     1     -40.300  51.616 -54.292  1.00  0.00     0.014 A 
HETATM   11  C   UNL     1     -39.553  50.320 -51.895  1.00  0.00     0.030 A 
HETATM   12  N   UNL     1     -39.919  52.596 -50.895  1.00  0.00    -0.364 N 
HETATM   13  C   UNL     1     -39.598  49.620 -53.103  1.00  0.00     0.002 A 
HETATM   14  C   UNL     1     -39.965  50.256 -54.286  1.00  0.00     0.001 A 
HETATM   15  H   UNL     1     -39.690  52.393 -49.932  1.00  0.00     0.165 HD
HETATM   16  C   UNL     1     -40.289  53.822 -51.373  1.00  0.00     0.102 A 
ENDBRANCH   6   7
ENDBRANCH   2   5
BRANCH   1  17
HETATM   17  C   UNL     1     -43.234  57.090 -56.663  1.00  0.00     0.280 C 
BRANCH  17  18
HETATM   18  O   UNL     1     -42.728  57.094 -57.997  1.00  0.00    -0.342 OA
BRANCH  18  19
HETATM   19  C   UNL     1     -42.357  58.338 -58.439  1.00  0.00     0.069 A 
HETATM   20  C   UNL     1     -42.353  58.723 -59.781  1.00  0.00     0.044 A 
HETATM   21  C   UNL     1     -41.976  60.024 -60.157  1.00  0.00    -0.053 A 
HETATM   22  C   UNL     1     -41.582  60.943 -59.164  1.00  0.00    -0.056 A 
HETATM   23  C   UNL     1     -41.974  60.393 -61.615  1.00  0.00     0.049 C 
HETATM   24  C   UNL     1     -41.159  62.345 -59.511  1.00  0.00     0.049 C 
HETATM   25  C   UNL     1     -41.623  60.553 -57.816  1.00  0.00     0.010 A 
HETATM   26  C   UNL     1     -42.015  59.262 -57.457  1.00  0.00     0.037 A 
ENDBRANCH  18  19
ENDBRANCH  17  18
ENDBRANCH   1  17
TORSDOF 5
ENDMDL
MODEL 9
REMARK VINA RESULT:      -7.8      2.353      8.920
REMARK  5 active torsions:
REMARK  status: ('A' for Active; 'I' for Inactive)
REMARK    1  A    between atoms: C_6  and  O_7 
REMARK    2  A    between atoms: O_7  and  C_8 
REMARK    3  A    between atoms: C_8  and  C_9 
REMARK       I    between atoms: C_9  and  N_10 
REMARK    4  A    between atoms: N_10  and  N_11 
REMARK    5  A    between atoms: C_12  and  C_13 
ROOT
HETATM    1  C   UNL     1     -42.448  55.965 -53.548  1.00  0.00     0.261 C 
HETATM    2  N   UNL     1     -43.057  55.262 -54.578  1.00  0.00    -0.246 N 
HETATM    3  O   UNL     1     -42.152  57.160 -53.578  1.00  0.00    -0.269 OA
HETATM    4  H   UNL     1     -43.224  54.266 -54.471  1.00  0.00     0.192 HD
ENDROOT
BRANCH   2   5
HETATM    5  N   UNL     1     -43.370  55.903 -55.741  1.00  0.00    -0.184 NA
HETATM    6  C   UNL     1     -42.808  55.454 -56.815  1.00  0.00     0.152 C 
BRANCH   6   7
HETATM    7  C   UNL     1     -43.108  56.087 -58.083  1.00  0.00     0.011 A 
HETATM    8  C   UNL     1     -42.766  57.412 -58.508  1.00  0.00     0.004 A 
HETATM    9  C   UNL     1     -43.253  57.572 -59.807  1.00  0.00     0.043 A 
HETATM   10  C   UNL     1     -42.076  58.492 -57.916  1.00  0.00     0.014 A 
HETATM   11  C   UNL     1     -43.086  58.752 -60.542  1.00  0.00     0.030 A 
HETATM   12  N   UNL     1     -43.872  56.396 -60.158  1.00  0.00    -0.364 N 
HETATM   13  C   UNL     1     -42.397  59.803 -59.933  1.00  0.00     0.002 A 
HETATM   14  C   UNL     1     -41.898  59.678 -58.640  1.00  0.00     0.001 A 
HETATM   15  H   UNL     1     -44.315  56.221 -61.050  1.00  0.00     0.165 HD
HETATM   16  C   UNL     1     -43.786  55.495 -59.134  1.00  0.00     0.102 A 
ENDBRANCH   6   7
ENDBRANCH   2   5
BRANCH   1  17
HETATM   17  C   UNL     1     -42.265  55.135 -52.282  1.00  0.00     0.280 C 
BRANCH  17  18
HETATM   18  O   UNL     1     -40.888  54.840 -52.049  1.00  0.00    -0.342 OA
BRANCH  18  19
HETATM   19  C   UNL     1     -40.512  53.596 -52.486  1.00  0.00     0.069 A 
HETATM   20  C   UNL     1     -40.197  52.531 -51.640  1.00  0.00     0.044 A 
HETATM   21  C   UNL     1     -39.835  51.277 -52.163  1.00  0.00    -0.053 A 
HETATM   22  C   UNL     1     -39.777  51.102 -53.560  1.00  0.00    -0.056 A 
HETATM   23  C   UNL     1     -39.491  50.160 -51.215  1.00  0.00     0.049 C 
HETATM   24  C   UNL     1     -39.386  49.785 -54.174  1.00  0.00     0.049 C 
HETATM   25  C   UNL     1     -40.128  52.171 -54.399  1.00  0.00     0.010 A 
HETATM   26  C   UNL     1     -40.500  53.406 -53.864  1.00  0.00     0.037 A 
ENDBRANCH  18  19
ENDBRANCH  17  18
ENDBRANCH   1  17
TORSDOF 5
ENDMDL
MODEL 10
REMARK VINA RESULT:      -7.7      1.184      1.649
REMARK  5 active torsions:
REMARK  status: ('A' for Active; 'I' for Inactive)
REMARK    1  A    between atoms: C_6  and  O_7 
REMARK    2  A    between atoms: O_7  and  C_8 
REMARK    3  A    between atoms: C_8  and  C_9 
REMARK       I    between atoms: C_9  and  N_10 
REMARK    4  A    between atoms: N_10  and  N_11 
REMARK    5  A    between atoms: C_12  and  C_13 
ROOT
HETATM    1  C   UNL     1     -42.424  55.538 -56.302  1.00  0.00     0.261 C 
HETATM    2  N   UNL     1     -41.237  55.611 -55.587  1.00  0.00    -0.246 N 
HETATM    3  O   UNL     1     -43.187  54.572 -56.322  1.00  0.00    -0.269 OA
HETATM    4  H   UNL     1     -40.656  56.440 -55.668  1.00  0.00     0.192 HD
ENDROOT
BRANCH   2   5
HETATM    5  N   UNL     1     -40.838  54.548 -54.831  1.00  0.00    -0.184 NA
HETATM    6  C   UNL     1     -40.891  54.701 -53.549  1.00  0.00     0.152 C 
BRANCH   6   7
HETATM    7  C   UNL     1     -40.489  53.604 -52.693  1.00  0.00     0.011 A 
HETATM    8  C   UNL     1     -40.234  52.244 -53.066  1.00  0.00     0.004 A 
HETATM    9  C   UNL     1     -39.862  51.556 -51.908  1.00  0.00     0.043 A 
HETATM   10  C   UNL     1     -40.270  51.530 -54.283  1.00  0.00     0.014 A 
HETATM   11  C   UNL     1     -39.528  50.197 -51.905  1.00  0.00     0.030 A 
HETATM   12  N   UNL     1     -39.896  52.458 -50.870  1.00  0.00    -0.364 N 
HETATM   13  C   UNL     1     -39.571  49.516 -53.124  1.00  0.00     0.002 A 
HETATM   14  C   UNL     1     -39.935  50.170 -54.298  1.00  0.00     0.001 A 
HETATM   15  H   UNL     1     -39.669  52.239 -49.910  1.00  0.00     0.165 HD
HETATM   16  C   UNL     1     -40.264  53.691 -51.330  1.00  0.00     0.102 A 
ENDBRANCH   6   7
ENDBRANCH   2   5
BRANCH   1  17
HETATM   17  C   UNL     1     -42.780  56.844 -57.005  1.00  0.00     0.280 C 
BRANCH  17  18
HETATM   18  O   UNL     1     -42.736  56.699 -58.425  1.00  0.00    -0.342 OA
BRANCH  18  19
HETATM   19  C   UNL     1     -43.830  57.223 -59.063  1.00  0.00     0.069 A 
HETATM   20  C   UNL     1     -44.946  56.476 -59.443  1.00  0.00     0.044 A 
HETATM   21  C   UNL     1     -46.040  57.088 -60.081  1.00  0.00    -0.053 A 
HETATM   22  C   UNL     1     -45.998  58.469 -60.352  1.00  0.00    -0.056 A 
HETATM   23  C   UNL     1     -47.218  56.243 -60.484  1.00  0.00     0.049 C 
HETATM   24  C   UNL     1     -47.136  59.173 -61.041  1.00  0.00     0.049 C 
HETATM   25  C   UNL     1     -44.884  59.215 -59.935  1.00  0.00     0.010 A 
HETATM   26  C   UNL     1     -43.812  58.596 -59.289  1.00  0.00     0.037 A 
ENDBRANCH  18  19
ENDBRANCH  17  18
ENDBRANCH   1  17
TORSDOF 5
ENDMDL
