MODEL 1
REMARK VINA RESULT:      -7.3      0.000      0.000
REMARK  6 active torsions:
REMARK  status: ('A' for Active; 'I' for Inactive)
REMARK    1  A    between atoms: C_3  and  N_4 
REMARK    2  A    between atoms: N_4  and  C_5 
REMARK    3  A    between atoms: C_5  and  C_6 
REMARK    4  A    between atoms: N_8  and  C_10 
REMARK    5  A    between atoms: C_10  and  C_11 
REMARK    6  A    between atoms: C_12  and  O_13 
ROOT
HETATM    1  C   UNL     1     -40.689  54.754 -50.223  1.00  0.00     0.031 C 
HETATM    2  C   UNL     1     -41.084  55.264 -51.608  1.00  0.00     0.241 C 
HETATM    3  N   UNL     1     -42.582  55.134 -51.674  1.00  0.00    -0.067 N 
HETATM    4  H   UNL     1     -42.962  56.067 -51.932  1.00  0.00     0.280 HD
HETATM    5  C   UNL     1     -43.102  54.810 -50.298  1.00  0.00     0.235 C 
HETATM    6  C   UNL     1     -41.922  55.098 -49.386  1.00  0.00     0.035 C 
ENDROOT
BRANCH   3   7
HETATM    7  C   UNL     1     -43.106  54.254 -52.780  1.00  0.00     0.276 C 
BRANCH   7   8
HETATM    8  C   UNL     1     -43.192  54.951 -54.108  1.00  0.00     0.002 A 
HETATM    9  C   UNL     1     -43.872  56.171 -54.233  1.00  0.00     0.091 A 
HETATM   10  C   UNL     1     -43.909  56.853 -55.452  1.00  0.00     0.044 A 
HETATM   11 BR   UNL     1     -44.822  58.502 -55.608  1.00  0.00    -0.048 Br
HETATM   12  C   UNL     1     -43.272  56.316 -56.567  1.00  0.00     0.022 A 
HETATM   13  C   UNL     1     -42.595  55.100 -56.460  1.00  0.00     0.002 A 
HETATM   14  C   UNL     1     -42.550  54.422 -55.237  1.00  0.00     0.012 A 
BRANCH   9  15
HETATM   15  O   UNL     1     -44.511  56.657 -53.118  1.00  0.00    -0.359 OA
HETATM   16  H   UNL     1     -43.869  56.577 -52.377  1.00  0.00     0.218 HD
ENDBRANCH   9  15
ENDBRANCH   7   8
ENDBRANCH   3   7
BRANCH   1  17
HETATM   17  C   UNL     1     -40.340  53.253 -50.178  1.00  0.00     0.127 C 
BRANCH  17  18
HETATM   18  N   UNL     1     -39.489  52.909 -51.313  1.00  0.00    -0.376 N 
HETATM   19  H   UNL     1     -39.165  53.733 -51.828  1.00  0.00     0.161 HD
BRANCH  18  20
HETATM   20  C   UNL     1     -39.704  51.870 -52.216  1.00  0.00     0.100 A 
HETATM   21  C   UNL     1     -40.091  52.191 -53.528  1.00  0.00     0.048 A 
HETATM   22  C   UNL     1     -40.278  51.189 -54.478  1.00  0.00     0.005 A 
HETATM   23  C   UNL     1     -40.064  49.868 -54.122  1.00  0.00     0.017 A 
HETATM   24  C   UNL     1     -39.657  49.583 -52.828  1.00  0.00     0.089 A 
HETATM   25  N   UNL     1     -39.483  50.575 -51.936  1.00  0.00    -0.353 N 
HETATM   26  H   UNL     1     -39.166  50.312 -51.010  1.00  0.00     0.166 HD
ENDBRANCH  18  20
ENDBRANCH  17  18
ENDBRANCH   1  17
TORSDOF 6
ENDMDL
MODEL 2
REMARK VINA RESULT:      -7.0      3.791      6.893
REMARK  6 active torsions:
REMARK  status: ('A' for Active; 'I' for Inactive)
REMARK    1  A    between atoms: C_3  and  N_4 
REMARK    2  A    between atoms: N_4  and  C_5 
REMARK    3  A    between atoms: C_5  and  C_6 
REMARK    4  A    between atoms: N_8  and  C_10 
REMARK    5  A    between atoms: C_10  and  C_11 
REMARK    6  A    between atoms: C_12  and  O_13 
ROOT
HETATM    1  C   UNL     1     -43.538  55.662 -54.830  1.00  0.00     0.031 C 
HETATM    2  C   UNL     1     -42.899  54.290 -54.616  1.00  0.00     0.241 C 
HETATM    3  N   UNL     1     -42.055  54.426 -53.377  1.00  0.00    -0.067 N 
HETATM    4  H   UNL     1     -42.348  53.677 -52.719  1.00  0.00     0.280 HD
HETATM    5  C   UNL     1     -42.371  55.743 -52.717  1.00  0.00     0.235 C 
HETATM    6  C   UNL     1     -43.650  56.195 -53.401  1.00  0.00     0.035 C 
ENDROOT
BRANCH   3   7
HETATM    7  C   UNL     1     -40.587  54.140 -53.562  1.00  0.00     0.276 C 
BRANCH   7   8
HETATM    8  C   UNL     1     -40.251  52.677 -53.497  1.00  0.00     0.002 A 
HETATM    9  C   UNL     1     -40.075  52.038 -52.262  1.00  0.00     0.091 A 
HETATM   10  C   UNL     1     -39.816  50.666 -52.191  1.00  0.00     0.044 A 
HETATM   11 BR   UNL     1     -39.588  49.812 -50.519  1.00  0.00    -0.048 Br
HETATM   12  C   UNL     1     -39.723  49.916 -53.361  1.00  0.00     0.022 A 
HETATM   13  C   UNL     1     -39.892  50.540 -54.599  1.00  0.00     0.002 A 
HETATM   14  C   UNL     1     -40.160  51.910 -54.668  1.00  0.00     0.012 A 
BRANCH   9  15
HETATM   15  O   UNL     1     -40.147  52.814 -51.130  1.00  0.00    -0.359 OA
HETATM   16  H   UNL     1     -40.473  53.695 -51.423  1.00  0.00     0.218 HD
ENDBRANCH   9  15
ENDBRANCH   7   8
ENDBRANCH   3   7
BRANCH   1  17
HETATM   17  C   UNL     1     -42.729  56.596 -55.752  1.00  0.00     0.127 C 
BRANCH  17  18
HETATM   18  N   UNL     1     -42.362  55.890 -56.975  1.00  0.00    -0.376 N 
HETATM   19  H   UNL     1     -41.370  55.993 -57.209  1.00  0.00     0.161 HD
BRANCH  18  20
HETATM   20  C   UNL     1     -43.101  55.854 -58.156  1.00  0.00     0.100 A 
HETATM   21  C   UNL     1     -42.904  56.877 -59.101  1.00  0.00     0.048 A 
HETATM   22  C   UNL     1     -43.589  56.862 -60.314  1.00  0.00     0.005 A 
HETATM   23  C   UNL     1     -44.457  55.819 -60.591  1.00  0.00     0.017 A 
HETATM   24  C   UNL     1     -44.610  54.811 -59.653  1.00  0.00     0.089 A 
HETATM   25  N   UNL     1     -43.932  54.854 -58.492  1.00  0.00    -0.353 N 
HETATM   26  H   UNL     1     -44.067  54.082 -57.850  1.00  0.00     0.166 HD
ENDBRANCH  18  20
ENDBRANCH  17  18
ENDBRANCH   1  17
TORSDOF 6
ENDMDL
MODEL 3
REMARK VINA RESULT:      -6.9      3.630      6.830
REMARK  6 active torsions:
REMARK  status: ('A' for Active; 'I' for Inactive)
REMARK    1  A    between atoms: C_3  and  N_4 
REMARK    2  A    between atoms: N_4  and  C_5 
REMARK    3  A    between atoms: C_5  and  C_6 
REMARK    4  A    between atoms: N_8  and  C_10 
REMARK    5  A    between atoms: C_10  and  C_11 
REMARK    6  A    between atoms: C_12  and  O_13 
ROOT
HETATM    1  C   UNL     1     -43.797  56.106 -54.792  1.00  0.00     0.031 C 
HETATM    2  C   UNL     1     -43.146  54.837 -54.244  1.00  0.00     0.241 C 
HETATM    3  N   UNL     1     -42.397  55.268 -53.011  1.00  0.00    -0.067 N 
HETATM    4  H   UNL     1     -42.719  54.667 -52.227  1.00  0.00     0.280 HD
HETATM    5  C   UNL     1     -42.789  56.683 -52.674  1.00  0.00     0.235 C 
HETATM    6  C   UNL     1     -44.025  56.929 -53.523  1.00  0.00     0.035 C 
ENDROOT
BRANCH   3   7
HETATM    7  C   UNL     1     -40.913  55.004 -53.033  1.00  0.00     0.276 C 
BRANCH   7   8
HETATM    8  C   UNL     1     -40.543  53.631 -52.547  1.00  0.00     0.002 A 
HETATM    9  C   UNL     1     -40.259  52.603 -53.457  1.00  0.00     0.091 A 
HETATM   10  C   UNL     1     -39.861  51.339 -53.013  1.00  0.00     0.044 A 
HETATM   11 BR   UNL     1     -39.472  49.961 -54.249  1.00  0.00    -0.048 Br
HETATM   12  C   UNL     1     -39.749  51.085 -51.649  1.00  0.00     0.022 A 
HETATM   13  C   UNL     1     -40.033  52.098 -50.731  1.00  0.00     0.002 A 
HETATM   14  C   UNL     1     -40.423  53.365 -51.175  1.00  0.00     0.012 A 
BRANCH   9  15
HETATM   15  O   UNL     1     -40.406  52.882 -54.794  1.00  0.00    -0.359 OA
HETATM   16  H   UNL     1     -39.496  52.919 -55.168  1.00  0.00     0.218 HD
ENDBRANCH   9  15
ENDBRANCH   7   8
ENDBRANCH   3   7
BRANCH   1  17
HETATM   17  C   UNL     1     -42.946  56.852 -55.839  1.00  0.00     0.127 C 
BRANCH  17  18
HETATM   18  N   UNL     1     -42.598  55.946 -56.929  1.00  0.00    -0.376 N 
HETATM   19  H   UNL     1     -41.588  55.902 -57.099  1.00  0.00     0.161 HD
BRANCH  18  20
HETATM   20  C   UNL     1     -43.264  55.834 -58.148  1.00  0.00     0.100 A 
HETATM   21  C   UNL     1     -43.084  56.846 -59.106  1.00  0.00     0.048 A 
HETATM   22  C   UNL     1     -43.695  56.758 -60.355  1.00  0.00     0.005 A 
HETATM   23  C   UNL     1     -44.474  55.651 -60.653  1.00  0.00     0.017 A 
HETATM   24  C   UNL     1     -44.611  54.656 -59.698  1.00  0.00     0.089 A 
HETATM   25  N   UNL     1     -44.005  54.771 -58.503  1.00  0.00    -0.353 N 
HETATM   26  H   UNL     1     -44.124  54.006 -57.849  1.00  0.00     0.166 HD
ENDBRANCH  18  20
ENDBRANCH  17  18
ENDBRANCH   1  17
TORSDOF 6
ENDMDL
MODEL 4
REMARK VINA RESULT:      -6.6      2.748      3.852
REMARK  6 active torsions:
REMARK  status: ('A' for Active; 'I' for Inactive)
REMARK    1  A    between atoms: C_3  and  N_4 
REMARK    2  A    between atoms: N_4  and  C_5 
REMARK    3  A    between atoms: C_5  and  C_6 
REMARK    4  A    between atoms: N_8  and  C_10 
REMARK    5  A    between atoms: C_10  and  C_11 
REMARK    6  A    between atoms: C_12  and  O_13 
ROOT
HETATM    1  C   UNL     1     -42.049  55.906 -53.921  1.00  0.00     0.031 C 
HETATM    2  C   UNL     1     -42.403  56.806 -55.104  1.00  0.00     0.241 C 
HETATM    3  N   UNL     1     -43.246  55.957 -56.018  1.00  0.00    -0.067 N 
HETATM    4  H   UNL     1     -44.131  56.473 -56.191  1.00  0.00     0.280 HD
HETATM    5  C   UNL     1     -43.609  54.684 -55.300  1.00  0.00     0.235 C 
HETATM    6  C   UNL     1     -43.257  54.971 -53.850  1.00  0.00     0.035 C 
ENDROOT
BRANCH   3   7
HETATM    7  C   UNL     1     -42.701  55.772 -57.412  1.00  0.00     0.276 C 
BRANCH   7   8
HETATM    8  C   UNL     1     -43.763  55.787 -58.475  1.00  0.00     0.002 A 
HETATM    9  C   UNL     1     -44.537  56.935 -58.696  1.00  0.00     0.091 A 
HETATM   10  C   UNL     1     -45.488  56.976 -59.719  1.00  0.00     0.044 A 
HETATM   11 BR   UNL     1     -46.521  58.532 -60.015  1.00  0.00    -0.048 Br
HETATM   12  C   UNL     1     -45.682  55.862 -60.531  1.00  0.00     0.022 A 
HETATM   13  C   UNL     1     -44.922  54.710 -60.320  1.00  0.00     0.002 A 
HETATM   14  C   UNL     1     -43.964  54.672 -59.302  1.00  0.00     0.012 A 
BRANCH   9  15
HETATM   15  O   UNL     1     -44.336  58.007 -57.859  1.00  0.00    -0.359 OA
HETATM   16  H   UNL     1     -44.332  58.806 -58.433  1.00  0.00     0.218 HD
ENDBRANCH   9  15
ENDBRANCH   7   8
ENDBRANCH   3   7
BRANCH   1  17
HETATM   17  C   UNL     1     -40.717  55.147 -54.081  1.00  0.00     0.127 C 
BRANCH  17  18
HETATM   18  N   UNL     1     -40.514  54.257 -52.943  1.00  0.00    -0.376 N 
HETATM   19  H   UNL     1     -39.921  54.671 -52.218  1.00  0.00     0.161 HD
BRANCH  18  20
HETATM   20  C   UNL     1     -40.257  52.889 -53.006  1.00  0.00     0.100 A 
HETATM   21  C   UNL     1     -40.402  52.235 -54.242  1.00  0.00     0.048 A 
HETATM   22  C   UNL     1     -40.116  50.877 -54.364  1.00  0.00     0.005 A 
HETATM   23  C   UNL     1     -39.671  50.175 -53.256  1.00  0.00     0.017 A 
HETATM   24  C   UNL     1     -39.512  50.852 -52.057  1.00  0.00     0.089 A 
HETATM   25  N   UNL     1     -39.794  52.164 -51.974  1.00  0.00    -0.353 N 
HETATM   26  H   UNL     1     -39.643  52.612 -51.078  1.00  0.00     0.166 HD
ENDBRANCH  18  20
ENDBRANCH  17  18
ENDBRANCH   1  17
TORSDOF 6
ENDMDL
MODEL 5
REMARK VINA RESULT:      -6.5     14.036     16.875
REMARK  6 active torsions:
REMARK  status: ('A' for Active; 'I' for Inactive)
REMARK    1  A    between atoms: C_3  and  N_4 
REMARK    2  A    between atoms: N_4  and  C_5 
REMARK    3  A    between atoms: C_5  and  C_6 
REMARK    4  A    between atoms: N_8  and  C_10 
REMARK    5  A    between atoms: C_10  and  C_11 
REMARK    6  A    between atoms: C_12  and  O_13 
ROOT
HETATM    1  C   UNL     1     -36.084  40.568 -52.130  1.00  0.00     0.031 C 
HETATM    2  C   UNL     1     -35.025  39.554 -52.561  1.00  0.00     0.241 C 
HETATM    3  N   UNL     1     -34.124  39.380 -51.367  1.00  0.00    -0.067 N 
HETATM    4  H   UNL     1     -34.084  38.363 -51.155  1.00  0.00     0.280 HD
HETATM    5  C   UNL     1     -34.757  40.055 -50.179  1.00  0.00     0.235 C 
HETATM    6  C   UNL     1     -36.186  40.313 -50.625  1.00  0.00     0.035 C 
ENDROOT
BRANCH   3   7
HETATM    7  C   UNL     1     -32.674  39.720 -51.599  1.00  0.00     0.276 C 
BRANCH   7   8
HETATM    8  C   UNL     1     -32.048  38.935 -52.717  1.00  0.00     0.002 A 
HETATM    9  C   UNL     1     -31.750  39.550 -53.942  1.00  0.00     0.091 A 
HETATM   10  C   UNL     1     -31.117  38.842 -54.967  1.00  0.00     0.044 A 
HETATM   11 BR   UNL     1     -30.713  39.681 -56.612  1.00  0.00    -0.048 Br
HETATM   12  C   UNL     1     -30.780  37.504 -54.781  1.00  0.00     0.022 A 
HETATM   13  C   UNL     1     -31.074  36.877 -53.568  1.00  0.00     0.002 A 
HETATM   14  C   UNL     1     -31.700  37.588 -52.539  1.00  0.00     0.012 A 
BRANCH   9  15
HETATM   15  O   UNL     1     -32.121  40.864 -54.099  1.00  0.00    -0.359 OA
HETATM   16  H   UNL     1     -31.949  41.302 -53.234  1.00  0.00     0.218 HD
ENDBRANCH   9  15
ENDBRANCH   7   8
ENDBRANCH   3   7
BRANCH   1  17
HETATM   17  C   UNL     1     -35.729  42.031 -52.463  1.00  0.00     0.127 C 
BRANCH  17  18
HETATM   18  N   UNL     1     -35.015  42.090 -53.734  1.00  0.00    -0.376 N 
HETATM   19  H   UNL     1     -34.244  42.764 -53.723  1.00  0.00     0.161 HD
BRANCH  18  20
HETATM   20  C   UNL     1     -35.593  42.089 -55.002  1.00  0.00     0.100 A 
HETATM   21  C   UNL     1     -34.777  41.808 -56.111  1.00  0.00     0.048 A 
HETATM   22  C   UNL     1     -35.317  41.754 -57.394  1.00  0.00     0.005 A 
HETATM   23  C   UNL     1     -36.675  41.965 -57.568  1.00  0.00     0.017 A 
HETATM   24  C   UNL     1     -37.460  42.213 -56.453  1.00  0.00     0.089 A 
HETATM   25  N   UNL     1     -36.907  42.255 -55.228  1.00  0.00    -0.353 N 
HETATM   26  H   UNL     1     -37.529  42.421 -54.446  1.00  0.00     0.166 HD
ENDBRANCH  18  20
ENDBRANCH  17  18
ENDBRANCH   1  17
TORSDOF 6
ENDMDL
MODEL 6
REMARK VINA RESULT:      -6.5      3.465      6.488
REMARK  6 active torsions:
REMARK  status: ('A' for Active; 'I' for Inactive)
REMARK    1  A    between atoms: C_3  and  N_4 
REMARK    2  A    between atoms: N_4  and  C_5 
REMARK    3  A    between atoms: C_5  and  C_6 
REMARK    4  A    between atoms: N_8  and  C_10 
REMARK    5  A    between atoms: C_10  and  C_11 
REMARK    6  A    between atoms: C_12  and  O_13 
ROOT
HETATM    1  C   UNL     1     -44.619  57.123 -54.378  1.00  0.00     0.031 C 
HETATM    2  C   UNL     1     -43.744  55.931 -53.994  1.00  0.00     0.241 C 
HETATM    3  N   UNL     1     -42.785  56.452 -52.958  1.00  0.00    -0.067 N 
HETATM    4  H   UNL     1     -42.866  55.838 -52.124  1.00  0.00     0.280 HD
HETATM    5  C   UNL     1     -43.225  57.830 -52.537  1.00  0.00     0.235 C 
HETATM    6  C   UNL     1     -44.637  57.944 -53.088  1.00  0.00     0.035 C 
ENDROOT
BRANCH   3   7
HETATM    7  C   UNL     1     -41.325  56.327 -53.310  1.00  0.00     0.276 C 
BRANCH   7   8
HETATM    8  C   UNL     1     -40.848  54.905 -53.387  1.00  0.00     0.002 A 
HETATM    9  C   UNL     1     -40.720  54.130 -52.225  1.00  0.00     0.091 A 
HETATM   10  C   UNL     1     -40.330  52.790 -52.293  1.00  0.00     0.044 A 
HETATM   11 BR   UNL     1     -40.169  51.751 -50.721  1.00  0.00    -0.048 Br
HETATM   12  C   UNL     1     -40.054  52.209 -53.528  1.00  0.00     0.022 A 
HETATM   13  C   UNL     1     -40.173  52.969 -54.693  1.00  0.00     0.002 A 
HETATM   14  C   UNL     1     -40.571  54.308 -54.626  1.00  0.00     0.012 A 
BRANCH   9  15
HETATM   15  O   UNL     1     -40.975  54.744 -51.022  1.00  0.00    -0.359 OA
HETATM   16  H   UNL     1     -40.620  54.144 -50.328  1.00  0.00     0.218 HD
ENDBRANCH   9  15
ENDBRANCH   7   8
ENDBRANCH   3   7
BRANCH   1  17
HETATM   17  C   UNL     1     -44.097  57.926 -55.587  1.00  0.00     0.127 C 
BRANCH  17  18
HETATM   18  N   UNL     1     -42.932  57.258 -56.158  1.00  0.00    -0.376 N 
HETATM   19  H   UNL     1     -42.059  57.511 -55.685  1.00  0.00     0.161 HD
BRANCH  18  20
HETATM   20  C   UNL     1     -42.671  57.080 -57.515  1.00  0.00     0.100 A 
HETATM   21  C   UNL     1     -43.223  55.962 -58.163  1.00  0.00     0.048 A 
HETATM   22  C   UNL     1     -43.025  55.763 -59.528  1.00  0.00     0.005 A 
HETATM   23  C   UNL     1     -42.289  56.689 -60.249  1.00  0.00     0.017 A 
HETATM   24  C   UNL     1     -41.780  57.796 -59.589  1.00  0.00     0.089 A 
HETATM   25  N   UNL     1     -41.992  57.959 -58.271  1.00  0.00    -0.353 N 
HETATM   26  H   UNL     1     -41.613  58.795 -57.842  1.00  0.00     0.166 HD
ENDBRANCH  18  20
ENDBRANCH  17  18
ENDBRANCH   1  17
TORSDOF 6
ENDMDL
MODEL 7
REMARK VINA RESULT:      -6.5      3.189      6.541
REMARK  6 active torsions:
REMARK  status: ('A' for Active; 'I' for Inactive)
REMARK    1  A    between atoms: C_3  and  N_4 
REMARK    2  A    between atoms: N_4  and  C_5 
REMARK    3  A    between atoms: C_5  and  C_6 
REMARK    4  A    between atoms: N_8  and  C_10 
REMARK    5  A    between atoms: C_10  and  C_11 
REMARK    6  A    between atoms: C_12  and  O_13 
ROOT
HETATM    1  C   UNL     1     -42.193  57.302 -55.314  1.00  0.00     0.031 C 
HETATM    2  C   UNL     1     -41.369  56.114 -54.820  1.00  0.00     0.241 C 
HETATM    3  N   UNL     1     -41.911  54.915 -55.550  1.00  0.00    -0.067 N 
HETATM    4  H   UNL     1     -41.110  54.449 -56.020  1.00  0.00     0.280 HD
HETATM    5  C   UNL     1     -42.845  55.388 -56.633  1.00  0.00     0.235 C 
HETATM    6  C   UNL     1     -42.558  56.876 -56.736  1.00  0.00     0.035 C 
ENDROOT
BRANCH   3   7
HETATM    7  C   UNL     1     -42.455  53.817 -54.672  1.00  0.00     0.276 C 
BRANCH   7   8
HETATM    8  C   UNL     1     -41.419  53.201 -53.775  1.00  0.00     0.002 A 
HETATM    9  C   UNL     1     -41.354  53.544 -52.417  1.00  0.00     0.091 A 
HETATM   10  C   UNL     1     -40.430  52.935 -51.564  1.00  0.00     0.044 A 
HETATM   11 BR   UNL     1     -40.356  53.398 -49.732  1.00  0.00    -0.048 Br
HETATM   12  C   UNL     1     -39.550  51.978 -52.063  1.00  0.00     0.022 A 
HETATM   13  C   UNL     1     -39.599  51.630 -53.414  1.00  0.00     0.002 A 
HETATM   14  C   UNL     1     -40.530  52.233 -54.266  1.00  0.00     0.012 A 
BRANCH   9  15
HETATM   15  O   UNL     1     -42.220  54.511 -51.966  1.00  0.00    -0.359 OA
HETATM   16  H   UNL     1     -42.989  54.032 -51.582  1.00  0.00     0.218 HD
ENDBRANCH   9  15
ENDBRANCH   7   8
ENDBRANCH   3   7
BRANCH   1  17
HETATM   17  C   UNL     1     -43.431  57.614 -54.450  1.00  0.00     0.127 C 
BRANCH  17  18
HETATM   18  N   UNL     1     -43.169  57.251 -53.060  1.00  0.00    -0.376 N 
HETATM   19  H   UNL     1     -43.993  56.863 -52.591  1.00  0.00     0.161 HD
BRANCH  18  20
HETATM   20  C   UNL     1     -42.440  58.001 -52.140  1.00  0.00     0.100 A 
HETATM   21  C   UNL     1     -42.873  59.305 -51.842  1.00  0.00     0.048 A 
HETATM   22  C   UNL     1     -42.201  60.078 -50.898  1.00  0.00     0.005 A 
HETATM   23  C   UNL     1     -41.105  59.544 -50.239  1.00  0.00     0.017 A 
HETATM   24  C   UNL     1     -40.718  58.246 -50.534  1.00  0.00     0.089 A 
HETATM   25  N   UNL     1     -41.391  57.526 -51.449  1.00  0.00    -0.353 N 
HETATM   26  H   UNL     1     -41.076  56.577 -51.611  1.00  0.00     0.166 HD
ENDBRANCH  18  20
ENDBRANCH  17  18
ENDBRANCH   1  17
TORSDOF 6
ENDMDL
MODEL 8
REMARK VINA RESULT:      -6.4      3.628      6.841
REMARK  6 active torsions:
REMARK  status: ('A' for Active; 'I' for Inactive)
REMARK    1  A    between atoms: C_3  and  N_4 
REMARK    2  A    between atoms: N_4  and  C_5 
REMARK    3  A    between atoms: C_5  and  C_6 
REMARK    4  A    between atoms: N_8  and  C_10 
REMARK    5  A    between atoms: C_10  and  C_11 
REMARK    6  A    between atoms: C_12  and  O_13 
ROOT
HETATM    1  C   UNL     1     -43.283  57.242 -55.122  1.00  0.00     0.031 C 
HETATM    2  C   UNL     1     -41.977  56.469 -55.306  1.00  0.00     0.241 C 
HETATM    3  N   UNL     1     -42.015  55.364 -54.285  1.00  0.00    -0.067 N 
HETATM    4  H   UNL     1     -41.864  54.469 -54.791  1.00  0.00     0.280 HD
HETATM    5  C   UNL     1     -43.395  55.306 -53.684  1.00  0.00     0.235 C 
HETATM    6  C   UNL     1     -44.236  56.157 -54.621  1.00  0.00     0.035 C 
ENDROOT
BRANCH   3   7
HETATM    7  C   UNL     1     -40.884  55.368 -53.289  1.00  0.00     0.276 C 
BRANCH   7   8
HETATM    8  C   UNL     1     -40.565  54.005 -52.742  1.00  0.00     0.002 A 
HETATM    9  C   UNL     1     -40.300  52.932 -53.606  1.00  0.00     0.091 A 
HETATM   10  C   UNL     1     -39.948  51.676 -53.107  1.00  0.00     0.044 A 
HETATM   11 BR   UNL     1     -39.586  50.238 -54.281  1.00  0.00    -0.048 Br
HETATM   12  C   UNL     1     -39.864  51.474 -51.732  1.00  0.00     0.022 A 
HETATM   13  C   UNL     1     -40.129  52.531 -50.859  1.00  0.00     0.002 A 
HETATM   14  C   UNL     1     -40.473  53.791 -51.360  1.00  0.00     0.012 A 
BRANCH   9  15
HETATM   15  O   UNL     1     -40.419  53.162 -54.956  1.00  0.00    -0.359 OA
HETATM   16  H   UNL     1     -40.313  54.133 -55.079  1.00  0.00     0.218 HD
ENDBRANCH   9  15
ENDBRANCH   7   8
ENDBRANCH   3   7
BRANCH   1  17
HETATM   17  C   UNL     1     -43.177  58.436 -54.152  1.00  0.00     0.127 C 
BRANCH  17  18
HETATM   18  N   UNL     1     -41.774  58.726 -53.874  1.00  0.00    -0.376 N 
HETATM   19  H   UNL     1     -41.135  58.100 -54.373  1.00  0.00     0.161 HD
BRANCH  18  20
HETATM   20  C   UNL     1     -41.229  59.024 -52.627  1.00  0.00     0.100 A 
HETATM   21  C   UNL     1     -39.838  58.910 -52.458  1.00  0.00     0.048 A 
HETATM   22  C   UNL     1     -39.242  59.236 -51.242  1.00  0.00     0.005 A 
HETATM   23  C   UNL     1     -40.032  59.692 -50.200  1.00  0.00     0.017 A 
HETATM   24  C   UNL     1     -41.397  59.821 -50.404  1.00  0.00     0.089 A 
HETATM   25  N   UNL     1     -41.940  59.499 -51.591  1.00  0.00    -0.353 N 
HETATM   26  H   UNL     1     -42.940  59.629 -51.692  1.00  0.00     0.166 HD
ENDBRANCH  18  20
ENDBRANCH  17  18
ENDBRANCH   1  17
TORSDOF 6
ENDMDL
MODEL 9
REMARK VINA RESULT:      -6.4     14.237     16.139
REMARK  6 active torsions:
REMARK  status: ('A' for Active; 'I' for Inactive)
REMARK    1  A    between atoms: C_3  and  N_4 
REMARK    2  A    between atoms: N_4  and  C_5 
REMARK    3  A    between atoms: C_5  and  C_6 
REMARK    4  A    between atoms: N_8  and  C_10 
REMARK    5  A    between atoms: C_10  and  C_11 
REMARK    6  A    between atoms: C_12  and  O_13 
ROOT
HETATM    1  C   UNL     1     -35.443  41.881 -57.041  1.00  0.00     0.031 C 
HETATM    2  C   UNL     1     -34.971  42.640 -55.802  1.00  0.00     0.241 C 
HETATM    3  N   UNL     1     -35.053  41.653 -54.669  1.00  0.00    -0.067 N 
HETATM    4  H   UNL     1     -34.119  41.625 -54.214  1.00  0.00     0.280 HD
HETATM    5  C   UNL     1     -35.311  40.282 -55.237  1.00  0.00     0.235 C 
HETATM    6  C   UNL     1     -35.029  40.445 -56.721  1.00  0.00     0.035 C 
ENDROOT
BRANCH   3   7
HETATM    7  C   UNL     1     -35.955  42.053 -53.529  1.00  0.00     0.276 C 
BRANCH   7   8
HETATM    8  C   UNL     1     -35.819  41.170 -52.321  1.00  0.00     0.002 A 
HETATM    9  C   UNL     1     -34.568  40.967 -51.721  1.00  0.00     0.091 A 
HETATM   10  C   UNL     1     -34.441  40.192 -50.565  1.00  0.00     0.044 A 
HETATM   11 BR   UNL     1     -32.749  39.931 -49.760  1.00  0.00    -0.048 Br
HETATM   12  C   UNL     1     -35.567  39.602 -49.998  1.00  0.00     0.022 A 
HETATM   13  C   UNL     1     -36.819  39.792 -50.586  1.00  0.00     0.002 A 
HETATM   14  C   UNL     1     -36.947  40.575 -51.738  1.00  0.00     0.012 A 
BRANCH   9  15
HETATM   15  O   UNL     1     -33.475  41.543 -52.324  1.00  0.00    -0.359 OA
HETATM   16  H   UNL     1     -33.810  41.974 -53.143  1.00  0.00     0.218 HD
ENDBRANCH   9  15
ENDBRANCH   7   8
ENDBRANCH   3   7
BRANCH   1  17
HETATM   17  C   UNL     1     -36.952  42.016 -57.327  1.00  0.00     0.127 C 
BRANCH  17  18
HETATM   18  N   UNL     1     -37.194  41.927 -58.763  1.00  0.00    -0.376 N 
HETATM   19  H   UNL     1     -37.737  42.718 -59.122  1.00  0.00     0.161 HD
BRANCH  18  20
HETATM   20  C   UNL     1     -37.554  40.779 -59.466  1.00  0.00     0.100 A 
HETATM   21  C   UNL     1     -38.380  39.835 -58.832  1.00  0.00     0.048 A 
HETATM   22  C   UNL     1     -38.801  38.692 -59.508  1.00  0.00     0.005 A 
HETATM   23  C   UNL     1     -38.410  38.499 -60.823  1.00  0.00     0.017 A 
HETATM   24  C   UNL     1     -37.619  39.460 -61.431  1.00  0.00     0.089 A 
HETATM   25  N   UNL     1     -37.232  40.554 -60.751  1.00  0.00    -0.353 N 
HETATM   26  H   UNL     1     -36.670  41.233 -61.250  1.00  0.00     0.166 HD
ENDBRANCH  18  20
ENDBRANCH  17  18
ENDBRANCH   1  17
TORSDOF 6
ENDMDL
MODEL 10
REMARK VINA RESULT:      -6.4      2.955      4.375
REMARK  6 active torsions:
REMARK  status: ('A' for Active; 'I' for Inactive)
REMARK    1  A    between atoms: C_3  and  N_4 
REMARK    2  A    between atoms: N_4  and  C_5 
REMARK    3  A    between atoms: C_5  and  C_6 
REMARK    4  A    between atoms: N_8  and  C_10 
REMARK    5  A    between atoms: C_10  and  C_11 
REMARK    6  A    between atoms: C_12  and  O_13 
ROOT
HETATM    1  C   UNL     1     -42.523  55.055 -54.999  1.00  0.00     0.031 C 
HETATM    2  C   UNL     1     -43.543  54.742 -53.905  1.00  0.00     0.241 C 
HETATM    3  N   UNL     1     -43.915  56.072 -53.308  1.00  0.00    -0.067 N 
HETATM    4  H   UNL     1     -44.950  56.153 -53.352  1.00  0.00     0.280 HD
HETATM    5  C   UNL     1     -43.348  57.168 -54.172  1.00  0.00     0.235 C 
HETATM    6  C   UNL     1     -42.948  56.452 -55.451  1.00  0.00     0.035 C 
ENDROOT
BRANCH   3   7
HETATM    7  C   UNL     1     -43.642  56.216 -51.832  1.00  0.00     0.276 C 
BRANCH   7   8
HETATM    8  C   UNL     1     -43.134  57.576 -51.448  1.00  0.00     0.002 A 
HETATM    9  C   UNL     1     -41.764  57.798 -51.251  1.00  0.00     0.091 A 
HETATM   10  C   UNL     1     -41.277  59.073 -50.947  1.00  0.00     0.044 A 
HETATM   11 BR   UNL     1     -39.426  59.363 -50.691  1.00  0.00    -0.048 Br
HETATM   12  C   UNL     1     -42.160  60.143 -50.829  1.00  0.00     0.022 A 
HETATM   13  C   UNL     1     -43.528  59.936 -51.018  1.00  0.00     0.002 A 
HETATM   14  C   UNL     1     -44.014  58.663 -51.330  1.00  0.00     0.012 A 
BRANCH   9  15
HETATM   15  O   UNL     1     -40.925  56.714 -51.350  1.00  0.00    -0.359 OA
HETATM   16  H   UNL     1     -40.643  56.502 -50.431  1.00  0.00     0.218 HD
ENDBRANCH   9  15
ENDBRANCH   7   8
ENDBRANCH   3   7
BRANCH   1  17
HETATM   17  C   UNL     1     -41.056  55.003 -54.527  1.00  0.00     0.127 C 
BRANCH  17  18
HETATM   18  N   UNL     1     -40.961  54.234 -53.290  1.00  0.00    -0.376 N 
HETATM   19  H   UNL     1     -40.576  54.780 -52.513  1.00  0.00     0.161 HD
BRANCH  18  20
HETATM   20  C   UNL     1     -40.521  52.917 -53.174  1.00  0.00     0.100 A 
HETATM   21  C   UNL     1     -40.589  52.084 -54.304  1.00  0.00     0.048 A 
HETATM   22  C   UNL     1     -40.123  50.773 -54.248  1.00  0.00     0.005 A 
HETATM   23  C   UNL     1     -39.574  50.297 -53.069  1.00  0.00     0.017 A 
HETATM   24  C   UNL     1     -39.495  51.149 -51.979  1.00  0.00     0.089 A 
HETATM   25  N   UNL     1     -39.952  52.411 -52.067  1.00  0.00    -0.353 N 
HETATM   26  H   UNL     1     -39.852  52.996 -51.246  1.00  0.00     0.166 HD
ENDBRANCH  18  20
ENDBRANCH  17  18
ENDBRANCH   1  17
TORSDOF 6
ENDMDL
