MODEL 1
REMARK VINA RESULT:      -8.8      0.000      0.000
REMARK  4 active torsions:
REMARK  status: ('A' for Active; 'I' for Inactive)
REMARK    1  A    between atoms: C_6  and  N_7 
REMARK       I    between atoms: N_7  and  C_8 
REMARK    2  A    between atoms: C_8  and  C_9 
REMARK    3  A    between atoms: C_10  and  C_11 
REMARK    4  A    between atoms: C_14  and  O_15 
ROOT
HETATM    1  C   UNL     1     -42.247  57.063 -52.763  1.00  0.00     0.125 C 
HETATM    2  C   UNL     1     -43.476  57.436 -53.638  1.00  0.00     0.160 C 
HETATM    3  N   UNL     1     -44.153  58.640 -53.174  1.00  0.00    -0.231 N 
HETATM    4  C   UNL     1     -43.762  59.392 -52.102  1.00  0.00     0.200 A 
HETATM    5  N   UNL     1     -42.686  59.042 -51.369  1.00  0.00    -0.256 NA
HETATM    6  C   UNL     1     -42.374  57.609 -51.320  1.00  0.00     0.074 C 
HETATM    7  C   UNL     1     -41.070  57.440 -50.535  1.00  0.00     0.027 C 
HETATM    8  N   UNL     1     -45.314  59.090 -53.688  1.00  0.00    -0.162 NA
HETATM    9  C   UNL     1     -45.520  60.170 -52.926  1.00  0.00     0.258 A 
HETATM   10  N   UNL     1     -44.593  60.388 -51.943  1.00  0.00    -0.210 NA
HETATM   11  H   UNL     1     -42.639  59.518 -50.468  1.00  0.00     0.131 HD
ENDROOT
BRANCH   1  12
HETATM   12  C   UNL     1     -42.135  55.545 -52.729  1.00  0.00     0.230 C 
HETATM   13  N   UNL     1     -40.889  55.068 -53.099  1.00  0.00    -0.326 N 
HETATM   14  H   UNL     1     -40.332  55.669 -53.698  1.00  0.00     0.169 HD
HETATM   15  O   UNL     1     -43.108  54.849 -52.453  1.00  0.00    -0.273 OA
BRANCH  13  16
HETATM   16  C   UNL     1     -40.500  53.708 -53.084  1.00  0.00     0.040 A 
HETATM   17  C   UNL     1     -40.063  53.008 -51.946  1.00  0.00    -0.035 A 
HETATM   18  C   UNL     1     -39.761  51.636 -52.066  1.00  0.00     0.015 A 
HETATM   19  C   UNL     1     -39.838  53.635 -50.597  1.00  0.00     0.050 C 
HETATM   20  C   UNL     1     -39.818  50.975 -53.297  1.00  0.00    -0.061 A 
HETATM   21  C   UNL     1     -39.519  49.509 -53.393  1.00  0.00     0.048 C 
HETATM   22  C   UNL     1     -40.196  51.696 -54.429  1.00  0.00     0.009 A 
HETATM   23  C   UNL     1     -40.516  53.052 -54.326  1.00  0.00     0.030 A 
ENDBRANCH  13  16
ENDBRANCH   1  12
BRANCH   2  24
HETATM   24  C   UNL     1     -43.073  57.602 -55.103  1.00  0.00    -0.032 A 
HETATM   25  C   UNL     1     -43.298  56.568 -56.021  1.00  0.00     0.012 A 
HETATM   26  C   UNL     1     -42.903  56.709 -57.354  1.00  0.00     0.037 A 
HETATM   27  C   UNL     1     -42.286  57.880 -57.799  1.00  0.00     0.068 A 
HETATM   28  C   UNL     1     -42.070  58.920 -56.897  1.00  0.00     0.037 A 
HETATM   29  C   UNL     1     -42.464  58.784 -55.562  1.00  0.00     0.012 A 
BRANCH  27  30
HETATM   30  O   UNL     1     -41.948  57.885 -59.125  1.00  0.00    -0.356 OA
HETATM   31  C   UNL     1     -42.312  56.738 -59.884  1.00  0.00     0.210 C 
ENDBRANCH  27  30
ENDBRANCH   2  24
TORSDOF 4
ENDMDL
MODEL 2
REMARK VINA RESULT:      -8.0      2.690      6.809
REMARK  4 active torsions:
REMARK  status: ('A' for Active; 'I' for Inactive)
REMARK    1  A    between atoms: C_6  and  N_7 
REMARK       I    between atoms: N_7  and  C_8 
REMARK    2  A    between atoms: C_8  and  C_9 
REMARK    3  A    between atoms: C_10  and  C_11 
REMARK    4  A    between atoms: C_14  and  O_15 
ROOT
HETATM    1  C   UNL     1     -41.560  55.191 -53.226  1.00  0.00     0.125 C 
HETATM    2  C   UNL     1     -42.169  55.437 -51.817  1.00  0.00     0.160 C 
HETATM    3  N   UNL     1     -41.567  54.597 -50.789  1.00  0.00    -0.231 N 
HETATM    4  C   UNL     1     -40.563  53.697 -51.005  1.00  0.00     0.200 A 
HETATM    5  N   UNL     1     -40.053  53.514 -52.239  1.00  0.00    -0.256 NA
HETATM    6  C   UNL     1     -40.965  53.768 -53.361  1.00  0.00     0.074 C 
HETATM    7  C   UNL     1     -40.168  53.610 -54.659  1.00  0.00     0.027 C 
HETATM    8  N   UNL     1     -42.014  54.535 -49.520  1.00  0.00    -0.162 NA
HETATM    9  C   UNL     1     -41.172  53.632 -49.005  1.00  0.00     0.258 A 
HETATM   10  N   UNL     1     -40.269  53.095 -49.883  1.00  0.00    -0.210 NA
HETATM   11  H   UNL     1     -39.501  52.661 -52.326  1.00  0.00     0.131 HD
ENDROOT
BRANCH   1  12
HETATM   12  C   UNL     1     -42.662  55.388 -54.257  1.00  0.00     0.230 C 
HETATM   13  N   UNL     1     -42.373  56.354 -55.206  1.00  0.00    -0.326 N 
HETATM   14  H   UNL     1     -41.709  57.072 -54.936  1.00  0.00     0.169 HD
HETATM   15  O   UNL     1     -43.717  54.766 -54.175  1.00  0.00    -0.273 OA
BRANCH  13  16
HETATM   16  C   UNL     1     -43.193  56.679 -56.312  1.00  0.00     0.040 A 
HETATM   17  C   UNL     1     -44.202  57.659 -56.306  1.00  0.00    -0.035 A 
HETATM   18  C   UNL     1     -44.904  57.920 -57.500  1.00  0.00     0.015 A 
HETATM   19  C   UNL     1     -44.633  58.427 -55.086  1.00  0.00     0.050 C 
HETATM   20  C   UNL     1     -44.672  57.182 -58.666  1.00  0.00    -0.061 A 
HETATM   21  C   UNL     1     -45.413  57.497 -59.931  1.00  0.00     0.048 C 
HETATM   22  C   UNL     1     -43.710  56.173 -58.641  1.00  0.00     0.009 A 
HETATM   23  C   UNL     1     -42.991  55.913 -57.472  1.00  0.00     0.030 A 
ENDBRANCH  13  16
ENDBRANCH   1  12
BRANCH   2  24
HETATM   24  C   UNL     1     -42.047  56.908 -51.419  1.00  0.00    -0.032 A 
HETATM   25  C   UNL     1     -43.143  57.770 -51.552  1.00  0.00     0.012 A 
HETATM   26  C   UNL     1     -43.023  59.121 -51.214  1.00  0.00     0.037 A 
HETATM   27  C   UNL     1     -41.817  59.636 -50.733  1.00  0.00     0.068 A 
HETATM   28  C   UNL     1     -40.725  58.784 -50.585  1.00  0.00     0.037 A 
HETATM   29  C   UNL     1     -40.840  57.430 -50.920  1.00  0.00     0.012 A 
BRANCH  27  30
HETATM   30  O   UNL     1     -41.836  60.973 -50.445  1.00  0.00    -0.356 OA
HETATM   31  C   UNL     1     -43.098  61.626 -50.508  1.00  0.00     0.210 C 
ENDBRANCH  27  30
ENDBRANCH   2  24
TORSDOF 4
ENDMDL
MODEL 3
REMARK VINA RESULT:      -8.0      2.497      4.817
REMARK  4 active torsions:
REMARK  status: ('A' for Active; 'I' for Inactive)
REMARK    1  A    between atoms: C_6  and  N_7 
REMARK       I    between atoms: N_7  and  C_8 
REMARK    2  A    between atoms: C_8  and  C_9 
REMARK    3  A    between atoms: C_10  and  C_11 
REMARK    4  A    between atoms: C_14  and  O_15 
ROOT
HETATM    1  C   UNL     1     -43.385  56.780 -56.017  1.00  0.00     0.125 C 
HETATM    2  C   UNL     1     -42.791  58.069 -55.386  1.00  0.00     0.160 C 
HETATM    3  N   UNL     1     -42.339  59.029 -56.385  1.00  0.00    -0.231 N 
HETATM    4  C   UNL     1     -42.432  58.852 -57.736  1.00  0.00     0.200 A 
HETATM    5  N   UNL     1     -42.960  57.724 -58.250  1.00  0.00    -0.256 NA
HETATM    6  C   UNL     1     -42.818  56.513 -57.433  1.00  0.00     0.074 C 
HETATM    7  C   UNL     1     -43.571  55.380 -58.139  1.00  0.00     0.027 C 
HETATM    8  N   UNL     1     -41.673  60.161 -56.085  1.00  0.00    -0.162 NA
HETATM    9  C   UNL     1     -41.469  60.660 -57.310  1.00  0.00     0.258 A 
HETATM   10  N   UNL     1     -41.919  59.887 -58.347  1.00  0.00    -0.210 NA
HETATM   11  H   UNL     1     -42.752  57.595 -59.240  1.00  0.00     0.131 HD
ENDROOT
BRANCH   1  12
HETATM   12  C   UNL     1     -43.053  55.609 -55.102  1.00  0.00     0.230 C 
HETATM   13  N   UNL     1     -41.695  55.395 -54.939  1.00  0.00    -0.326 N 
HETATM   14  H   UNL     1     -41.090  55.728 -55.682  1.00  0.00     0.169 HD
HETATM   15  O   UNL     1     -43.944  54.911 -54.628  1.00  0.00    -0.273 OA
BRANCH  13  16
HETATM   16  C   UNL     1     -41.121  54.421 -54.088  1.00  0.00     0.040 A 
HETATM   17  C   UNL     1     -41.003  54.541 -52.692  1.00  0.00    -0.035 A 
HETATM   18  C   UNL     1     -40.461  53.464 -51.961  1.00  0.00     0.015 A 
HETATM   19  C   UNL     1     -41.371  55.773 -51.911  1.00  0.00     0.050 C 
HETATM   20  C   UNL     1     -39.973  52.316 -52.594  1.00  0.00    -0.061 A 
HETATM   21  C   UNL     1     -39.426  51.174 -51.792  1.00  0.00     0.048 C 
HETATM   22  C   UNL     1     -40.041  52.237 -53.985  1.00  0.00     0.009 A 
HETATM   23  C   UNL     1     -40.593  53.286 -54.724  1.00  0.00     0.030 A 
ENDBRANCH  13  16
ENDBRANCH   1  12
BRANCH   2  24
HETATM   24  C   UNL     1     -43.801  58.734 -54.450  1.00  0.00    -0.032 A 
HETATM   25  C   UNL     1     -44.718  59.668 -54.947  1.00  0.00     0.012 A 
HETATM   26  C   UNL     1     -45.622  60.296 -54.086  1.00  0.00     0.037 A 
HETATM   27  C   UNL     1     -45.634  60.003 -52.720  1.00  0.00     0.068 A 
HETATM   28  C   UNL     1     -44.734  59.065 -52.218  1.00  0.00     0.037 A 
HETATM   29  C   UNL     1     -43.828  58.433 -53.076  1.00  0.00     0.012 A 
BRANCH  27  30
HETATM   30  O   UNL     1     -46.565  60.691 -51.992  1.00  0.00    -0.356 OA
HETATM   31  C   UNL     1     -47.323  61.676 -52.684  1.00  0.00     0.210 C 
ENDBRANCH  27  30
ENDBRANCH   2  24
TORSDOF 4
ENDMDL
MODEL 4
REMARK VINA RESULT:      -7.9      2.109      6.241
REMARK  4 active torsions:
REMARK  status: ('A' for Active; 'I' for Inactive)
REMARK    1  A    between atoms: C_6  and  N_7 
REMARK       I    between atoms: N_7  and  C_8 
REMARK    2  A    between atoms: C_8  and  C_9 
REMARK    3  A    between atoms: C_10  and  C_11 
REMARK    4  A    between atoms: C_14  and  O_15 
ROOT
HETATM    1  C   UNL     1     -43.452  57.593 -52.444  1.00  0.00     0.125 C 
HETATM    2  C   UNL     1     -41.910  57.416 -52.375  1.00  0.00     0.160 C 
HETATM    3  N   UNL     1     -41.269  58.393 -51.505  1.00  0.00    -0.231 N 
HETATM    4  C   UNL     1     -41.926  59.358 -50.797  1.00  0.00     0.200 A 
HETATM    5  N   UNL     1     -43.266  59.479 -50.875  1.00  0.00    -0.256 NA
HETATM    6  C   UNL     1     -43.883  59.047 -52.135  1.00  0.00     0.074 C 
HETATM    7  C   UNL     1     -45.403  59.164 -51.977  1.00  0.00     0.027 C 
HETATM    8  N   UNL     1     -39.933  58.524 -51.385  1.00  0.00    -0.162 NA
HETATM    9  C   UNL     1     -39.862  59.541 -50.518  1.00  0.00     0.258 A 
HETATM   10  N   UNL     1     -41.060  60.080 -50.135  1.00  0.00    -0.210 NA
HETATM   11  H   UNL     1     -43.614  60.368 -50.515  1.00  0.00     0.131 HD
ENDROOT
BRANCH   1  12
HETATM   12  C   UNL     1     -43.910  57.209 -53.844  1.00  0.00     0.230 C 
HETATM   13  N   UNL     1     -43.031  57.590 -54.844  1.00  0.00    -0.326 N 
HETATM   14  H   UNL     1     -42.421  58.374 -54.638  1.00  0.00     0.169 HD
HETATM   15  O   UNL     1     -44.997  56.667 -54.023  1.00  0.00    -0.273 OA
BRANCH  13  16
HETATM   16  C   UNL     1     -43.183  57.293 -56.219  1.00  0.00     0.040 A 
HETATM   17  C   UNL     1     -42.933  56.039 -56.804  1.00  0.00    -0.035 A 
HETATM   18  C   UNL     1     -43.183  55.869 -58.181  1.00  0.00     0.015 A 
HETATM   19  C   UNL     1     -42.358  54.859 -56.070  1.00  0.00     0.050 C 
HETATM   20  C   UNL     1     -43.604  56.931 -58.988  1.00  0.00    -0.061 A 
HETATM   21  C   UNL     1     -43.890  56.718 -60.445  1.00  0.00     0.048 C 
HETATM   22  C   UNL     1     -43.791  58.184 -58.406  1.00  0.00     0.009 A 
HETATM   23  C   UNL     1     -43.566  58.367 -57.039  1.00  0.00     0.030 A 
ENDBRANCH  13  16
ENDBRANCH   1  12
BRANCH   2  24
HETATM   24  C   UNL     1     -41.542  56.002 -51.924  1.00  0.00    -0.032 A 
HETATM   25  C   UNL     1     -41.759  55.602 -50.600  1.00  0.00     0.012 A 
HETATM   26  C   UNL     1     -41.397  54.319 -50.181  1.00  0.00     0.037 A 
HETATM   27  C   UNL     1     -40.819  53.410 -51.071  1.00  0.00     0.068 A 
HETATM   28  C   UNL     1     -40.611  53.794 -52.394  1.00  0.00     0.037 A 
HETATM   29  C   UNL     1     -40.973  55.077 -52.818  1.00  0.00     0.012 A 
BRANCH  27  30
HETATM   30  O   UNL     1     -40.509  52.193 -50.530  1.00  0.00    -0.356 OA
HETATM   31  C   UNL     1     -39.727  51.315 -51.330  1.00  0.00     0.210 C 
ENDBRANCH  27  30
ENDBRANCH   2  24
TORSDOF 4
ENDMDL
MODEL 5
REMARK VINA RESULT:      -7.6      2.172      2.694
REMARK  4 active torsions:
REMARK  status: ('A' for Active; 'I' for Inactive)
REMARK    1  A    between atoms: C_6  and  N_7 
REMARK       I    between atoms: N_7  and  C_8 
REMARK    2  A    between atoms: C_8  and  C_9 
REMARK    3  A    between atoms: C_10  and  C_11 
REMARK    4  A    between atoms: C_14  and  O_15 
ROOT
HETATM    1  C   UNL     1     -42.106  58.380 -52.692  1.00  0.00     0.125 C 
HETATM    2  C   UNL     1     -43.640  58.144 -52.771  1.00  0.00     0.160 C 
HETATM    3  N   UNL     1     -44.370  58.823 -51.708  1.00  0.00    -0.231 N 
HETATM    4  C   UNL     1     -43.799  59.604 -50.744  1.00  0.00     0.200 A 
HETATM    5  N   UNL     1     -42.465  59.793 -50.710  1.00  0.00    -0.256 NA
HETATM    6  C   UNL     1     -41.643  58.704 -51.252  1.00  0.00     0.074 C 
HETATM    7  C   UNL     1     -40.180  59.160 -51.218  1.00  0.00     0.027 C 
HETATM    8  N   UNL     1     -45.690  58.665 -51.490  1.00  0.00    -0.162 NA
HETATM    9  C   UNL     1     -45.860  59.452 -50.421  1.00  0.00     0.258 A 
HETATM   10  N   UNL     1     -44.725  60.044 -49.935  1.00  0.00    -0.210 NA
HETATM   11  H   UNL     1     -42.133  60.175 -49.824  1.00  0.00     0.131 HD
ENDROOT
BRANCH   1  12
HETATM   12  C   UNL     1     -41.409  57.120 -53.185  1.00  0.00     0.230 C 
HETATM   13  N   UNL     1     -41.896  55.954 -52.619  1.00  0.00    -0.326 N 
HETATM   14  H   UNL     1     -42.345  56.041 -51.714  1.00  0.00     0.169 HD
HETATM   15  O   UNL     1     -40.463  57.190 -53.964  1.00  0.00    -0.273 OA
BRANCH  13  16
HETATM   16  C   UNL     1     -41.473  54.646 -52.956  1.00  0.00     0.040 A 
HETATM   17  C   UNL     1     -41.882  53.937 -54.099  1.00  0.00    -0.035 A 
HETATM   18  C   UNL     1     -41.333  52.660 -54.340  1.00  0.00     0.015 A 
HETATM   19  C   UNL     1     -42.919  54.422 -55.074  1.00  0.00     0.050 C 
HETATM   20  C   UNL     1     -40.451  52.057 -53.438  1.00  0.00    -0.061 A 
HETATM   21  C   UNL     1     -39.860  50.710 -53.730  1.00  0.00     0.048 C 
HETATM   22  C   UNL     1     -40.100  52.748 -52.278  1.00  0.00     0.009 A 
HETATM   23  C   UNL     1     -40.619  54.021 -52.032  1.00  0.00     0.030 A 
ENDBRANCH  13  16
ENDBRANCH   1  12
BRANCH   2  24
HETATM   24  C   UNL     1     -44.190  58.574 -54.131  1.00  0.00    -0.032 A 
HETATM   25  C   UNL     1     -44.838  57.648 -54.958  1.00  0.00     0.012 A 
HETATM   26  C   UNL     1     -45.315  58.035 -56.214  1.00  0.00     0.037 A 
HETATM   27  C   UNL     1     -45.162  59.348 -56.666  1.00  0.00     0.068 A 
HETATM   28  C   UNL     1     -44.530  60.280 -55.845  1.00  0.00     0.037 A 
HETATM   29  C   UNL     1     -44.052  59.897 -54.587  1.00  0.00     0.012 A 
BRANCH  27  30
HETATM   30  O   UNL     1     -45.671  59.591 -57.912  1.00  0.00    -0.356 OA
HETATM   31  C   UNL     1     -47.085  59.705 -58.018  1.00  0.00     0.210 C 
ENDBRANCH  27  30
ENDBRANCH   2  24
TORSDOF 4
ENDMDL
MODEL 6
REMARK VINA RESULT:      -7.4      2.277      6.816
REMARK  4 active torsions:
REMARK  status: ('A' for Active; 'I' for Inactive)
REMARK    1  A    between atoms: C_6  and  N_7 
REMARK       I    between atoms: N_7  and  C_8 
REMARK    2  A    between atoms: C_8  and  C_9 
REMARK    3  A    between atoms: C_10  and  C_11 
REMARK    4  A    between atoms: C_14  and  O_15 
ROOT
HETATM    1  C   UNL     1     -41.894  56.014 -52.283  1.00  0.00     0.125 C 
HETATM    2  C   UNL     1     -40.668  55.150 -51.878  1.00  0.00     0.160 C 
HETATM    3  N   UNL     1     -40.622  54.871 -50.449  1.00  0.00    -0.231 N 
HETATM    4  C   UNL     1     -41.551  55.293 -49.541  1.00  0.00     0.200 A 
HETATM    5  N   UNL     1     -42.607  56.035 -49.928  1.00  0.00    -0.256 NA
HETATM    6  C   UNL     1     -42.404  56.884 -51.109  1.00  0.00     0.074 C 
HETATM    7  C   UNL     1     -43.741  57.554 -51.440  1.00  0.00     0.027 C 
HETATM    8  N   UNL     1     -39.591  54.253 -49.841  1.00  0.00    -0.162 NA
HETATM    9  C   UNL     1     -40.010  54.265 -48.570  1.00  0.00     0.258 A 
HETATM   10  N   UNL     1     -41.206  54.893 -48.346  1.00  0.00    -0.210 NA
HETATM   11  H   UNL     1     -43.085  56.495 -49.153  1.00  0.00     0.131 HD
ENDROOT
BRANCH   1  12
HETATM   12  C   UNL     1     -41.479  56.909 -53.442  1.00  0.00     0.230 C 
HETATM   13  N   UNL     1     -42.473  57.096 -54.387  1.00  0.00    -0.326 N 
HETATM   14  H   UNL     1     -43.184  56.374 -54.449  1.00  0.00     0.169 HD
HETATM   15  O   UNL     1     -40.335  57.348 -53.518  1.00  0.00    -0.273 OA
BRANCH  13  16
HETATM   16  C   UNL     1     -42.372  57.937 -55.520  1.00  0.00     0.040 A 
HETATM   17  C   UNL     1     -42.296  59.341 -55.478  1.00  0.00    -0.035 A 
HETATM   18  C   UNL     1     -42.139  60.050 -56.686  1.00  0.00     0.015 A 
HETATM   19  C   UNL     1     -42.425  60.161 -54.223  1.00  0.00     0.050 C 
HETATM   20  C   UNL     1     -42.128  59.401 -57.924  1.00  0.00    -0.061 A 
HETATM   21  C   UNL     1     -41.932  60.175 -59.193  1.00  0.00     0.048 C 
HETATM   22  C   UNL     1     -42.265  58.013 -57.956  1.00  0.00     0.009 A 
HETATM   23  C   UNL     1     -42.402  57.291 -56.768  1.00  0.00     0.030 A 
ENDBRANCH  13  16
ENDBRANCH   1  12
BRANCH   2  24
HETATM   24  C   UNL     1     -40.643  53.837 -52.662  1.00  0.00    -0.032 A 
HETATM   25  C   UNL     1     -39.806  52.788 -52.259  1.00  0.00     0.012 A 
HETATM   26  C   UNL     1     -39.762  51.599 -52.992  1.00  0.00     0.037 A 
HETATM   27  C   UNL     1     -40.552  51.429 -54.132  1.00  0.00     0.068 A 
HETATM   28  C   UNL     1     -41.397  52.461 -54.532  1.00  0.00     0.037 A 
HETATM   29  C   UNL     1     -41.446  53.653 -53.801  1.00  0.00     0.012 A 
BRANCH  27  30
HETATM   30  O   UNL     1     -40.410  50.220 -54.756  1.00  0.00    -0.356 OA
HETATM   31  C   UNL     1     -39.310  49.414 -54.350  1.00  0.00     0.210 C 
ENDBRANCH  27  30
ENDBRANCH   2  24
TORSDOF 4
ENDMDL
MODEL 7
REMARK VINA RESULT:      -7.4      2.973      7.159
REMARK  4 active torsions:
REMARK  status: ('A' for Active; 'I' for Inactive)
REMARK    1  A    between atoms: C_6  and  N_7 
REMARK       I    between atoms: N_7  and  C_8 
REMARK    2  A    between atoms: C_8  and  C_9 
REMARK    3  A    between atoms: C_10  and  C_11 
REMARK    4  A    between atoms: C_14  and  O_15 
ROOT
HETATM    1  C   UNL     1     -42.607  58.166 -56.354  1.00  0.00     0.125 C 
HETATM    2  C   UNL     1     -43.284  56.794 -56.625  1.00  0.00     0.160 C 
HETATM    3  N   UNL     1     -43.203  56.391 -58.023  1.00  0.00    -0.231 N 
HETATM    4  C   UNL     1     -42.589  57.111 -59.008  1.00  0.00     0.200 A 
HETATM    5  N   UNL     1     -42.005  58.295 -58.737  1.00  0.00    -0.256 NA
HETATM    6  C   UNL     1     -42.576  59.057 -57.620  1.00  0.00     0.074 C 
HETATM    7  C   UNL     1     -41.710  60.304 -57.412  1.00  0.00     0.027 C 
HETATM    8  N   UNL     1     -43.826  55.308 -58.526  1.00  0.00    -0.162 NA
HETATM    9  C   UNL     1     -43.471  55.394 -59.813  1.00  0.00     0.258 A 
HETATM   10  N   UNL     1     -42.714  56.484 -60.148  1.00  0.00    -0.210 NA
HETATM   11  H   UNL     1     -41.806  58.848 -59.570  1.00  0.00     0.131 HD
ENDROOT
BRANCH   1  12
HETATM   12  C   UNL     1     -43.386  58.868 -55.251  1.00  0.00     0.230 C 
HETATM   13  N   UNL     1     -42.711  58.931 -54.044  1.00  0.00    -0.326 N 
HETATM   14  H   UNL     1     -42.004  58.222 -53.881  1.00  0.00     0.169 HD
HETATM   15  O   UNL     1     -44.530  59.267 -55.447  1.00  0.00    -0.273 OA
BRANCH  13  16
HETATM   16  C   UNL     1     -43.180  59.589 -52.883  1.00  0.00     0.040 A 
HETATM   17  C   UNL     1     -44.022  59.013 -51.915  1.00  0.00    -0.035 A 
HETATM   18  C   UNL     1     -44.364  59.769 -50.775  1.00  0.00     0.015 A 
HETATM   19  C   UNL     1     -44.639  57.647 -52.031  1.00  0.00     0.050 C 
HETATM   20  C   UNL     1     -43.947  61.095 -50.619  1.00  0.00    -0.061 A 
HETATM   21  C   UNL     1     -44.301  61.869 -49.384  1.00  0.00     0.048 C 
HETATM   22  C   UNL     1     -43.161  61.673 -51.616  1.00  0.00     0.009 A 
HETATM   23  C   UNL     1     -42.797  60.933 -52.743  1.00  0.00     0.030 A 
ENDBRANCH  13  16
ENDBRANCH   1  12
BRANCH   2  24
HETATM   24  C   UNL     1     -42.681  55.703 -55.738  1.00  0.00    -0.032 A 
HETATM   25  C   UNL     1     -43.422  55.163 -54.678  1.00  0.00     0.012 A 
HETATM   26  C   UNL     1     -42.860  54.187 -53.851  1.00  0.00     0.037 A 
HETATM   27  C   UNL     1     -41.559  53.727 -54.065  1.00  0.00     0.068 A 
HETATM   28  C   UNL     1     -40.819  54.248 -55.124  1.00  0.00     0.037 A 
HETATM   29  C   UNL     1     -41.377  55.225 -55.957  1.00  0.00     0.012 A 
BRANCH  27  30
HETATM   30  O   UNL     1     -41.132  52.774 -53.181  1.00  0.00    -0.356 OA
HETATM   31  C   UNL     1     -40.019  51.983 -53.576  1.00  0.00     0.210 C 
ENDBRANCH  27  30
ENDBRANCH   2  24
TORSDOF 4
ENDMDL
MODEL 8
REMARK VINA RESULT:      -7.3      2.013      6.568
REMARK  4 active torsions:
REMARK  status: ('A' for Active; 'I' for Inactive)
REMARK    1  A    between atoms: C_6  and  N_7 
REMARK       I    between atoms: N_7  and  C_8 
REMARK    2  A    between atoms: C_8  and  C_9 
REMARK    3  A    between atoms: C_10  and  C_11 
REMARK    4  A    between atoms: C_14  and  O_15 
ROOT
HETATM    1  C   UNL     1     -43.203  58.427 -53.459  1.00  0.00     0.125 C 
HETATM    2  C   UNL     1     -41.684  58.217 -53.210  1.00  0.00     0.160 C 
HETATM    3  N   UNL     1     -41.227  58.823 -51.966  1.00  0.00    -0.231 N 
HETATM    4  C   UNL     1     -42.027  59.493 -51.085  1.00  0.00     0.200 A 
HETATM    5  N   UNL     1     -43.343  59.651 -51.329  1.00  0.00    -0.256 NA
HETATM    6  C   UNL     1     -43.739  59.690 -52.742  1.00  0.00     0.074 C 
HETATM    7  C   UNL     1     -45.268  59.766 -52.799  1.00  0.00     0.027 C 
HETATM    8  N   UNL     1     -39.933  58.886 -51.596  1.00  0.00    -0.162 NA
HETATM    9  C   UNL     1     -40.040  59.540 -50.434  1.00  0.00     0.258 A 
HETATM   10  N   UNL     1     -41.306  59.929 -50.086  1.00  0.00    -0.210 NA
HETATM   11  H   UNL     1     -43.780  60.366 -50.746  1.00  0.00     0.131 HD
ENDROOT
BRANCH   1  12
HETATM   12  C   UNL     1     -43.422  58.557 -54.960  1.00  0.00     0.230 C 
HETATM   13  N   UNL     1     -42.310  59.009 -55.650  1.00  0.00    -0.326 N 
HETATM   14  H   UNL     1     -41.639  59.556 -55.121  1.00  0.00     0.169 HD
HETATM   15  O   UNL     1     -44.522  58.330 -55.455  1.00  0.00    -0.273 OA
BRANCH  13  16
HETATM   16  C   UNL     1     -42.225  59.148 -57.055  1.00  0.00     0.040 A 
HETATM   17  C   UNL     1     -42.369  58.098 -57.979  1.00  0.00    -0.035 A 
HETATM   18  C   UNL     1     -42.318  58.392 -59.357  1.00  0.00     0.015 A 
HETATM   19  C   UNL     1     -42.522  56.650 -57.602  1.00  0.00     0.050 C 
HETATM   20  C   UNL     1     -42.059  59.685 -59.823  1.00  0.00    -0.061 A 
HETATM   21  C   UNL     1     -42.037  59.978 -61.294  1.00  0.00     0.048 C 
HETATM   22  C   UNL     1     -41.859  60.707 -58.895  1.00  0.00     0.009 A 
HETATM   23  C   UNL     1     -41.925  60.437 -57.526  1.00  0.00     0.030 A 
ENDBRANCH  13  16
ENDBRANCH   1  12
BRANCH   2  24
HETATM   24  C   UNL     1     -41.330  56.729 -53.219  1.00  0.00    -0.032 A 
HETATM   25  C   UNL     1     -40.717  56.155 -54.340  1.00  0.00     0.012 A 
HETATM   26  C   UNL     1     -40.419  54.789 -54.360  1.00  0.00     0.037 A 
HETATM   27  C   UNL     1     -40.719  53.974 -53.265  1.00  0.00     0.068 A 
HETATM   28  C   UNL     1     -41.317  54.539 -52.141  1.00  0.00     0.037 A 
HETATM   29  C   UNL     1     -41.616  55.905 -52.116  1.00  0.00     0.012 A 
BRANCH  27  30
HETATM   30  O   UNL     1     -40.379  52.658 -53.418  1.00  0.00    -0.356 OA
HETATM   31  C   UNL     1     -39.819  52.003 -52.286  1.00  0.00     0.210 C 
ENDBRANCH  27  30
ENDBRANCH   2  24
TORSDOF 4
ENDMDL
MODEL 9
REMARK VINA RESULT:      -7.1      2.601      5.206
REMARK  4 active torsions:
REMARK  status: ('A' for Active; 'I' for Inactive)
REMARK    1  A    between atoms: C_6  and  N_7 
REMARK       I    between atoms: N_7  and  C_8 
REMARK    2  A    between atoms: C_8  and  C_9 
REMARK    3  A    between atoms: C_10  and  C_11 
REMARK    4  A    between atoms: C_14  and  O_15 
ROOT
HETATM    1  C   UNL     1     -43.166  58.359 -54.429  1.00  0.00     0.125 C 
HETATM    2  C   UNL     1     -42.949  59.760 -53.795  1.00  0.00     0.160 C 
HETATM    3  N   UNL     1     -43.311  60.848 -54.695  1.00  0.00    -0.231 N 
HETATM    4  C   UNL     1     -43.808  60.685 -55.956  1.00  0.00     0.200 A 
HETATM    5  N   UNL     1     -43.990  59.454 -56.473  1.00  0.00    -0.256 NA
HETATM    6  C   UNL     1     -43.094  58.404 -55.975  1.00  0.00     0.074 C 
HETATM    7  C   UNL     1     -43.534  57.076 -56.600  1.00  0.00     0.027 C 
HETATM    8  N   UNL     1     -43.090  62.149 -54.420  1.00  0.00    -0.162 NA
HETATM    9  C   UNL     1     -43.560  62.719 -55.536  1.00  0.00     0.258 A 
HETATM   10  N   UNL     1     -44.007  61.857 -56.501  1.00  0.00    -0.210 NA
HETATM   11  H   UNL     1     -44.122  59.455 -57.484  1.00  0.00     0.131 HD
ENDROOT
BRANCH   1  12
HETATM   12  C   UNL     1     -42.090  57.425 -53.892  1.00  0.00     0.230 C 
HETATM   13  N   UNL     1     -42.582  56.224 -53.412  1.00  0.00    -0.326 N 
HETATM   14  H   UNL     1     -43.548  56.219 -53.102  1.00  0.00     0.169 HD
HETATM   15  O   UNL     1     -40.915  57.778 -53.853  1.00  0.00    -0.273 OA
BRANCH  13  16
HETATM   16  C   UNL     1     -41.791  55.156 -52.926  1.00  0.00     0.040 A 
HETATM   17  C   UNL     1     -41.351  55.020 -51.597  1.00  0.00    -0.035 A 
HETATM   18  C   UNL     1     -40.615  53.871 -51.238  1.00  0.00     0.015 A 
HETATM   19  C   UNL     1     -41.563  56.050 -50.522  1.00  0.00     0.050 C 
HETATM   20  C   UNL     1     -40.254  52.905 -52.183  1.00  0.00    -0.061 A 
HETATM   21  C   UNL     1     -39.495  51.679 -51.771  1.00  0.00     0.048 C 
HETATM   22  C   UNL     1     -40.646  53.083 -53.509  1.00  0.00     0.009 A 
HETATM   23  C   UNL     1     -41.392  54.205 -53.879  1.00  0.00     0.030 A 
ENDBRANCH  13  16
ENDBRANCH   1  12
BRANCH   2  24
HETATM   24  C   UNL     1     -43.726  59.893 -52.485  1.00  0.00    -0.032 A 
HETATM   25  C   UNL     1     -45.052  59.449 -52.400  1.00  0.00     0.012 A 
HETATM   26  C   UNL     1     -45.771  59.596 -51.211  1.00  0.00     0.037 A 
HETATM   27  C   UNL     1     -45.184  60.180 -50.085  1.00  0.00     0.068 A 
HETATM   28  C   UNL     1     -43.862  60.613 -50.156  1.00  0.00     0.037 A 
HETATM   29  C   UNL     1     -43.138  60.467 -51.344  1.00  0.00     0.012 A 
BRANCH  27  30
HETATM   30  O   UNL     1     -46.000  60.266 -48.991  1.00  0.00    -0.356 OA
HETATM   31  C   UNL     1     -45.639  61.213 -47.993  1.00  0.00     0.210 C 
ENDBRANCH  27  30
ENDBRANCH   2  24
TORSDOF 4
ENDMDL
MODEL 10
REMARK VINA RESULT:      -7.0     16.386     19.516
REMARK  4 active torsions:
REMARK  status: ('A' for Active; 'I' for Inactive)
REMARK    1  A    between atoms: C_6  and  N_7 
REMARK       I    between atoms: N_7  and  C_8 
REMARK    2  A    between atoms: C_8  and  C_9 
REMARK    3  A    between atoms: C_10  and  C_11 
REMARK    4  A    between atoms: C_14  and  O_15 
ROOT
HETATM    1  C   UNL     1     -34.582  39.576 -52.420  1.00  0.00     0.125 C 
HETATM    2  C   UNL     1     -33.083  39.889 -52.155  1.00  0.00     0.160 C 
HETATM    3  N   UNL     1     -32.704  39.697 -50.761  1.00  0.00    -0.231 N 
HETATM    4  C   UNL     1     -33.547  39.270 -49.775  1.00  0.00     0.200 A 
HETATM    5  N   UNL     1     -34.841  39.000 -50.041  1.00  0.00    -0.256 NA
HETATM    6  C   UNL     1     -35.445  39.753 -51.147  1.00  0.00     0.074 C 
HETATM    7  C   UNL     1     -36.868  39.226 -51.351  1.00  0.00     0.027 C 
HETATM    8  N   UNL     1     -31.497  40.027 -50.263  1.00  0.00    -0.162 NA
HETATM    9  C   UNL     1     -31.660  39.691 -48.978  1.00  0.00     0.258 A 
HETATM   10  N   UNL     1     -32.902  39.224 -48.640  1.00  0.00    -0.210 NA
HETATM   11  H   UNL     1     -35.420  38.936 -49.205  1.00  0.00     0.131 HD
ENDROOT
BRANCH   1  12
HETATM   12  C   UNL     1     -35.076  40.516 -53.510  1.00  0.00     0.230 C 
HETATM   13  N   UNL     1     -35.427  39.873 -54.685  1.00  0.00    -0.326 N 
HETATM   14  H   UNL     1     -34.988  38.976 -54.861  1.00  0.00     0.169 HD
HETATM   15  O   UNL     1     -35.083  41.731 -53.335  1.00  0.00    -0.273 OA
BRANCH  13  16
HETATM   16  C   UNL     1     -35.981  40.504 -55.824  1.00  0.00     0.040 A 
HETATM   17  C   UNL     1     -37.248  41.112 -55.871  1.00  0.00    -0.035 A 
HETATM   18  C   UNL     1     -37.649  41.756 -57.060  1.00  0.00     0.015 A 
HETATM   19  C   UNL     1     -38.246  41.083 -54.747  1.00  0.00     0.050 C 
HETATM   20  C   UNL     1     -36.852  41.742 -58.209  1.00  0.00    -0.061 A 
HETATM   21  C   UNL     1     -37.290  42.457 -59.452  1.00  0.00     0.048 C 
HETATM   22  C   UNL     1     -35.624  41.082 -58.166  1.00  0.00     0.009 A 
HETATM   23  C   UNL     1     -35.201  40.456 -56.991  1.00  0.00     0.030 A 
ENDBRANCH  13  16
ENDBRANCH   1  12
BRANCH   2  24
HETATM   24  C   UNL     1     -32.181  39.045 -53.057  1.00  0.00    -0.032 A 
HETATM   25  C   UNL     1     -31.684  39.573 -54.255  1.00  0.00     0.012 A 
HETATM   26  C   UNL     1     -30.883  38.791 -55.092  1.00  0.00     0.037 A 
HETATM   27  C   UNL     1     -30.558  37.476 -54.751  1.00  0.00     0.068 A 
HETATM   28  C   UNL     1     -31.037  36.946 -53.555  1.00  0.00     0.037 A 
HETATM   29  C   UNL     1     -31.838  37.725 -52.713  1.00  0.00     0.012 A 
BRANCH  27  30
HETATM   30  O   UNL     1     -29.772  36.823 -55.660  1.00  0.00    -0.356 OA
HETATM   31  C   UNL     1     -28.637  37.526 -56.150  1.00  0.00     0.210 C 
ENDBRANCH  27  30
ENDBRANCH   2  24
TORSDOF 4
ENDMDL
