MODEL 1
REMARK VINA RESULT:      -7.3      0.000      0.000
REMARK  6 active torsions:
REMARK  status: ('A' for Active; 'I' for Inactive)
REMARK    1  A    between atoms: C_2  and  N_3 
REMARK    2  A    between atoms: C_2  and  C_18 
REMARK    3  A    between atoms: N_3  and  C_6 
REMARK    4  A    between atoms: C_6  and  C_7 
REMARK    5  A    between atoms: C_10  and  N_11 
REMARK       I    between atoms: N_11  and  C_12 
REMARK    6  A    between atoms: C_12  and  O_13 
ROOT
HETATM    1  N   UNL     1     -40.990  56.372 -53.049  1.00  0.00    -0.063 N 
HETATM    2  H   UNL     1     -40.036  56.732 -52.930  1.00  0.00     0.278 HD
HETATM    3  H   UNL     1     -40.905  55.643 -53.771  1.00  0.00     0.278 HD
ENDROOT
BRANCH   1   4
HETATM    4  C   UNL     1     -41.469  55.734 -51.779  1.00  0.00     0.216 C 
HETATM    5  C   UNL     1     -41.047  56.591 -50.586  1.00  0.00     0.045 C 
BRANCH   4   6
HETATM    6  C   UNL     1     -40.948  54.322 -51.665  1.00  0.00    -0.009 A 
HETATM    7  C   UNL     1     -40.704  53.766 -50.411  1.00  0.00     0.126 A 
HETATM    8  N   UNL     1     -40.270  52.517 -50.178  1.00  0.00    -0.259 NA
HETATM    9  C   UNL     1     -40.034  51.748 -51.274  1.00  0.00     0.074 A 
HETATM   10  C   UNL     1     -40.236  52.214 -52.572  1.00  0.00     0.034 A 
HETATM   11  C   UNL     1     -39.565  50.404 -51.255  1.00  0.00     0.040 A 
HETATM   12  S   UNL     1     -39.848  51.007 -53.733  1.00  0.00    -0.100 SA
HETATM   13  C   UNL     1     -40.699  53.522 -52.789  1.00  0.00     0.032 A 
HETATM   14  C   UNL     1     -39.420  49.880 -52.520  1.00  0.00     0.053 A 
ENDBRANCH   4   6
ENDBRANCH   1   4
BRANCH   1  15
HETATM   15  C   UNL     1     -41.846  57.454 -53.612  1.00  0.00     0.271 C 
BRANCH  15  16
HETATM   16  C   UNL     1     -42.442  57.017 -54.920  1.00  0.00    -0.033 A 
HETATM   17  C   UNL     1     -42.094  55.785 -55.486  1.00  0.00     0.011 A 
HETATM   18  C   UNL     1     -42.603  55.400 -56.734  1.00  0.00     0.030 A 
HETATM   19  C   UNL     1     -43.465  56.235 -57.442  1.00  0.00     0.036 A 
HETATM   20  C   UNL     1     -43.818  57.465 -56.869  1.00  0.00     0.030 A 
HETATM   21  C   UNL     1     -43.310  57.858 -55.626  1.00  0.00     0.011 A 
BRANCH  19  22
HETATM   22  N   UNL     1     -44.022  55.945 -58.698  1.00  0.00    -0.303 N 
HETATM   23  C   UNL     1     -43.494  55.905 -59.961  1.00  0.00     0.364 C 
HETATM   24  O   UNL     1     -44.208  55.607 -60.913  1.00  0.00    -0.238 OA
HETATM   25  H   UNL     1     -45.009  55.717 -58.728  1.00  0.00     0.171 HD
BRANCH  23  26
HETATM   26  O   UNL     1     -42.182  56.227 -60.062  1.00  0.00    -0.309 OA
HETATM   27  C   UNL     1     -41.938  57.616 -60.296  1.00  0.00     0.215 C 
ENDBRANCH  23  26
ENDBRANCH  19  22
ENDBRANCH  15  16
ENDBRANCH   1  15
TORSDOF 6
ENDMDL
MODEL 2
REMARK VINA RESULT:      -7.2      3.722      7.448
REMARK  6 active torsions:
REMARK  status: ('A' for Active; 'I' for Inactive)
REMARK    1  A    between atoms: C_2  and  N_3 
REMARK    2  A    between atoms: C_2  and  C_18 
REMARK    3  A    between atoms: N_3  and  C_6 
REMARK    4  A    between atoms: C_6  and  C_7 
REMARK    5  A    between atoms: C_10  and  N_11 
REMARK       I    between atoms: N_11  and  C_12 
REMARK    6  A    between atoms: C_12  and  O_13 
ROOT
HETATM    1  N   UNL     1     -42.676  57.533 -53.332  1.00  0.00    -0.063 N 
HETATM    2  H   UNL     1     -42.958  57.656 -52.352  1.00  0.00     0.278 HD
HETATM    3  H   UNL     1     -43.217  56.719 -53.657  1.00  0.00     0.278 HD
ENDROOT
BRANCH   1   4
HETATM    4  C   UNL     1     -43.079  58.728 -54.144  1.00  0.00     0.216 C 
HETATM    5  C   UNL     1     -44.547  59.056 -53.875  1.00  0.00     0.045 C 
BRANCH   4   6
HETATM    6  C   UNL     1     -42.819  58.486 -55.610  1.00  0.00    -0.009 A 
HETATM    7  C   UNL     1     -42.153  59.446 -56.369  1.00  0.00     0.126 A 
HETATM    8  N   UNL     1     -41.839  59.337 -57.670  1.00  0.00    -0.259 NA
HETATM    9  C   UNL     1     -42.229  58.192 -58.289  1.00  0.00     0.074 A 
HETATM   10  C   UNL     1     -42.911  57.176 -57.622  1.00  0.00     0.034 A 
HETATM   11  C   UNL     1     -42.006  57.876 -59.659  1.00  0.00     0.040 A 
HETATM   12  S   UNL     1     -43.263  55.866 -58.678  1.00  0.00    -0.100 SA
HETATM   13  C   UNL     1     -43.220  57.310 -56.258  1.00  0.00     0.032 A 
HETATM   14  C   UNL     1     -42.515  56.644 -60.004  1.00  0.00     0.053 A 
ENDBRANCH   4   6
ENDBRANCH   1   4
BRANCH   1  15
HETATM   15  C   UNL     1     -41.236  57.154 -53.375  1.00  0.00     0.271 C 
BRANCH  15  16
HETATM   16  C   UNL     1     -41.094  55.680 -53.628  1.00  0.00    -0.033 A 
HETATM   17  C   UNL     1     -41.636  54.748 -52.735  1.00  0.00     0.011 A 
HETATM   18  C   UNL     1     -41.455  53.372 -52.937  1.00  0.00     0.030 A 
HETATM   19  C   UNL     1     -40.728  52.901 -54.029  1.00  0.00     0.036 A 
HETATM   20  C   UNL     1     -40.193  53.836 -54.925  1.00  0.00     0.030 A 
HETATM   21  C   UNL     1     -40.366  55.211 -54.727  1.00  0.00     0.011 A 
BRANCH  19  22
HETATM   22  N   UNL     1     -40.486  51.548 -54.315  1.00  0.00    -0.303 N 
HETATM   23  C   UNL     1     -39.756  50.581 -53.677  1.00  0.00     0.364 C 
HETATM   24  O   UNL     1     -39.711  49.445 -54.138  1.00  0.00    -0.238 OA
HETATM   25  H   UNL     1     -40.911  51.165 -55.152  1.00  0.00     0.171 HD
BRANCH  23  26
HETATM   26  O   UNL     1     -39.105  50.976 -52.556  1.00  0.00    -0.309 OA
HETATM   27  C   UNL     1     -39.535  50.310 -51.367  1.00  0.00     0.215 C 
ENDBRANCH  23  26
ENDBRANCH  19  22
ENDBRANCH  15  16
ENDBRANCH   1  15
TORSDOF 6
ENDMDL
MODEL 3
REMARK VINA RESULT:      -7.1      1.499      2.146
REMARK  6 active torsions:
REMARK  status: ('A' for Active; 'I' for Inactive)
REMARK    1  A    between atoms: C_2  and  N_3 
REMARK    2  A    between atoms: C_2  and  C_18 
REMARK    3  A    between atoms: N_3  and  C_6 
REMARK    4  A    between atoms: C_6  and  C_7 
REMARK    5  A    between atoms: C_10  and  N_11 
REMARK       I    between atoms: N_11  and  C_12 
REMARK    6  A    between atoms: C_12  and  O_13 
ROOT
HETATM    1  N   UNL     1     -41.772  57.471 -54.402  1.00  0.00    -0.063 N 
HETATM    2  H   UNL     1     -40.911  58.019 -54.287  1.00  0.00     0.278 HD
HETATM    3  H   UNL     1     -41.488  56.659 -54.970  1.00  0.00     0.278 HD
ENDROOT
BRANCH   1   4
HETATM    4  C   UNL     1     -42.256  56.977 -53.072  1.00  0.00     0.216 C 
HETATM    5  C   UNL     1     -42.033  58.057 -52.014  1.00  0.00     0.045 C 
BRANCH   4   6
HETATM    6  C   UNL     1     -41.571  55.683 -52.703  1.00  0.00    -0.009 A 
HETATM    7  C   UNL     1     -41.214  55.435 -51.380  1.00  0.00     0.126 A 
HETATM    8  N   UNL     1     -40.629  54.316 -50.924  1.00  0.00    -0.259 NA
HETATM    9  C   UNL     1     -40.351  53.361 -51.850  1.00  0.00     0.074 A 
HETATM   10  C   UNL     1     -40.658  53.517 -53.200  1.00  0.00     0.034 A 
HETATM   11  C   UNL     1     -39.728  52.109 -51.585  1.00  0.00     0.040 A 
HETATM   12  S   UNL     1     -40.182  52.139 -54.110  1.00  0.00    -0.100 SA
HETATM   13  C   UNL     1     -41.278  54.694 -53.652  1.00  0.00     0.032 A 
HETATM   14  C   UNL     1     -39.576  51.346 -52.721  1.00  0.00     0.053 A 
ENDBRANCH   4   6
ENDBRANCH   1   4
BRANCH   1  15
HETATM   15  C   UNL     1     -42.741  58.260 -55.212  1.00  0.00     0.271 C 
BRANCH  15  16
HETATM   16  C   UNL     1     -43.059  57.539 -56.491  1.00  0.00    -0.033 A 
HETATM   17  C   UNL     1     -42.808  56.167 -56.618  1.00  0.00     0.011 A 
HETATM   18  C   UNL     1     -43.048  55.503 -57.828  1.00  0.00     0.030 A 
HETATM   19  C   UNL     1     -43.538  56.192 -58.936  1.00  0.00     0.036 A 
HETATM   20  C   UNL     1     -43.796  57.564 -58.804  1.00  0.00     0.030 A 
HETATM   21  C   UNL     1     -43.554  58.234 -57.600  1.00  0.00     0.011 A 
BRANCH  19  22
HETATM   22  N   UNL     1     -43.805  55.621 -60.190  1.00  0.00    -0.303 N 
HETATM   23  C   UNL     1     -44.968  55.248 -60.811  1.00  0.00     0.364 C 
HETATM   24  O   UNL     1     -44.932  54.769 -61.940  1.00  0.00    -0.238 OA
HETATM   25  H   UNL     1     -43.013  55.422 -60.790  1.00  0.00     0.171 HD
BRANCH  23  26
HETATM   26  O   UNL     1     -46.104  55.429 -60.095  1.00  0.00    -0.309 OA
HETATM   27  C   UNL     1     -47.016  56.364 -60.675  1.00  0.00     0.215 C 
ENDBRANCH  23  26
ENDBRANCH  19  22
ENDBRANCH  15  16
ENDBRANCH   1  15
TORSDOF 6
ENDMDL
MODEL 4
REMARK VINA RESULT:      -6.9      4.086      7.920
REMARK  6 active torsions:
REMARK  status: ('A' for Active; 'I' for Inactive)
REMARK    1  A    between atoms: C_2  and  N_3 
REMARK    2  A    between atoms: C_2  and  C_18 
REMARK    3  A    between atoms: N_3  and  C_6 
REMARK    4  A    between atoms: C_6  and  C_7 
REMARK    5  A    between atoms: C_10  and  N_11 
REMARK       I    between atoms: N_11  and  C_12 
REMARK    6  A    between atoms: C_12  and  O_13 
ROOT
HETATM    1  N   UNL     1     -41.915  57.672 -54.720  1.00  0.00    -0.063 N 
HETATM    2  H   UNL     1     -41.600  57.078 -55.496  1.00  0.00     0.278 HD
HETATM    3  H   UNL     1     -41.338  58.522 -54.794  1.00  0.00     0.278 HD
ENDROOT
BRANCH   1   4
HETATM    4  C   UNL     1     -43.353  58.054 -54.907  1.00  0.00     0.216 C 
HETATM    5  C   UNL     1     -44.202  57.391 -53.823  1.00  0.00     0.045 C 
BRANCH   4   6
HETATM    6  C   UNL     1     -43.826  57.685 -56.292  1.00  0.00    -0.009 A 
HETATM    7  C   UNL     1     -43.105  56.769 -57.055  1.00  0.00     0.126 A 
HETATM    8  N   UNL     1     -43.437  56.340 -58.283  1.00  0.00    -0.259 NA
HETATM    9  C   UNL     1     -44.567  56.871 -58.821  1.00  0.00     0.074 A 
HETATM   10  C   UNL     1     -45.351  57.802 -58.145  1.00  0.00     0.034 A 
HETATM   11  C   UNL     1     -45.093  56.562 -60.108  1.00  0.00     0.040 A 
HETATM   12  S   UNL     1     -46.706  58.278 -59.090  1.00  0.00    -0.100 SA
HETATM   13  C   UNL     1     -44.988  58.229 -56.856  1.00  0.00     0.032 A 
HETATM   14  C   UNL     1     -46.250  57.254 -60.382  1.00  0.00     0.053 A 
ENDBRANCH   4   6
ENDBRANCH   1   4
BRANCH   1  15
HETATM   15  C   UNL     1     -41.565  57.009 -53.432  1.00  0.00     0.271 C 
BRANCH  15  16
HETATM   16  C   UNL     1     -41.214  55.568 -53.668  1.00  0.00    -0.033 A 
HETATM   17  C   UNL     1     -40.375  55.202 -54.728  1.00  0.00     0.011 A 
HETATM   18  C   UNL     1     -40.093  53.854 -54.987  1.00  0.00     0.030 A 
HETATM   19  C   UNL     1     -40.644  52.845 -54.198  1.00  0.00     0.036 A 
HETATM   20  C   UNL     1     -41.477  53.215 -53.134  1.00  0.00     0.030 A 
HETATM   21  C   UNL     1     -41.767  54.559 -52.872  1.00  0.00     0.011 A 
BRANCH  19  22
HETATM   22  N   UNL     1     -40.428  51.470 -54.378  1.00  0.00    -0.303 N 
HETATM   23  C   UNL     1     -39.741  50.535 -53.650  1.00  0.00     0.364 C 
HETATM   24  O   UNL     1     -39.712  49.368 -54.026  1.00  0.00    -0.238 OA
HETATM   25  H   UNL     1     -40.837  51.037 -55.198  1.00  0.00     0.171 HD
BRANCH  23  26
HETATM   26  O   UNL     1     -39.113  50.996 -52.541  1.00  0.00    -0.309 OA
HETATM   27  C   UNL     1     -39.522  50.356 -51.331  1.00  0.00     0.215 C 
ENDBRANCH  23  26
ENDBRANCH  19  22
ENDBRANCH  15  16
ENDBRANCH   1  15
TORSDOF 6
ENDMDL
MODEL 5
REMARK VINA RESULT:      -6.8      1.913      3.032
REMARK  6 active torsions:
REMARK  status: ('A' for Active; 'I' for Inactive)
REMARK    1  A    between atoms: C_2  and  N_3 
REMARK    2  A    between atoms: C_2  and  C_18 
REMARK    3  A    between atoms: N_3  and  C_6 
REMARK    4  A    between atoms: C_6  and  C_7 
REMARK    5  A    between atoms: C_10  and  N_11 
REMARK       I    between atoms: N_11  and  C_12 
REMARK    6  A    between atoms: C_12  and  O_13 
ROOT
HETATM    1  N   UNL     1     -40.379  55.770 -50.104  1.00  0.00    -0.063 N 
HETATM    2  H   UNL     1     -39.588  56.041 -49.507  1.00  0.00     0.278 HD
HETATM    3  H   UNL     1     -39.960  55.607 -51.031  1.00  0.00     0.278 HD
ENDROOT
BRANCH   1   4
HETATM    4  C   UNL     1     -40.982  54.485 -49.620  1.00  0.00     0.216 C 
HETATM    5  C   UNL     1     -40.529  54.218 -48.185  1.00  0.00     0.045 C 
BRANCH   4   6
HETATM    6  C   UNL     1     -40.621  53.347 -50.542  1.00  0.00    -0.009 A 
HETATM    7  C   UNL     1     -40.292  52.100 -50.017  1.00  0.00     0.126 A 
HETATM    8  N   UNL     1     -39.982  51.006 -50.730  1.00  0.00    -0.259 NA
HETATM    9  C   UNL     1     -39.974  51.151 -52.082  1.00  0.00     0.074 A 
HETATM   10  C   UNL     1     -40.277  52.360 -52.706  1.00  0.00     0.034 A 
HETATM   11  C   UNL     1     -39.667  50.127 -53.022  1.00  0.00     0.040 A 
HETATM   12  S   UNL     1     -40.178  52.219 -54.416  1.00  0.00    -0.100 SA
HETATM   13  C   UNL     1     -40.607  53.488 -51.937  1.00  0.00     0.032 A 
HETATM   14  C   UNL     1     -39.740  50.569 -54.323  1.00  0.00     0.053 A 
ENDBRANCH   4   6
ENDBRANCH   1   4
BRANCH   1  15
HETATM   15  C   UNL     1     -41.303  56.932 -50.235  1.00  0.00     0.271 C 
BRANCH  15  16
HETATM   16  C   UNL     1     -41.845  57.009 -51.634  1.00  0.00    -0.033 A 
HETATM   17  C   UNL     1     -43.159  56.615 -51.912  1.00  0.00     0.011 A 
HETATM   18  C   UNL     1     -43.650  56.630 -53.225  1.00  0.00     0.030 A 
HETATM   19  C   UNL     1     -42.840  57.036 -54.285  1.00  0.00     0.036 A 
HETATM   20  C   UNL     1     -41.527  57.437 -54.002  1.00  0.00     0.030 A 
HETATM   21  C   UNL     1     -41.030  57.420 -52.694  1.00  0.00     0.011 A 
BRANCH  19  22
HETATM   22  N   UNL     1     -43.234  57.081 -55.632  1.00  0.00    -0.303 N 
HETATM   23  C   UNL     1     -43.094  56.198 -56.669  1.00  0.00     0.364 C 
HETATM   24  O   UNL     1     -43.546  56.478 -57.775  1.00  0.00    -0.238 OA
HETATM   25  H   UNL     1     -43.717  57.914 -55.949  1.00  0.00     0.171 HD
BRANCH  23  26
HETATM   26  O   UNL     1     -42.429  55.053 -56.384  1.00  0.00    -0.309 OA
HETATM   27  C   UNL     1     -43.250  54.025 -55.827  1.00  0.00     0.215 C 
ENDBRANCH  23  26
ENDBRANCH  19  22
ENDBRANCH  15  16
ENDBRANCH   1  15
TORSDOF 6
ENDMDL
MODEL 6
REMARK VINA RESULT:      -6.8      4.125      5.647
REMARK  6 active torsions:
REMARK  status: ('A' for Active; 'I' for Inactive)
REMARK    1  A    between atoms: C_2  and  N_3 
REMARK    2  A    between atoms: C_2  and  C_18 
REMARK    3  A    between atoms: N_3  and  C_6 
REMARK    4  A    between atoms: C_6  and  C_7 
REMARK    5  A    between atoms: C_10  and  N_11 
REMARK       I    between atoms: N_11  and  C_12 
REMARK    6  A    between atoms: C_12  and  O_13 
ROOT
HETATM    1  N   UNL     1     -41.017  55.958 -54.810  1.00  0.00    -0.063 N 
HETATM    2  H   UNL     1     -40.798  56.020 -53.808  1.00  0.00     0.278 HD
HETATM    3  H   UNL     1     -40.180  56.328 -55.282  1.00  0.00     0.278 HD
ENDROOT
BRANCH   1   4
HETATM    4  C   UNL     1     -41.199  54.526 -55.216  1.00  0.00     0.216 C 
HETATM    5  C   UNL     1     -42.653  54.291 -55.621  1.00  0.00     0.045 C 
BRANCH   4   6
HETATM    6  C   UNL     1     -40.771  53.599 -54.104  1.00  0.00    -0.009 A 
HETATM    7  C   UNL     1     -40.680  54.072 -52.797  1.00  0.00     0.126 A 
HETATM    8  N   UNL     1     -40.340  53.343 -51.722  1.00  0.00    -0.259 NA
HETATM    9  C   UNL     1     -40.045  52.036 -51.950  1.00  0.00     0.074 A 
HETATM   10  C   UNL     1     -40.095  51.469 -53.222  1.00  0.00     0.034 A 
HETATM   11  C   UNL     1     -39.655  51.092 -50.959  1.00  0.00     0.040 A 
HETATM   12  S   UNL     1     -39.667  49.805 -53.178  1.00  0.00    -0.100 SA
HETATM   13  C   UNL     1     -40.462  52.251 -54.330  1.00  0.00     0.032 A 
HETATM   14  C   UNL     1     -39.420  49.843 -51.486  1.00  0.00     0.053 A 
ENDBRANCH   4   6
ENDBRANCH   1   4
BRANCH   1  15
HETATM   15  C   UNL     1     -42.144  56.884 -55.115  1.00  0.00     0.271 C 
BRANCH  15  16
HETATM   16  C   UNL     1     -42.710  57.450 -53.844  1.00  0.00    -0.033 A 
HETATM   17  C   UNL     1     -43.433  56.638 -52.961  1.00  0.00     0.011 A 
HETATM   18  C   UNL     1     -44.012  57.175 -51.804  1.00  0.00     0.030 A 
HETATM   19  C   UNL     1     -43.885  58.530 -51.505  1.00  0.00     0.036 A 
HETATM   20  C   UNL     1     -43.155  59.339 -52.386  1.00  0.00     0.030 A 
HETATM   21  C   UNL     1     -42.577  58.810 -53.546  1.00  0.00     0.011 A 
BRANCH  19  22
HETATM   22  N   UNL     1     -44.431  59.164 -50.378  1.00  0.00    -0.303 N 
HETATM   23  C   UNL     1     -45.646  59.751 -50.140  1.00  0.00     0.364 C 
HETATM   24  O   UNL     1     -45.885  60.237 -49.040  1.00  0.00    -0.238 OA
HETATM   25  H   UNL     1     -43.848  59.230 -49.551  1.00  0.00     0.171 HD
BRANCH  23  26
HETATM   26  O   UNL     1     -46.510  59.761 -51.184  1.00  0.00    -0.309 OA
HETATM   27  C   UNL     1     -46.711  61.053 -51.762  1.00  0.00     0.215 C 
ENDBRANCH  23  26
ENDBRANCH  19  22
ENDBRANCH  15  16
ENDBRANCH   1  15
TORSDOF 6
ENDMDL
MODEL 7
REMARK VINA RESULT:      -6.7     14.819     16.089
REMARK  6 active torsions:
REMARK  status: ('A' for Active; 'I' for Inactive)
REMARK    1  A    between atoms: C_2  and  N_3 
REMARK    2  A    between atoms: C_2  and  C_18 
REMARK    3  A    between atoms: N_3  and  C_6 
REMARK    4  A    between atoms: C_6  and  C_7 
REMARK    5  A    between atoms: C_10  and  N_11 
REMARK       I    between atoms: N_11  and  C_12 
REMARK    6  A    between atoms: C_12  and  O_13 
ROOT
HETATM    1  N   UNL     1     -36.909  40.860 -55.287  1.00  0.00    -0.063 N 
HETATM    2  H   UNL     1     -36.353  40.121 -55.736  1.00  0.00     0.278 HD
HETATM    3  H   UNL     1     -37.314  40.409 -54.454  1.00  0.00     0.278 HD
ENDROOT
BRANCH   1   4
HETATM    4  C   UNL     1     -36.019  41.980 -54.838  1.00  0.00     0.216 C 
HETATM    5  C   UNL     1     -35.147  42.439 -56.006  1.00  0.00     0.045 C 
BRANCH   4   6
HETATM    6  C   UNL     1     -35.188  41.557 -53.651  1.00  0.00    -0.009 A 
HETATM    7  C   UNL     1     -35.461  42.075 -52.387  1.00  0.00     0.126 A 
HETATM    8  N   UNL     1     -34.815  41.757 -51.254  1.00  0.00    -0.259 NA
HETATM    9  C   UNL     1     -33.796  40.864 -51.373  1.00  0.00     0.074 A 
HETATM   10  C   UNL     1     -33.437  40.297 -52.594  1.00  0.00     0.034 A 
HETATM   11  C   UNL     1     -32.979  40.396 -50.305  1.00  0.00     0.040 A 
HETATM   12  S   UNL     1     -32.116  39.212 -52.411  1.00  0.00    -0.100 SA
HETATM   13  C   UNL     1     -34.134  40.640 -53.764  1.00  0.00     0.032 A 
HETATM   14  C   UNL     1     -32.027  39.496 -50.727  1.00  0.00     0.053 A 
ENDBRANCH   4   6
ENDBRANCH   1   4
BRANCH   1  15
HETATM   15  C   UNL     1     -38.039  41.227 -56.186  1.00  0.00     0.271 C 
BRANCH  15  16
HETATM   16  C   UNL     1     -37.771  40.742 -57.582  1.00  0.00    -0.033 A 
HETATM   17  C   UNL     1     -37.621  39.376 -57.847  1.00  0.00     0.011 A 
HETATM   18  C   UNL     1     -37.313  38.924 -59.137  1.00  0.00     0.030 A 
HETATM   19  C   UNL     1     -37.144  39.825 -60.187  1.00  0.00     0.036 A 
HETATM   20  C   UNL     1     -37.302  41.193 -59.921  1.00  0.00     0.030 A 
HETATM   21  C   UNL     1     -37.605  41.650 -58.634  1.00  0.00     0.011 A 
BRANCH  19  22
HETATM   22  N   UNL     1     -36.830  39.476 -61.510  1.00  0.00    -0.303 N 
HETATM   23  C   UNL     1     -37.556  38.888 -62.512  1.00  0.00     0.364 C 
HETATM   24  O   UNL     1     -37.040  38.695 -63.607  1.00  0.00    -0.238 OA
HETATM   25  H   UNL     1     -35.889  39.672 -61.833  1.00  0.00     0.171 HD
BRANCH  23  26
HETATM   26  O   UNL     1     -38.826  38.541 -62.194  1.00  0.00    -0.309 OA
HETATM   27  C   UNL     1     -39.277  37.339 -62.822  1.00  0.00     0.215 C 
ENDBRANCH  23  26
ENDBRANCH  19  22
ENDBRANCH  15  16
ENDBRANCH   1  15
TORSDOF 6
ENDMDL
MODEL 8
REMARK VINA RESULT:      -6.7     14.638     16.505
REMARK  6 active torsions:
REMARK  status: ('A' for Active; 'I' for Inactive)
REMARK    1  A    between atoms: C_2  and  N_3 
REMARK    2  A    between atoms: C_2  and  C_18 
REMARK    3  A    between atoms: N_3  and  C_6 
REMARK    4  A    between atoms: C_6  and  C_7 
REMARK    5  A    between atoms: C_10  and  N_11 
REMARK       I    between atoms: N_11  and  C_12 
REMARK    6  A    between atoms: C_12  and  O_13 
ROOT
HETATM    1  N   UNL     1     -34.709  42.011 -53.243  1.00  0.00    -0.063 N 
HETATM    2  H   UNL     1     -34.342  42.857 -52.791  1.00  0.00     0.278 HD
HETATM    3  H   UNL     1     -34.210  41.959 -54.142  1.00  0.00     0.278 HD
ENDROOT
BRANCH   1   4
HETATM    4  C   UNL     1     -34.363  40.797 -52.434  1.00  0.00     0.216 C 
HETATM    5  C   UNL     1     -33.941  41.223 -51.028  1.00  0.00     0.045 C 
BRANCH   4   6
HETATM    6  C   UNL     1     -33.288  39.989 -53.120  1.00  0.00    -0.009 A 
HETATM    7  C   UNL     1     -32.777  38.847 -52.509  1.00  0.00     0.126 A 
HETATM    8  N   UNL     1     -31.844  38.032 -53.027  1.00  0.00    -0.259 NA
HETATM    9  C   UNL     1     -31.353  38.379 -54.247  1.00  0.00     0.074 A 
HETATM   10  C   UNL     1     -31.790  39.508 -54.935  1.00  0.00     0.034 A 
HETATM   11  C   UNL     1     -30.357  37.663 -54.971  1.00  0.00     0.040 A 
HETATM   12  S   UNL     1     -30.979  39.671 -56.442  1.00  0.00    -0.100 SA
HETATM   13  C   UNL     1     -32.774  40.340 -54.376  1.00  0.00     0.032 A 
HETATM   14  C   UNL     1     -30.060  38.253 -56.178  1.00  0.00     0.053 A 
ENDBRANCH   4   6
ENDBRANCH   1   4
BRANCH   1  15
HETATM   15  C   UNL     1     -36.153  42.217 -53.550  1.00  0.00     0.271 C 
BRANCH  15  16
HETATM   16  C   UNL     1     -36.427  41.900 -54.992  1.00  0.00    -0.033 A 
HETATM   17  C   UNL     1     -35.523  42.280 -55.991  1.00  0.00     0.011 A 
HETATM   18  C   UNL     1     -35.803  42.039 -57.343  1.00  0.00     0.030 A 
HETATM   19  C   UNL     1     -36.991  41.417 -57.725  1.00  0.00     0.036 A 
HETATM   20  C   UNL     1     -37.891  41.031 -56.723  1.00  0.00     0.030 A 
HETATM   21  C   UNL     1     -37.619  41.273 -55.372  1.00  0.00     0.011 A 
BRANCH  19  22
HETATM   22  N   UNL     1     -37.366  41.137 -59.049  1.00  0.00    -0.303 N 
HETATM   23  C   UNL     1     -37.035  40.126 -59.912  1.00  0.00     0.364 C 
HETATM   24  O   UNL     1     -37.518  40.103 -61.040  1.00  0.00    -0.238 OA
HETATM   25  H   UNL     1     -38.003  41.783 -59.500  1.00  0.00     0.171 HD
BRANCH  23  26
HETATM   26  O   UNL     1     -36.156  39.210 -59.440  1.00  0.00    -0.309 OA
HETATM   27  C   UNL     1     -36.757  37.975 -59.043  1.00  0.00     0.215 C 
ENDBRANCH  23  26
ENDBRANCH  19  22
ENDBRANCH  15  16
ENDBRANCH   1  15
TORSDOF 6
ENDMDL
MODEL 9
REMARK VINA RESULT:      -6.6      3.974      7.361
REMARK  6 active torsions:
REMARK  status: ('A' for Active; 'I' for Inactive)
REMARK    1  A    between atoms: C_2  and  N_3 
REMARK    2  A    between atoms: C_2  and  C_18 
REMARK    3  A    between atoms: N_3  and  C_6 
REMARK    4  A    between atoms: C_6  and  C_7 
REMARK    5  A    between atoms: C_10  and  N_11 
REMARK       I    between atoms: N_11  and  C_12 
REMARK    6  A    between atoms: C_12  and  O_13 
ROOT
HETATM    1  N   UNL     1     -43.920  56.674 -56.396  1.00  0.00    -0.063 N 
HETATM    2  H   UNL     1     -44.374  56.422 -55.509  1.00  0.00     0.278 HD
HETATM    3  H   UNL     1     -44.659  56.568 -57.105  1.00  0.00     0.278 HD
ENDROOT
BRANCH   1   4
HETATM    4  C   UNL     1     -43.486  58.109 -56.370  1.00  0.00     0.216 C 
HETATM    5  C   UNL     1     -42.253  58.285 -57.256  1.00  0.00     0.045 C 
BRANCH   4   6
HETATM    6  C   UNL     1     -43.225  58.560 -54.953  1.00  0.00    -0.009 A 
HETATM    7  C   UNL     1     -44.262  59.086 -54.186  1.00  0.00     0.126 A 
HETATM    8  N   UNL     1     -44.164  59.494 -52.911  1.00  0.00    -0.259 NA
HETATM    9  C   UNL     1     -42.934  59.396 -52.340  1.00  0.00     0.074 A 
HETATM   10  C   UNL     1     -41.830  58.895 -53.026  1.00  0.00     0.034 A 
HETATM   11  C   UNL     1     -42.608  59.777 -51.008  1.00  0.00     0.040 A 
HETATM   12  S   UNL     1     -40.426  58.901 -52.034  1.00  0.00    -0.100 SA
HETATM   13  C   UNL     1     -41.960  58.466 -54.358  1.00  0.00     0.032 A 
HETATM   14  C   UNL     1     -41.282  59.563 -50.710  1.00  0.00     0.053 A 
ENDBRANCH   4   6
ENDBRANCH   1   4
BRANCH   1  15
HETATM   15  C   UNL     1     -42.866  55.665 -56.701  1.00  0.00     0.271 C 
BRANCH  15  16
HETATM   16  C   UNL     1     -42.425  54.978 -55.441  1.00  0.00    -0.033 A 
HETATM   17  C   UNL     1     -43.296  54.855 -54.352  1.00  0.00     0.011 A 
HETATM   18  C   UNL     1     -42.869  54.267 -53.154  1.00  0.00     0.030 A 
HETATM   19  C   UNL     1     -41.565  53.794 -53.016  1.00  0.00     0.036 A 
HETATM   20  C   UNL     1     -40.697  53.912 -54.110  1.00  0.00     0.030 A 
HETATM   21  C   UNL     1     -41.116  54.502 -55.308  1.00  0.00     0.011 A 
BRANCH  19  22
HETATM   22  N   UNL     1     -41.041  53.196 -51.859  1.00  0.00    -0.303 N 
HETATM   23  C   UNL     1     -40.555  53.712 -50.687  1.00  0.00     0.364 C 
HETATM   24  O   UNL     1     -40.154  52.957 -49.807  1.00  0.00    -0.238 OA
HETATM   25  H   UNL     1     -40.984  52.184 -51.841  1.00  0.00     0.171 HD
BRANCH  23  26
HETATM   26  O   UNL     1     -40.541  55.064 -50.598  1.00  0.00    -0.309 OA
HETATM   27  C   UNL     1     -41.400  55.590 -49.584  1.00  0.00     0.215 C 
ENDBRANCH  23  26
ENDBRANCH  19  22
ENDBRANCH  15  16
ENDBRANCH   1  15
TORSDOF 6
ENDMDL
MODEL 10
REMARK VINA RESULT:      -6.6     14.877     17.799
REMARK  6 active torsions:
REMARK  status: ('A' for Active; 'I' for Inactive)
REMARK    1  A    between atoms: C_2  and  N_3 
REMARK    2  A    between atoms: C_2  and  C_18 
REMARK    3  A    between atoms: N_3  and  C_6 
REMARK    4  A    between atoms: C_6  and  C_7 
REMARK    5  A    between atoms: C_10  and  N_11 
REMARK       I    between atoms: N_11  and  C_12 
REMARK    6  A    between atoms: C_12  and  O_13 
ROOT
HETATM    1  N   UNL     1     -38.154  40.352 -58.881  1.00  0.00    -0.063 N 
HETATM    2  H   UNL     1     -38.957  40.687 -59.427  1.00  0.00     0.278 HD
HETATM    3  H   UNL     1     -38.521  40.232 -57.926  1.00  0.00     0.278 HD
ENDROOT
BRANCH   1   4
HETATM    4  C   UNL     1     -37.700  39.016 -59.388  1.00  0.00     0.216 C 
HETATM    5  C   UNL     1     -36.226  39.095 -59.786  1.00  0.00     0.045 C 
BRANCH   4   6
HETATM    6  C   UNL     1     -38.565  38.561 -60.538  1.00  0.00    -0.009 A 
HETATM    7  C   UNL     1     -38.036  38.491 -61.825  1.00  0.00     0.126 A 
HETATM    8  N   UNL     1     -38.693  38.077 -62.920  1.00  0.00    -0.259 NA
HETATM    9  C   UNL     1     -39.992  37.716 -62.743  1.00  0.00     0.074 A 
HETATM   10  C   UNL     1     -40.617  37.761 -61.498  1.00  0.00     0.034 A 
HETATM   11  C   UNL     1     -40.869  37.257 -63.765  1.00  0.00     0.040 A 
HETATM   12  S   UNL     1     -42.253  37.245 -61.605  1.00  0.00    -0.100 SA
HETATM   13  C   UNL     1     -39.906  38.190 -60.365  1.00  0.00     0.032 A 
HETATM   14  C   UNL     1     -42.127  36.966 -63.287  1.00  0.00     0.053 A 
ENDBRANCH   4   6
ENDBRANCH   1   4
BRANCH   1  15
HETATM   15  C   UNL     1     -37.125  41.428 -58.828  1.00  0.00     0.271 C 
BRANCH  15  16
HETATM   16  C   UNL     1     -36.690  41.662 -57.409  1.00  0.00    -0.033 A 
HETATM   17  C   UNL     1     -37.605  41.548 -56.355  1.00  0.00     0.011 A 
HETATM   18  C   UNL     1     -37.218  41.822 -55.036  1.00  0.00     0.030 A 
HETATM   19  C   UNL     1     -35.913  42.217 -54.743  1.00  0.00     0.036 A 
HETATM   20  C   UNL     1     -34.998  42.323 -55.799  1.00  0.00     0.030 A 
HETATM   21  C   UNL     1     -35.379  42.055 -57.119  1.00  0.00     0.011 A 
BRANCH  19  22
HETATM   22  N   UNL     1     -35.429  42.519 -53.460  1.00  0.00    -0.303 N 
HETATM   23  C   UNL     1     -35.077  41.735 -52.394  1.00  0.00     0.364 C 
HETATM   24  O   UNL     1     -34.664  42.256 -51.363  1.00  0.00    -0.238 OA
HETATM   25  H   UNL     1     -35.303  43.497 -53.227  1.00  0.00     0.171 HD
BRANCH  23  26
HETATM   26  O   UNL     1     -35.236  40.401 -52.564  1.00  0.00    -0.309 OA
HETATM   27  C   UNL     1     -34.009  39.678 -52.680  1.00  0.00     0.215 C 
ENDBRANCH  23  26
ENDBRANCH  19  22
ENDBRANCH  15  16
ENDBRANCH   1  15
TORSDOF 6
ENDMDL
