MODEL 1
REMARK VINA RESULT:      -8.9      0.000      0.000
REMARK  8 active torsions:
REMARK  status: ('A' for Active; 'I' for Inactive)
REMARK    1  A    between atoms: C_2  and  N_3 
REMARK       I    between atoms: N_3  and  C_4 
REMARK       I    between atoms: C_4  and  N_5 
REMARK    2  A    between atoms: N_5  and  C_6 
REMARK    3  A    between atoms: N_5  and  C_22 
REMARK    4  A    between atoms: C_6  and  C_7 
REMARK    5  A    between atoms: C_8  and  O_9 
REMARK    6  A    between atoms: C_22  and  C_23 
REMARK    7  A    between atoms: C_23  and  C_24 
REMARK    8  A    between atoms: C_24  and  N_25 
ROOT
HETATM    1  N   UNL     1     -41.266  54.627 -53.687  1.00  0.00    -0.309 N 
HETATM    2  C   UNL     1     -42.532  55.076 -53.405  1.00  0.00     0.323 C 
HETATM    3  N   UNL     1     -42.935  56.190 -54.148  1.00  0.00    -0.330 N 
HETATM    4  O   UNL     1     -43.306  54.550 -52.609  1.00  0.00    -0.247 OA
HETATM    5  H   UNL     1     -40.597  55.340 -53.938  1.00  0.00     0.170 HD
ENDROOT
BRANCH   3   6
HETATM    6  C   UNL     1     -44.243  56.770 -53.816  1.00  0.00     0.170 C 
BRANCH   6   7
HETATM    7  C   UNL     1     -44.163  57.880 -52.811  1.00  0.00     0.013 A 
HETATM    8  C   UNL     1     -44.618  57.738 -51.507  1.00  0.00     0.170 A 
HETATM    9  N   UNL     1     -44.656  58.727 -50.599  1.00  0.00    -0.224 NA
HETATM   10  C   UNL     1     -44.210  59.940 -50.959  1.00  0.00     0.072 A 
HETATM   11  C   UNL     1     -43.695  60.196 -52.248  1.00  0.00    -0.004 A 
HETATM   12  C   UNL     1     -44.259  60.983 -50.045  1.00  0.00     0.072 A 
HETATM   13  C   UNL     1     -43.671  59.139 -53.170  1.00  0.00     0.027 A 
HETATM   14  C   UNL     1     -43.249  61.484 -52.590  1.00  0.00     0.053 A 
HETATM   15  C   UNL     1     -43.329  62.517 -51.661  1.00  0.00     0.103 A 
HETATM   16  C   UNL     1     -43.815  62.262 -50.381  1.00  0.00     0.104 A 
HETATM   17  O   UNL     1     -42.914  63.755 -52.076  1.00  0.00    -0.346 OA
HETATM   18  O   UNL     1     -43.904  63.221 -49.405  1.00  0.00    -0.346 OA
HETATM   19  C   UNL     1     -43.145  64.388 -49.741  1.00  0.00     0.202 C 
HETATM   20  C   UNL     1     -43.378  64.782 -51.190  1.00  0.00     0.202 C 
BRANCH   8  21
HETATM   21  O   UNL     1     -45.105  56.548 -51.054  1.00  0.00    -0.344 OA
HETATM   22  H   UNL     1     -44.697  56.397 -50.175  1.00  0.00     0.219 HD
ENDBRANCH   8  21
ENDBRANCH   6   7
ENDBRANCH   3   6
BRANCH   3  23
HETATM   23  C   UNL     1     -42.285  56.641 -55.381  1.00  0.00     0.129 C 
BRANCH  23  24
HETATM   24  C   UNL     1     -42.720  55.847 -56.624  1.00  0.00     0.048 C 
BRANCH  24  25
HETATM   25  C   UNL     1     -43.161  56.745 -57.777  1.00  0.00     0.236 C 
BRANCH  25  26
HETATM   26  N   UNL     1     -44.314  56.130 -58.544  1.00  0.00    -0.067 N 
HETATM   27  H   UNL     1     -44.852  55.542 -57.892  1.00  0.00     0.280 HD
HETATM   28  C   UNL     1     -45.277  57.217 -59.043  1.00  0.00     0.261 C 
HETATM   29  C   UNL     1     -46.436  56.573 -59.809  1.00  0.00     0.195 C 
HETATM   30  O   UNL     1     -45.948  55.787 -60.901  1.00  0.00    -0.388 OA
HETATM   31  C   UNL     1     -45.113  54.718 -60.452  1.00  0.00     0.195 C 
HETATM   32  C   UNL     1     -43.879  55.256 -59.719  1.00  0.00     0.261 C 
ENDBRANCH  25  26
ENDBRANCH  24  25
ENDBRANCH  23  24
ENDBRANCH   3  23
BRANCH   1  33
HETATM   33  C   UNL     1     -40.704  53.385 -53.318  1.00  0.00     0.036 A 
HETATM   34  C   UNL     1     -40.239  53.097 -52.030  1.00  0.00     0.032 A 
HETATM   35  C   UNL     1     -39.726  51.831 -51.729  1.00  0.00     0.044 A 
HETATM   36  C   UNL     1     -39.691  50.851 -52.712  1.00  0.00     0.116 A 
HETATM   37  C   UNL     1     -40.156  51.114 -53.993  1.00  0.00     0.044 A 
HETATM   38  F   UNL     1     -39.211  49.636 -52.419  1.00  0.00    -0.206 F 
HETATM   39  C   UNL     1     -40.663  52.380 -54.297  1.00  0.00     0.032 A 
ENDBRANCH   1  33
TORSDOF 8
ENDMDL
MODEL 2
REMARK VINA RESULT:      -8.8      3.765      8.921
REMARK  8 active torsions:
REMARK  status: ('A' for Active; 'I' for Inactive)
REMARK    1  A    between atoms: C_2  and  N_3 
REMARK       I    between atoms: N_3  and  C_4 
REMARK       I    between atoms: C_4  and  N_5 
REMARK    2  A    between atoms: N_5  and  C_6 
REMARK    3  A    between atoms: N_5  and  C_22 
REMARK    4  A    between atoms: C_6  and  C_7 
REMARK    5  A    between atoms: C_8  and  O_9 
REMARK    6  A    between atoms: C_22  and  C_23 
REMARK    7  A    between atoms: C_23  and  C_24 
REMARK    8  A    between atoms: C_24  and  N_25 
ROOT
HETATM    1  N   UNL     1     -44.586  59.636 -50.419  1.00  0.00    -0.309 N 
HETATM    2  C   UNL     1     -43.340  59.416 -50.955  1.00  0.00     0.323 C 
HETATM    3  N   UNL     1     -43.226  58.237 -51.699  1.00  0.00    -0.330 N 
HETATM    4  O   UNL     1     -42.386  60.182 -50.858  1.00  0.00    -0.247 OA
HETATM    5  H   UNL     1     -45.093  58.808 -50.143  1.00  0.00     0.170 HD
ENDROOT
BRANCH   3   6
HETATM    6  C   UNL     1     -41.890  57.905 -52.212  1.00  0.00     0.170 C 
BRANCH   6   7
HETATM    7  C   UNL     1     -41.479  56.491 -51.928  1.00  0.00     0.013 A 
HETATM    8  C   UNL     1     -41.104  56.066 -50.661  1.00  0.00     0.170 A 
HETATM    9  N   UNL     1     -40.637  54.839 -50.375  1.00  0.00    -0.224 NA
HETATM   10  C   UNL     1     -40.539  53.946 -51.370  1.00  0.00     0.072 A 
HETATM   11  C   UNL     1     -40.921  54.255 -52.694  1.00  0.00    -0.004 A 
HETATM   12  C   UNL     1     -40.041  52.679 -51.103  1.00  0.00     0.072 A 
HETATM   13  C   UNL     1     -41.403  55.546 -52.956  1.00  0.00     0.027 A 
HETATM   14  C   UNL     1     -40.792  53.294 -53.711  1.00  0.00     0.053 A 
HETATM   15  C   UNL     1     -40.270  52.038 -53.420  1.00  0.00     0.103 A 
HETATM   16  C   UNL     1     -39.913  51.723 -52.111  1.00  0.00     0.104 A 
HETATM   17  O   UNL     1     -40.135  51.167 -54.468  1.00  0.00    -0.346 OA
HETATM   18  O   UNL     1     -39.413  50.501 -51.741  1.00  0.00    -0.346 OA
HETATM   19  C   UNL     1     -39.618  49.516 -52.761  1.00  0.00     0.202 C 
HETATM   20  C   UNL     1     -39.266  50.077 -54.129  1.00  0.00     0.202 C 
BRANCH   8  21
HETATM   21  O   UNL     1     -41.153  56.907 -49.590  1.00  0.00    -0.344 OA
HETATM   22  H   UNL     1     -41.885  56.588 -49.021  1.00  0.00     0.219 HD
ENDBRANCH   8  21
ENDBRANCH   6   7
ENDBRANCH   3   6
BRANCH   3  23
HETATM   23  C   UNL     1     -44.363  57.473 -52.218  1.00  0.00     0.129 C 
BRANCH  23  24
HETATM   24  C   UNL     1     -44.667  57.765 -53.698  1.00  0.00     0.048 C 
BRANCH  24  25
HETATM   25  C   UNL     1     -44.428  56.558 -54.601  1.00  0.00     0.236 C 
BRANCH  25  26
HETATM   26  N   UNL     1     -44.089  56.987 -56.014  1.00  0.00    -0.067 N 
HETATM   27  H   UNL     1     -44.967  57.041 -56.549  1.00  0.00     0.280 HD
HETATM   28  C   UNL     1     -43.488  58.400 -56.026  1.00  0.00     0.261 C 
HETATM   29  C   UNL     1     -43.160  58.814 -57.464  1.00  0.00     0.195 C 
HETATM   30  O   UNL     1     -42.264  57.876 -58.070  1.00  0.00    -0.388 OA
HETATM   31  C   UNL     1     -42.837  56.569 -58.143  1.00  0.00     0.195 C 
HETATM   32  C   UNL     1     -43.150  56.027 -56.743  1.00  0.00     0.261 C 
ENDBRANCH  25  26
ENDBRANCH  24  25
ENDBRANCH  23  24
ENDBRANCH   3  23
BRANCH   1  33
HETATM   33  C   UNL     1     -45.074  60.845 -49.877  1.00  0.00     0.036 A 
HETATM   34  C   UNL     1     -44.655  61.368 -48.649  1.00  0.00     0.032 A 
HETATM   35  C   UNL     1     -45.159  62.591 -48.191  1.00  0.00     0.044 A 
HETATM   36  C   UNL     1     -46.070  63.294 -48.968  1.00  0.00     0.116 A 
HETATM   37  C   UNL     1     -46.491  62.796 -50.193  1.00  0.00     0.044 A 
HETATM   38  F   UNL     1     -46.542  64.469 -48.534  1.00  0.00    -0.206 F 
HETATM   39  C   UNL     1     -45.993  61.572 -50.649  1.00  0.00     0.032 A 
ENDBRANCH   1  33
TORSDOF 8
ENDMDL
MODEL 3
REMARK VINA RESULT:      -8.8      2.950      6.801
REMARK  8 active torsions:
REMARK  status: ('A' for Active; 'I' for Inactive)
REMARK    1  A    between atoms: C_2  and  N_3 
REMARK       I    between atoms: N_3  and  C_4 
REMARK       I    between atoms: C_4  and  N_5 
REMARK    2  A    between atoms: N_5  and  C_6 
REMARK    3  A    between atoms: N_5  and  C_22 
REMARK    4  A    between atoms: C_6  and  C_7 
REMARK    5  A    between atoms: C_8  and  O_9 
REMARK    6  A    between atoms: C_22  and  C_23 
REMARK    7  A    between atoms: C_23  and  C_24 
REMARK    8  A    between atoms: C_24  and  N_25 
ROOT
HETATM    1  N   UNL     1     -40.954  54.205 -53.192  1.00  0.00    -0.309 N 
HETATM    2  C   UNL     1     -42.069  54.690 -53.829  1.00  0.00     0.323 C 
HETATM    3  N   UNL     1     -42.093  56.080 -53.987  1.00  0.00    -0.330 N 
HETATM    4  O   UNL     1     -42.977  53.999 -54.284  1.00  0.00    -0.247 OA
HETATM    5  H   UNL     1     -40.564  54.805 -52.479  1.00  0.00     0.170 HD
ENDROOT
BRANCH   3   6
HETATM    6  C   UNL     1     -43.309  56.658 -54.574  1.00  0.00     0.170 C 
BRANCH   6   7
HETATM    7  C   UNL     1     -43.114  57.153 -55.977  1.00  0.00     0.013 A 
HETATM    8  C   UNL     1     -43.147  56.305 -57.075  1.00  0.00     0.170 A 
HETATM    9  N   UNL     1     -42.884  56.680 -58.338  1.00  0.00    -0.224 NA
HETATM   10  C   UNL     1     -42.584  57.967 -58.571  1.00  0.00     0.072 A 
HETATM   11  C   UNL     1     -42.551  58.927 -57.537  1.00  0.00    -0.004 A 
HETATM   12  C   UNL     1     -42.289  58.375 -59.864  1.00  0.00     0.072 A 
HETATM   13  C   UNL     1     -42.830  58.498 -56.230  1.00  0.00     0.027 A 
HETATM   14  C   UNL     1     -42.221  60.263 -57.820  1.00  0.00     0.053 A 
HETATM   15  C   UNL     1     -41.908  60.641 -59.122  1.00  0.00     0.103 A 
HETATM   16  C   UNL     1     -41.962  59.700 -60.149  1.00  0.00     0.104 A 
HETATM   17  O   UNL     1     -41.555  61.950 -59.318  1.00  0.00    -0.346 OA
HETATM   18  O   UNL     1     -41.689  60.001 -61.459  1.00  0.00    -0.346 OA
HETATM   19  C   UNL     1     -41.680  61.415 -61.685  1.00  0.00     0.202 C 
HETATM   20  C   UNL     1     -40.912  62.130 -60.587  1.00  0.00     0.202 C 
BRANCH   8  21
HETATM   21  O   UNL     1     -43.426  54.978 -56.936  1.00  0.00    -0.344 OA
HETATM   22  H   UNL     1     -42.572  54.532 -56.755  1.00  0.00     0.219 HD
ENDBRANCH   8  21
ENDBRANCH   6   7
ENDBRANCH   3   6
BRANCH   3  23
HETATM   23  C   UNL     1     -40.919  56.946 -53.862  1.00  0.00     0.129 C 
BRANCH  23  24
HETATM   24  C   UNL     1     -41.054  57.997 -52.746  1.00  0.00     0.048 C 
BRANCH  24  25
HETATM   25  C   UNL     1     -41.622  57.418 -51.453  1.00  0.00     0.236 C 
BRANCH  25  26
HETATM   26  N   UNL     1     -42.800  58.230 -50.957  1.00  0.00    -0.067 N 
HETATM   27  H   UNL     1     -42.745  58.278 -49.930  1.00  0.00     0.280 HD
HETATM   28  C   UNL     1     -42.717  59.677 -51.462  1.00  0.00     0.261 C 
HETATM   29  C   UNL     1     -43.913  60.480 -50.944  1.00  0.00     0.195 C 
HETATM   30  O   UNL     1     -45.145  59.872 -51.348  1.00  0.00    -0.388 OA
HETATM   31  C   UNL     1     -45.281  58.551 -50.820  1.00  0.00     0.195 C 
HETATM   32  C   UNL     1     -44.159  57.638 -51.329  1.00  0.00     0.261 C 
ENDBRANCH  25  26
ENDBRANCH  24  25
ENDBRANCH  23  24
ENDBRANCH   3  23
BRANCH   1  33
HETATM   33  C   UNL     1     -40.521  52.862 -53.143  1.00  0.00     0.036 A 
HETATM   34  C   UNL     1     -40.452  52.029 -54.266  1.00  0.00     0.032 A 
HETATM   35  C   UNL     1     -39.980  50.718 -54.146  1.00  0.00     0.044 A 
HETATM   36  C   UNL     1     -39.566  50.246 -52.908  1.00  0.00     0.116 A 
HETATM   37  C   UNL     1     -39.618  51.059 -51.784  1.00  0.00     0.044 A 
HETATM   38  F   UNL     1     -39.104  48.994 -52.797  1.00  0.00    -0.206 F 
HETATM   39  C   UNL     1     -40.095  52.367 -51.901  1.00  0.00     0.032 A 
ENDBRANCH   1  33
TORSDOF 8
ENDMDL
MODEL 4
REMARK VINA RESULT:      -8.5      2.917      9.108
REMARK  8 active torsions:
REMARK  status: ('A' for Active; 'I' for Inactive)
REMARK    1  A    between atoms: C_2  and  N_3 
REMARK       I    between atoms: N_3  and  C_4 
REMARK       I    between atoms: C_4  and  N_5 
REMARK    2  A    between atoms: N_5  and  C_6 
REMARK    3  A    between atoms: N_5  and  C_22 
REMARK    4  A    between atoms: C_6  and  C_7 
REMARK    5  A    between atoms: C_8  and  O_9 
REMARK    6  A    between atoms: C_22  and  C_23 
REMARK    7  A    between atoms: C_23  and  C_24 
REMARK    8  A    between atoms: C_24  and  N_25 
ROOT
HETATM    1  N   UNL     1     -44.319  57.225 -56.909  1.00  0.00    -0.309 N 
HETATM    2  C   UNL     1     -43.152  57.240 -56.186  1.00  0.00     0.323 C 
HETATM    3  N   UNL     1     -43.313  57.510 -54.823  1.00  0.00    -0.330 N 
HETATM    4  O   UNL     1     -42.037  56.998 -56.642  1.00  0.00    -0.247 OA
HETATM    5  H   UNL     1     -45.032  57.869 -56.598  1.00  0.00     0.170 HD
ENDROOT
BRANCH   3   6
HETATM    6  C   UNL     1     -42.087  57.635 -54.024  1.00  0.00     0.170 C 
BRANCH   6   7
HETATM    7  C   UNL     1     -41.664  56.348 -53.379  1.00  0.00     0.013 A 
HETATM    8  C   UNL     1     -41.380  56.254 -52.023  1.00  0.00     0.170 A 
HETATM    9  N   UNL     1     -40.907  55.153 -51.417  1.00  0.00    -0.224 NA
HETATM   10  C   UNL     1     -40.707  54.053 -52.158  1.00  0.00     0.072 A 
HETATM   11  C   UNL     1     -40.989  54.021 -53.541  1.00  0.00    -0.004 A 
HETATM   12  C   UNL     1     -40.199  52.910 -51.558  1.00  0.00     0.072 A 
HETATM   13  C   UNL     1     -41.481  55.190 -54.141  1.00  0.00     0.027 A 
HETATM   14  C   UNL     1     -40.754  52.852 -54.285  1.00  0.00     0.053 A 
HETATM   15  C   UNL     1     -40.225  51.726 -53.662  1.00  0.00     0.103 A 
HETATM   16  C   UNL     1     -39.966  51.748 -52.294  1.00  0.00     0.104 A 
HETATM   17  O   UNL     1     -39.983  50.637 -54.457  1.00  0.00    -0.346 OA
HETATM   18  O   UNL     1     -39.466  50.672 -51.606  1.00  0.00    -0.346 OA
HETATM   19  C   UNL     1     -39.563  49.465 -52.370  1.00  0.00     0.202 C 
HETATM   20  C   UNL     1     -39.117  49.699 -53.804  1.00  0.00     0.202 C 
BRANCH   8  21
HETATM   21  O   UNL     1     -41.537  57.323 -51.192  1.00  0.00    -0.344 OA
HETATM   22  H   UNL     1     -40.926  58.018 -51.515  1.00  0.00     0.219 HD
ENDBRANCH   8  21
ENDBRANCH   6   7
ENDBRANCH   3   6
BRANCH   3  23
HETATM   23  C   UNL     1     -44.586  57.410 -54.105  1.00  0.00     0.129 C 
BRANCH  23  24
HETATM   24  C   UNL     1     -44.816  58.562 -53.113  1.00  0.00     0.048 C 
BRANCH  24  25
HETATM   25  C   UNL     1     -44.843  58.098 -51.660  1.00  0.00     0.236 C 
BRANCH  25  26
HETATM   26  N   UNL     1     -44.309  59.167 -50.729  1.00  0.00    -0.067 N 
HETATM   27  H   UNL     1     -43.775  58.701 -49.982  1.00  0.00     0.280 HD
HETATM   28  C   UNL     1     -43.318  60.082 -51.463  1.00  0.00     0.261 C 
HETATM   29  C   UNL     1     -42.787  61.150 -50.502  1.00  0.00     0.195 C 
HETATM   30  O   UNL     1     -43.863  61.912 -49.946  1.00  0.00    -0.388 OA
HETATM   31  C   UNL     1     -44.756  61.091 -49.189  1.00  0.00     0.195 C 
HETATM   32  C   UNL     1     -45.397  60.017 -50.074  1.00  0.00     0.261 C 
ENDBRANCH  25  26
ENDBRANCH  24  25
ENDBRANCH  23  24
ENDBRANCH   3  23
BRANCH   1  33
HETATM   33  C   UNL     1     -44.504  56.714 -58.212  1.00  0.00     0.036 A 
HETATM   34  C   UNL     1     -43.748  55.664 -58.747  1.00  0.00     0.032 A 
HETATM   35  C   UNL     1     -44.012  55.189 -60.036  1.00  0.00     0.044 A 
HETATM   36  C   UNL     1     -45.037  55.753 -60.782  1.00  0.00     0.116 A 
HETATM   37  C   UNL     1     -45.804  56.789 -60.266  1.00  0.00     0.044 A 
HETATM   38  F   UNL     1     -45.295  55.288 -62.011  1.00  0.00    -0.206 F 
HETATM   39  C   UNL     1     -45.538  57.269 -58.981  1.00  0.00     0.032 A 
ENDBRANCH   1  33
TORSDOF 8
ENDMDL
MODEL 5
REMARK VINA RESULT:      -8.5      1.829      2.391
REMARK  8 active torsions:
REMARK  status: ('A' for Active; 'I' for Inactive)
REMARK    1  A    between atoms: C_2  and  N_3 
REMARK       I    between atoms: N_3  and  C_4 
REMARK       I    between atoms: C_4  and  N_5 
REMARK    2  A    between atoms: N_5  and  C_6 
REMARK    3  A    between atoms: N_5  and  C_22 
REMARK    4  A    between atoms: C_6  and  C_7 
REMARK    5  A    between atoms: C_8  and  O_9 
REMARK    6  A    between atoms: C_22  and  C_23 
REMARK    7  A    between atoms: C_23  and  C_24 
REMARK    8  A    between atoms: C_24  and  N_25 
ROOT
HETATM    1  N   UNL     1     -41.386  55.225 -53.631  1.00  0.00    -0.309 N 
HETATM    2  C   UNL     1     -42.733  55.441 -53.792  1.00  0.00     0.323 C 
HETATM    3  N   UNL     1     -43.057  56.498 -54.648  1.00  0.00    -0.330 N 
HETATM    4  O   UNL     1     -43.621  54.761 -53.284  1.00  0.00    -0.247 OA
HETATM    5  H   UNL     1     -40.807  56.051 -53.662  1.00  0.00     0.170 HD
ENDROOT
BRANCH   3   6
HETATM    6  C   UNL     1     -44.481  56.833 -54.777  1.00  0.00     0.170 C 
BRANCH   6   7
HETATM    7  C   UNL     1     -44.877  58.052 -53.998  1.00  0.00     0.013 A 
HETATM    8  C   UNL     1     -45.059  59.291 -54.597  1.00  0.00     0.170 A 
HETATM    9  N   UNL     1     -45.320  60.429 -53.933  1.00  0.00    -0.224 NA
HETATM   10  C   UNL     1     -45.432  60.377 -52.597  1.00  0.00     0.072 A 
HETATM   11  C   UNL     1     -45.298  59.167 -51.882  1.00  0.00    -0.004 A 
HETATM   12  C   UNL     1     -45.680  61.543 -51.888  1.00  0.00     0.072 A 
HETATM   13  C   UNL     1     -45.026  57.998 -52.609  1.00  0.00     0.027 A 
HETATM   14  C   UNL     1     -45.411  59.156 -50.481  1.00  0.00     0.053 A 
HETATM   15  C   UNL     1     -45.639  60.343 -49.792  1.00  0.00     0.103 A 
HETATM   16  C   UNL     1     -45.794  61.535 -50.498  1.00  0.00     0.104 A 
HETATM   17  O   UNL     1     -45.697  60.264 -48.426  1.00  0.00    -0.346 OA
HETATM   18  O   UNL     1     -46.043  62.740 -49.892  1.00  0.00    -0.346 OA
HETATM   19  C   UNL     1     -46.450  62.572 -48.529  1.00  0.00     0.202 C 
HETATM   20  C   UNL     1     -45.564  61.559 -47.824  1.00  0.00     0.202 C 
BRANCH   8  21
HETATM   21  O   UNL     1     -44.949  59.447 -55.946  1.00  0.00    -0.344 OA
HETATM   22  H   UNL     1     -45.461  60.251 -56.176  1.00  0.00     0.219 HD
ENDBRANCH   8  21
ENDBRANCH   6   7
ENDBRANCH   3   6
BRANCH   3  23
HETATM   23  C   UNL     1     -42.126  57.101 -55.606  1.00  0.00     0.129 C 
BRANCH  23  24
HETATM   24  C   UNL     1     -42.694  57.186 -57.033  1.00  0.00     0.048 C 
BRANCH  24  25
HETATM   25  C   UNL     1     -42.873  55.818 -57.684  1.00  0.00     0.236 C 
BRANCH  25  26
HETATM   26  N   UNL     1     -44.167  55.746 -58.468  1.00  0.00    -0.067 N 
HETATM   27  H   UNL     1     -44.854  55.229 -57.902  1.00  0.00     0.280 HD
HETATM   28  C   UNL     1     -44.752  57.148 -58.685  1.00  0.00     0.261 C 
HETATM   29  C   UNL     1     -46.060  57.050 -59.474  1.00  0.00     0.195 C 
HETATM   30  O   UNL     1     -45.850  56.390 -60.727  1.00  0.00    -0.388 OA
HETATM   31  C   UNL     1     -45.381  55.051 -60.546  1.00  0.00     0.195 C 
HETATM   32  C   UNL     1     -44.034  55.035 -59.815  1.00  0.00     0.261 C 
ENDBRANCH  25  26
ENDBRANCH  24  25
ENDBRANCH  23  24
ENDBRANCH   3  23
BRANCH   1  33
HETATM   33  C   UNL     1     -40.771  54.084 -53.072  1.00  0.00     0.036 A 
HETATM   34  C   UNL     1     -40.538  53.921 -51.702  1.00  0.00     0.032 A 
HETATM   35  C   UNL     1     -39.954  52.746 -51.218  1.00  0.00     0.044 A 
HETATM   36  C   UNL     1     -39.615  51.731 -52.102  1.00  0.00     0.116 A 
HETATM   37  C   UNL     1     -39.845  51.870 -53.464  1.00  0.00     0.044 A 
HETATM   38  F   UNL     1     -39.066  50.602 -51.636  1.00  0.00    -0.206 F 
HETATM   39  C   UNL     1     -40.424  53.045 -53.950  1.00  0.00     0.032 A 
ENDBRANCH   1  33
TORSDOF 8
ENDMDL
MODEL 6
REMARK VINA RESULT:      -8.4      2.547      7.617
REMARK  8 active torsions:
REMARK  status: ('A' for Active; 'I' for Inactive)
REMARK    1  A    between atoms: C_2  and  N_3 
REMARK       I    between atoms: N_3  and  C_4 
REMARK       I    between atoms: C_4  and  N_5 
REMARK    2  A    between atoms: N_5  and  C_6 
REMARK    3  A    between atoms: N_5  and  C_22 
REMARK    4  A    between atoms: C_6  and  C_7 
REMARK    5  A    between atoms: C_8  and  O_9 
REMARK    6  A    between atoms: C_22  and  C_23 
REMARK    7  A    between atoms: C_23  and  C_24 
REMARK    8  A    between atoms: C_24  and  N_25 
ROOT
HETATM    1  N   UNL     1     -42.392  54.330 -53.928  1.00  0.00    -0.309 N 
HETATM    2  C   UNL     1     -42.099  55.431 -54.695  1.00  0.00     0.323 C 
HETATM    3  N   UNL     1     -43.148  56.346 -54.828  1.00  0.00    -0.330 N 
HETATM    4  O   UNL     1     -41.006  55.664 -55.205  1.00  0.00    -0.247 OA
HETATM    5  H   UNL     1     -43.346  54.005 -53.980  1.00  0.00     0.170 HD
ENDROOT
BRANCH   3   6
HETATM    6  C   UNL     1     -42.919  57.491 -55.718  1.00  0.00     0.170 C 
BRANCH   6   7
HETATM    7  C   UNL     1     -43.812  57.496 -56.923  1.00  0.00     0.013 A 
HETATM    8  C   UNL     1     -43.562  56.707 -58.037  1.00  0.00     0.170 A 
HETATM    9  N   UNL     1     -44.274  56.746 -59.175  1.00  0.00    -0.224 NA
HETATM   10  C   UNL     1     -45.315  57.589 -59.248  1.00  0.00     0.072 A 
HETATM   11  C   UNL     1     -45.684  58.417 -58.166  1.00  0.00    -0.004 A 
HETATM   12  C   UNL     1     -46.053  57.661 -60.420  1.00  0.00     0.072 A 
HETATM   13  C   UNL     1     -44.917  58.351 -56.993  1.00  0.00     0.027 A 
HETATM   14  C   UNL     1     -46.775  59.295 -58.286  1.00  0.00     0.053 A 
HETATM   15  C   UNL     1     -47.485  59.363 -59.480  1.00  0.00     0.103 A 
HETATM   16  C   UNL     1     -47.137  58.530 -60.542  1.00  0.00     0.104 A 
HETATM   17  O   UNL     1     -48.509  60.271 -59.539  1.00  0.00    -0.346 OA
HETATM   18  O   UNL     1     -47.802  58.523 -61.741  1.00  0.00    -0.346 OA
HETATM   19  C   UNL     1     -49.061  59.201 -61.651  1.00  0.00     0.202 C 
HETATM   20  C   UNL     1     -48.913  60.511 -60.895  1.00  0.00     0.202 C 
BRANCH   8  21
HETATM   21  O   UNL     1     -42.517  55.833 -58.064  1.00  0.00    -0.344 OA
HETATM   22  H   UNL     1     -42.908  54.935 -58.107  1.00  0.00     0.219 HD
ENDBRANCH   8  21
ENDBRANCH   6   7
ENDBRANCH   3   6
BRANCH   3  23
HETATM   23  C   UNL     1     -44.326  56.385 -53.958  1.00  0.00     0.129 C 
BRANCH  23  24
HETATM   24  C   UNL     1     -44.400  57.654 -53.091  1.00  0.00     0.048 C 
BRANCH  24  25
HETATM   25  C   UNL     1     -44.365  57.354 -51.596  1.00  0.00     0.236 C 
BRANCH  25  26
HETATM   26  N   UNL     1     -43.148  57.972 -50.938  1.00  0.00    -0.067 N 
HETATM   27  H   UNL     1     -43.277  57.922 -49.918  1.00  0.00     0.280 HD
HETATM   28  C   UNL     1     -41.885  57.160 -51.255  1.00  0.00     0.261 C 
HETATM   29  C   UNL     1     -40.670  57.800 -50.576  1.00  0.00     0.195 C 
HETATM   30  O   UNL     1     -40.515  59.161 -50.992  1.00  0.00    -0.388 OA
HETATM   31  C   UNL     1     -41.648  59.955 -50.633  1.00  0.00     0.195 C 
HETATM   32  C   UNL     1     -42.920  59.436 -51.313  1.00  0.00     0.261 C 
ENDBRANCH  25  26
ENDBRANCH  24  25
ENDBRANCH  23  24
ENDBRANCH   3  23
BRANCH   1  33
HETATM   33  C   UNL     1     -41.474  53.402 -53.390  1.00  0.00     0.036 A 
HETATM   34  C   UNL     1     -40.837  52.413 -54.149  1.00  0.00     0.032 A 
HETATM   35  C   UNL     1     -39.912  51.550 -53.553  1.00  0.00     0.044 A 
HETATM   36  C   UNL     1     -39.615  51.684 -52.203  1.00  0.00     0.116 A 
HETATM   37  C   UNL     1     -40.229  52.664 -51.436  1.00  0.00     0.044 A 
HETATM   38  F   UNL     1     -38.721  50.865 -51.637  1.00  0.00    -0.206 F 
HETATM   39  C   UNL     1     -41.158  53.524 -52.028  1.00  0.00     0.032 A 
ENDBRANCH   1  33
TORSDOF 8
ENDMDL
MODEL 7
REMARK VINA RESULT:      -8.3      3.711      9.060
REMARK  8 active torsions:
REMARK  status: ('A' for Active; 'I' for Inactive)
REMARK    1  A    between atoms: C_2  and  N_3 
REMARK       I    between atoms: N_3  and  C_4 
REMARK       I    between atoms: C_4  and  N_5 
REMARK    2  A    between atoms: N_5  and  C_6 
REMARK    3  A    between atoms: N_5  and  C_22 
REMARK    4  A    between atoms: C_6  and  C_7 
REMARK    5  A    between atoms: C_8  and  O_9 
REMARK    6  A    between atoms: C_22  and  C_23 
REMARK    7  A    between atoms: C_23  and  C_24 
REMARK    8  A    between atoms: C_24  and  N_25 
ROOT
HETATM    1  N   UNL     1     -42.131  58.871 -56.282  1.00  0.00    -0.309 N 
HETATM    2  C   UNL     1     -42.886  58.207 -55.346  1.00  0.00     0.323 C 
HETATM    3  N   UNL     1     -42.414  58.314 -54.034  1.00  0.00    -0.330 N 
HETATM    4  O   UNL     1     -43.924  57.595 -55.583  1.00  0.00    -0.247 OA
HETATM    5  H   UNL     1     -41.138  58.901 -56.098  1.00  0.00     0.170 HD
ENDROOT
BRANCH   3   6
HETATM    6  C   UNL     1     -43.129  57.542 -53.009  1.00  0.00     0.170 C 
BRANCH   6   7
HETATM    7  C   UNL     1     -42.421  56.280 -52.614  1.00  0.00     0.013 A 
HETATM    8  C   UNL     1     -41.767  56.144 -51.396  1.00  0.00     0.170 A 
HETATM    9  N   UNL     1     -41.040  55.074 -51.035  1.00  0.00    -0.224 NA
HETATM   10  C   UNL     1     -40.944  54.049 -51.895  1.00  0.00     0.072 A 
HETATM   11  C   UNL     1     -41.592  54.061 -53.150  1.00  0.00    -0.004 A 
HETATM   12  C   UNL     1     -40.181  52.942 -51.554  1.00  0.00     0.072 A 
HETATM   13  C   UNL     1     -42.342  55.196 -53.493  1.00  0.00     0.027 A 
HETATM   14  C   UNL     1     -41.457  52.972 -54.027  1.00  0.00     0.053 A 
HETATM   15  C   UNL     1     -40.669  51.883 -53.668  1.00  0.00     0.103 A 
HETATM   16  C   UNL     1     -40.047  51.859 -52.422  1.00  0.00     0.104 A 
HETATM   17  O   UNL     1     -40.550  50.876 -54.590  1.00  0.00    -0.346 OA
HETATM   18  O   UNL     1     -39.273  50.812 -51.988  1.00  0.00    -0.346 OA
HETATM   19  C   UNL     1     -39.459  49.647 -52.800  1.00  0.00     0.202 C 
HETATM   20  C   UNL     1     -39.449  50.011 -54.274  1.00  0.00     0.202 C 
BRANCH   8  21
HETATM   21  O   UNL     1     -41.793  57.139 -50.465  1.00  0.00    -0.344 OA
HETATM   22  H   UNL     1     -41.710  57.983 -50.958  1.00  0.00     0.219 HD
ENDBRANCH   8  21
ENDBRANCH   6   7
ENDBRANCH   3   6
BRANCH   3  23
HETATM   23  C   UNL     1     -41.454  59.323 -53.580  1.00  0.00     0.129 C 
BRANCH  23  24
HETATM   24  C   UNL     1     -41.926  60.094 -52.335  1.00  0.00     0.048 C 
BRANCH  24  25
HETATM   25  C   UNL     1     -42.824  61.279 -52.677  1.00  0.00     0.236 C 
BRANCH  25  26
HETATM   26  N   UNL     1     -44.143  61.203 -51.935  1.00  0.00    -0.067 N 
HETATM   27  H   UNL     1     -44.502  62.161 -51.823  1.00  0.00     0.280 HD
HETATM   28  C   UNL     1     -45.190  60.442 -52.761  1.00  0.00     0.261 C 
HETATM   29  C   UNL     1     -46.514  60.383 -51.995  1.00  0.00     0.195 C 
HETATM   30  O   UNL     1     -46.333  59.767 -50.716  1.00  0.00    -0.388 OA
HETATM   31  C   UNL     1     -45.422  60.504 -49.898  1.00  0.00     0.195 C 
HETATM   32  C   UNL     1     -44.035  60.574 -50.546  1.00  0.00     0.261 C 
ENDBRANCH  25  26
ENDBRANCH  24  25
ENDBRANCH  23  24
ENDBRANCH   3  23
BRANCH   1  33
HETATM   33  C   UNL     1     -42.503  59.177 -57.609  1.00  0.00     0.036 A 
HETATM   34  C   UNL     1     -43.286  60.283 -57.959  1.00  0.00     0.032 A 
HETATM   35  C   UNL     1     -43.585  60.542 -59.300  1.00  0.00     0.044 A 
HETATM   36  C   UNL     1     -43.091  59.704 -60.290  1.00  0.00     0.116 A 
HETATM   37  C   UNL     1     -42.306  58.607 -59.965  1.00  0.00     0.044 A 
HETATM   38  F   UNL     1     -43.370  59.960 -61.575  1.00  0.00    -0.206 F 
HETATM   39  C   UNL     1     -42.010  58.343 -58.625  1.00  0.00     0.032 A 
ENDBRANCH   1  33
TORSDOF 8
ENDMDL
MODEL 8
REMARK VINA RESULT:      -8.2      2.606      7.652
REMARK  8 active torsions:
REMARK  status: ('A' for Active; 'I' for Inactive)
REMARK    1  A    between atoms: C_2  and  N_3 
REMARK       I    between atoms: N_3  and  C_4 
REMARK       I    between atoms: C_4  and  N_5 
REMARK    2  A    between atoms: N_5  and  C_6 
REMARK    3  A    between atoms: N_5  and  C_22 
REMARK    4  A    between atoms: C_6  and  C_7 
REMARK    5  A    between atoms: C_8  and  O_9 
REMARK    6  A    between atoms: C_22  and  C_23 
REMARK    7  A    between atoms: C_23  and  C_24 
REMARK    8  A    between atoms: C_24  and  N_25 
ROOT
HETATM    1  N   UNL     1     -42.116  54.281 -54.036  1.00  0.00    -0.309 N 
HETATM    2  C   UNL     1     -41.701  55.451 -54.624  1.00  0.00     0.323 C 
HETATM    3  N   UNL     1     -42.717  56.388 -54.841  1.00  0.00    -0.330 N 
HETATM    4  O   UNL     1     -40.538  55.721 -54.912  1.00  0.00    -0.247 OA
HETATM    5  H   UNL     1     -43.046  53.976 -54.285  1.00  0.00     0.170 HD
ENDROOT
BRANCH   3   6
HETATM    6  C   UNL     1     -42.343  57.615 -55.556  1.00  0.00     0.170 C 
BRANCH   6   7
HETATM    7  C   UNL     1     -43.365  58.050 -56.563  1.00  0.00     0.013 A 
HETATM    8  C   UNL     1     -43.969  59.299 -56.519  1.00  0.00     0.170 A 
HETATM    9  N   UNL     1     -44.955  59.700 -57.338  1.00  0.00    -0.224 NA
HETATM   10  C   UNL     1     -45.386  58.850 -58.281  1.00  0.00     0.072 A 
HETATM   11  C   UNL     1     -44.826  57.564 -58.442  1.00  0.00    -0.004 A 
HETATM   12  C   UNL     1     -46.418  59.233 -59.125  1.00  0.00     0.072 A 
HETATM   13  C   UNL     1     -43.797  57.179 -57.569  1.00  0.00     0.027 A 
HETATM   14  C   UNL     1     -45.313  56.698 -59.436  1.00  0.00     0.053 A 
HETATM   15  C   UNL     1     -46.363  57.100 -60.255  1.00  0.00     0.103 A 
HETATM   16  C   UNL     1     -46.903  58.376 -60.113  1.00  0.00     0.104 A 
HETATM   17  O   UNL     1     -46.814  56.189 -61.174  1.00  0.00    -0.346 OA
HETATM   18  O   UNL     1     -47.923  58.853 -60.897  1.00  0.00    -0.346 OA
HETATM   19  C   UNL     1     -48.123  58.036 -62.057  1.00  0.00     0.202 C 
HETATM   20  C   UNL     1     -48.100  56.563 -61.688  1.00  0.00     0.202 C 
BRANCH   8  21
HETATM   21  O   UNL     1     -43.610  60.225 -55.585  1.00  0.00    -0.344 OA
HETATM   22  H   UNL     1     -43.673  59.779 -54.714  1.00  0.00     0.219 HD
ENDBRANCH   8  21
ENDBRANCH   6   7
ENDBRANCH   3   6
BRANCH   3  23
HETATM   23  C   UNL     1     -44.027  56.352 -54.187  1.00  0.00     0.129 C 
BRANCH  23  24
HETATM   24  C   UNL     1     -44.305  57.589 -53.315  1.00  0.00     0.048 C 
BRANCH  24  25
HETATM   25  C   UNL     1     -44.422  57.253 -51.831  1.00  0.00     0.236 C 
BRANCH  25  26
HETATM   26  N   UNL     1     -43.238  57.787 -51.051  1.00  0.00    -0.067 N 
HETATM   27  H   UNL     1     -43.502  57.825 -50.056  1.00  0.00     0.280 HD
HETATM   28  C   UNL     1     -42.045  56.826 -51.144  1.00  0.00     0.261 C 
HETATM   29  C   UNL     1     -40.863  57.383 -50.345  1.00  0.00     0.195 C 
HETATM   30  O   UNL     1     -40.502  58.686 -50.814  1.00  0.00    -0.388 OA
HETATM   31  C   UNL     1     -41.574  59.619 -50.661  1.00  0.00     0.195 C 
HETATM   32  C   UNL     1     -42.798  59.188 -51.476  1.00  0.00     0.261 C 
ENDBRANCH  25  26
ENDBRANCH  24  25
ENDBRANCH  23  24
ENDBRANCH   3  23
BRANCH   1  33
HETATM   33  C   UNL     1     -41.299  53.292 -53.447  1.00  0.00     0.036 A 
HETATM   34  C   UNL     1     -40.734  52.228 -54.159  1.00  0.00     0.032 A 
HETATM   35  C   UNL     1     -39.906  51.304 -53.513  1.00  0.00     0.044 A 
HETATM   36  C   UNL     1     -39.634  51.452 -52.160  1.00  0.00     0.116 A 
HETATM   37  C   UNL     1     -40.179  52.505 -51.437  1.00  0.00     0.044 A 
HETATM   38  F   UNL     1     -38.832  50.574 -51.545  1.00  0.00    -0.206 F 
HETATM   39  C   UNL     1     -41.010  53.426 -52.080  1.00  0.00     0.032 A 
ENDBRANCH   1  33
TORSDOF 8
ENDMDL
MODEL 9
REMARK VINA RESULT:      -8.0      2.063      7.054
REMARK  8 active torsions:
REMARK  status: ('A' for Active; 'I' for Inactive)
REMARK    1  A    between atoms: C_2  and  N_3 
REMARK       I    between atoms: N_3  and  C_4 
REMARK       I    between atoms: C_4  and  N_5 
REMARK    2  A    between atoms: N_5  and  C_6 
REMARK    3  A    between atoms: N_5  and  C_22 
REMARK    4  A    between atoms: C_6  and  C_7 
REMARK    5  A    between atoms: C_8  and  O_9 
REMARK    6  A    between atoms: C_22  and  C_23 
REMARK    7  A    between atoms: C_23  and  C_24 
REMARK    8  A    between atoms: C_24  and  N_25 
ROOT
HETATM    1  N   UNL     1     -41.412  54.175 -53.167  1.00  0.00    -0.309 N 
HETATM    2  C   UNL     1     -40.914  55.321 -53.739  1.00  0.00     0.323 C 
HETATM    3  N   UNL     1     -41.484  56.506 -53.263  1.00  0.00    -0.330 N 
HETATM    4  O   UNL     1     -40.010  55.358 -54.570  1.00  0.00    -0.247 OA
HETATM    5  H   UNL     1     -42.389  54.204 -52.914  1.00  0.00     0.170 HD
ENDROOT
BRANCH   3   6
HETATM    6  C   UNL     1     -41.058  57.752 -53.912  1.00  0.00     0.170 C 
BRANCH   6   7
HETATM    7  C   UNL     1     -42.029  58.249 -54.940  1.00  0.00     0.013 A 
HETATM    8  C   UNL     1     -42.525  59.546 -54.930  1.00  0.00     0.170 A 
HETATM    9  N   UNL     1     -43.466  60.011 -55.769  1.00  0.00    -0.224 NA
HETATM   10  C   UNL     1     -43.957  59.178 -56.699  1.00  0.00     0.072 A 
HETATM   11  C   UNL     1     -43.507  57.846 -56.825  1.00  0.00    -0.004 A 
HETATM   12  C   UNL     1     -44.945  59.629 -57.563  1.00  0.00     0.072 A 
HETATM   13  C   UNL     1     -42.524  57.396 -55.931  1.00  0.00     0.027 A 
HETATM   14  C   UNL     1     -44.056  57.003 -57.806  1.00  0.00     0.053 A 
HETATM   15  C   UNL     1     -45.060  57.474 -58.646  1.00  0.00     0.103 A 
HETATM   16  C   UNL     1     -45.491  58.794 -58.538  1.00  0.00     0.104 A 
HETATM   17  O   UNL     1     -45.578  56.584 -59.549  1.00  0.00    -0.346 OA
HETATM   18  O   UNL     1     -46.459  59.337 -59.343  1.00  0.00    -0.346 OA
HETATM   19  C   UNL     1     -46.717  58.515 -60.487  1.00  0.00     0.202 C 
HETATM   20  C   UNL     1     -46.822  57.054 -60.086  1.00  0.00     0.202 C 
BRANCH   8  21
HETATM   21  O   UNL     1     -42.098  60.459 -54.013  1.00  0.00    -0.344 OA
HETATM   22  H   UNL     1     -41.974  59.970 -53.172  1.00  0.00     0.219 HD
ENDBRANCH   8  21
ENDBRANCH   6   7
ENDBRANCH   3   6
BRANCH   3  23
HETATM   23  C   UNL     1     -42.250  56.613 -52.019  1.00  0.00     0.129 C 
BRANCH  23  24
HETATM   24  C   UNL     1     -42.225  58.025 -51.410  1.00  0.00     0.048 C 
BRANCH  24  25
HETATM   25  C   UNL     1     -43.610  58.661 -51.329  1.00  0.00     0.236 C 
BRANCH  25  26
HETATM   26  N   UNL     1     -43.536  60.166 -51.487  1.00  0.00    -0.067 N 
HETATM   27  H   UNL     1     -42.918  60.372 -52.284  1.00  0.00     0.280 HD
HETATM   28  C   UNL     1     -44.912  60.745 -51.845  1.00  0.00     0.261 C 
HETATM   29  C   UNL     1     -44.811  62.265 -52.005  1.00  0.00     0.195 C 
HETATM   30  O   UNL     1     -44.302  62.868 -50.811  1.00  0.00    -0.388 OA
HETATM   31  C   UNL     1     -42.986  62.403 -50.503  1.00  0.00     0.195 C 
HETATM   32  C   UNL     1     -42.982  60.889 -50.260  1.00  0.00     0.261 C 
ENDBRANCH  25  26
ENDBRANCH  24  25
ENDBRANCH  23  24
ENDBRANCH   3  23
BRANCH   1  33
HETATM   33  C   UNL     1     -40.850  52.881 -53.232  1.00  0.00     0.036 A 
HETATM   34  C   UNL     1     -40.948  52.049 -54.353  1.00  0.00     0.032 A 
HETATM   35  C   UNL     1     -40.335  50.792 -54.356  1.00  0.00     0.044 A 
HETATM   36  C   UNL     1     -39.615  50.374 -53.245  1.00  0.00     0.116 A 
HETATM   37  C   UNL     1     -39.498  51.189 -52.127  1.00  0.00     0.044 A 
HETATM   38  F   UNL     1     -39.019  49.175 -53.254  1.00  0.00    -0.206 F 
HETATM   39  C   UNL     1     -40.115  52.442 -52.120  1.00  0.00     0.032 A 
ENDBRANCH   1  33
TORSDOF 8
ENDMDL
MODEL 10
REMARK VINA RESULT:      -7.9      4.111      8.401
REMARK  8 active torsions:
REMARK  status: ('A' for Active; 'I' for Inactive)
REMARK    1  A    between atoms: C_2  and  N_3 
REMARK       I    between atoms: N_3  and  C_4 
REMARK       I    between atoms: C_4  and  N_5 
REMARK    2  A    between atoms: N_5  and  C_6 
REMARK    3  A    between atoms: N_5  and  C_22 
REMARK    4  A    between atoms: C_6  and  C_7 
REMARK    5  A    between atoms: C_8  and  O_9 
REMARK    6  A    between atoms: C_22  and  C_23 
REMARK    7  A    between atoms: C_23  and  C_24 
REMARK    8  A    between atoms: C_24  and  N_25 
ROOT
HETATM    1  N   UNL     1     -43.293  60.069 -56.609  1.00  0.00    -0.309 N 
HETATM    2  C   UNL     1     -43.784  58.811 -56.359  1.00  0.00     0.323 C 
HETATM    3  N   UNL     1     -44.587  58.713 -55.218  1.00  0.00    -0.330 N 
HETATM    4  O   UNL     1     -43.602  57.828 -57.074  1.00  0.00    -0.247 OA
HETATM    5  H   UNL     1     -43.086  60.625 -55.792  1.00  0.00     0.170 HD
ENDROOT
BRANCH   3   6
HETATM    6  C   UNL     1     -45.057  57.371 -54.851  1.00  0.00     0.170 C 
BRANCH   6   7
HETATM    7  C   UNL     1     -44.015  56.546 -54.156  1.00  0.00     0.013 A 
HETATM    8  C   UNL     1     -43.398  55.461 -54.763  1.00  0.00     0.170 A 
HETATM    9  N   UNL     1     -42.532  54.635 -54.154  1.00  0.00    -0.224 NA
HETATM   10  C   UNL     1     -42.219  54.874 -52.871  1.00  0.00     0.072 A 
HETATM   11  C   UNL     1     -42.759  55.967 -52.159  1.00  0.00    -0.004 A 
HETATM   12  C   UNL     1     -41.343  54.023 -52.214  1.00  0.00     0.072 A 
HETATM   13  C   UNL     1     -43.661  56.808 -52.829  1.00  0.00     0.027 A 
HETATM   14  C   UNL     1     -42.415  56.176 -50.813  1.00  0.00     0.053 A 
HETATM   15  C   UNL     1     -41.550  55.294 -50.172  1.00  0.00     0.103 A 
HETATM   16  C   UNL     1     -40.997  54.228 -50.878  1.00  0.00     0.104 A 
HETATM   17  O   UNL     1     -41.291  55.536 -48.849  1.00  0.00    -0.346 OA
HETATM   18  O   UNL     1     -40.122  53.331 -50.322  1.00  0.00    -0.346 OA
HETATM   19  C   UNL     1     -39.599  53.807 -49.076  1.00  0.00     0.202 C 
HETATM   20  C   UNL     1     -40.707  54.389 -48.215  1.00  0.00     0.202 C 
BRANCH   8  21
HETATM   21  O   UNL     1     -43.665  55.130 -56.058  1.00  0.00    -0.344 OA
HETATM   22  H   UNL     1     -44.560  54.728 -56.063  1.00  0.00     0.219 HD
ENDBRANCH   8  21
ENDBRANCH   6   7
ENDBRANCH   3   6
BRANCH   3  23
HETATM   23  C   UNL     1     -45.198  59.858 -54.537  1.00  0.00     0.129 C 
BRANCH  23  24
HETATM   24  C   UNL     1     -44.946  59.867 -53.019  1.00  0.00     0.048 C 
BRANCH  24  25
HETATM   25  C   UNL     1     -43.736  60.709 -52.624  1.00  0.00     0.236 C 
BRANCH  25  26
HETATM   26  N   UNL     1     -42.558  59.835 -52.243  1.00  0.00    -0.067 N 
HETATM   27  H   UNL     1     -42.911  58.885 -52.066  1.00  0.00     0.280 HD
HETATM   28  C   UNL     1     -41.567  59.719 -53.409  1.00  0.00     0.261 C 
HETATM   29  C   UNL     1     -40.389  58.829 -53.004  1.00  0.00     0.195 C 
HETATM   30  O   UNL     1     -39.740  59.344 -51.837  1.00  0.00    -0.388 OA
HETATM   31  C   UNL     1     -40.625  59.385 -50.715  1.00  0.00     0.195 C 
HETATM   32  C   UNL     1     -41.819  60.306 -50.991  1.00  0.00     0.261 C 
ENDBRANCH  25  26
ENDBRANCH  24  25
ENDBRANCH  23  24
ENDBRANCH   3  23
BRANCH   1  33
HETATM   33  C   UNL     1     -42.707  60.528 -57.809  1.00  0.00     0.036 A 
HETATM   34  C   UNL     1     -41.520  61.268 -57.858  1.00  0.00     0.032 A 
HETATM   35  C   UNL     1     -40.981  61.659 -59.088  1.00  0.00     0.044 A 
HETATM   36  C   UNL     1     -41.620  61.299 -60.266  1.00  0.00     0.116 A 
HETATM   37  C   UNL     1     -42.794  60.557 -60.239  1.00  0.00     0.044 A 
HETATM   38  F   UNL     1     -41.096  61.664 -61.442  1.00  0.00    -0.206 F 
HETATM   39  C   UNL     1     -43.337  60.171 -59.011  1.00  0.00     0.032 A 
ENDBRANCH   1  33
TORSDOF 8
ENDMDL
