MODEL 1
REMARK VINA RESULT:      -8.7      0.000      0.000
REMARK  8 active torsions:
REMARK  status: ('A' for Active; 'I' for Inactive)
REMARK    1  A    between atoms: C_2  and  S_3 
REMARK    2  A    between atoms: C_2  and  C_24 
REMARK    3  A    between atoms: S_3  and  C_4 
REMARK    4  A    between atoms: N_5  and  C_6 
REMARK    5  A    between atoms: C_13  and  C_14 
REMARK    6  A    between atoms: C_14  and  N_15 
REMARK       I    between atoms: C_24  and  N_25 
REMARK    7  A    between atoms: N_25  and  C_26 
REMARK    8  A    between atoms: C_29  and  C_30 
REMARK       I    between atoms: C_30  and  N_31 
ROOT
HETATM    1  C   UNL     1     -41.648  59.039 -53.900  1.00  0.00     0.197 A 
HETATM    2  N   UNL     1     -42.504  58.476 -54.834  1.00  0.00    -0.274 N 
HETATM    3  C   UNL     1     -43.087  59.584 -55.448  1.00  0.00     0.161 A 
HETATM    4  N   UNL     1     -42.663  60.690 -54.865  1.00  0.00    -0.132 NA
HETATM    5  N   UNL     1     -41.758  60.347 -53.911  1.00  0.00    -0.122 NA
ENDROOT
BRANCH   1   6
HETATM    6  S   UNL     1     -40.456  58.167 -52.993  1.00  0.00    -0.076 SA
BRANCH   6   7
HETATM    7  C   UNL     1     -41.439  57.565 -51.567  1.00  0.00     0.143 C 
HETATM    8  C   UNL     1     -41.141  58.393 -50.319  1.00  0.00     0.031 C 
BRANCH   7   9
HETATM    9  C   UNL     1     -41.134  56.084 -51.282  1.00  0.00     0.236 C 
HETATM   10  N   UNL     1     -40.777  55.397 -52.439  1.00  0.00    -0.326 N 
HETATM   11  H   UNL     1     -40.724  55.934 -53.296  1.00  0.00     0.169 HD
HETATM   12  O   UNL     1     -41.231  55.589 -50.164  1.00  0.00    -0.272 OA
BRANCH  10  13
HETATM   13  C   UNL     1     -40.478  54.026 -52.571  1.00  0.00     0.034 A 
HETATM   14  C   UNL     1     -40.046  53.211 -51.523  1.00  0.00     0.030 A 
HETATM   15  C   UNL     1     -39.776  51.852 -51.739  1.00  0.00     0.019 A 
HETATM   16  C   UNL     1     -39.930  51.295 -53.012  1.00  0.00     0.032 A 
HETATM   17  C   UNL     1     -40.375  52.106 -54.061  1.00  0.00     0.019 A 
HETATM   18  C   UNL     1     -40.643  53.461 -53.842  1.00  0.00     0.030 A 
BRANCH  16  19
HETATM   19  C   UNL     1     -39.664  49.860 -53.300  1.00  0.00     0.249 C 
HETATM   20  N   UNL     1     -39.389  49.037 -52.244  1.00  0.00    -0.366 N 
HETATM   21  H   UNL     1     -39.172  49.374 -51.318  1.00  0.00     0.159 HD
HETATM   22  H   UNL     1     -39.124  48.088 -52.472  1.00  0.00     0.159 HD
HETATM   23  O   UNL     1     -39.658  49.430 -54.446  1.00  0.00    -0.268 OA
ENDBRANCH  16  19
ENDBRANCH  10  13
ENDBRANCH   7   9
ENDBRANCH   6   7
ENDBRANCH   1   6
BRANCH   2  24
HETATM   24  C   UNL     1     -42.794  57.107 -55.083  1.00  0.00     0.043 A 
HETATM   25  C   UNL     1     -43.711  56.426 -54.267  1.00  0.00     0.033 A 
HETATM   26  C   UNL     1     -44.025  55.090 -54.529  1.00  0.00     0.044 A 
HETATM   27  C   UNL     1     -43.423  54.438 -55.597  1.00  0.00     0.116 A 
HETATM   28  F   UNL     1     -43.727  53.160 -55.848  1.00  0.00    -0.206 F 
HETATM   29  C   UNL     1     -42.505  55.096 -56.407  1.00  0.00     0.044 A 
HETATM   30  C   UNL     1     -42.185  56.433 -56.153  1.00  0.00     0.033 A 
ENDBRANCH   2  24
BRANCH   3  31
HETATM   31  C   UNL     1     -44.165  59.571 -56.474  1.00  0.00     0.315 C 
BRANCH  31  32
HETATM   32  N   UNL     1     -43.812  58.661 -57.649  1.00  0.00    -0.064 N 
HETATM   33  H   UNL     1     -43.131  57.991 -57.257  1.00  0.00     0.280 HD
HETATM   34  C   UNL     1     -44.989  57.832 -58.118  1.00  0.00     0.235 C 
HETATM   35  C   UNL     1     -44.507  56.820 -59.147  1.00  0.00     0.028 C 
HETATM   36  C   UNL     1     -43.808  57.504 -60.316  1.00  0.00     0.003 C 
HETATM   37  C   UNL     1     -42.679  58.408 -59.833  1.00  0.00     0.028 C 
HETATM   38  C   UNL     1     -43.153  59.401 -58.781  1.00  0.00     0.235 C 
ENDBRANCH  31  32
ENDBRANCH   3  31
TORSDOF 8
ENDMDL
MODEL 2
REMARK VINA RESULT:      -8.6      2.380      3.639
REMARK  8 active torsions:
REMARK  status: ('A' for Active; 'I' for Inactive)
REMARK    1  A    between atoms: C_2  and  S_3 
REMARK    2  A    between atoms: C_2  and  C_24 
REMARK    3  A    between atoms: S_3  and  C_4 
REMARK    4  A    between atoms: N_5  and  C_6 
REMARK    5  A    between atoms: C_13  and  C_14 
REMARK    6  A    between atoms: C_14  and  N_15 
REMARK       I    between atoms: C_24  and  N_25 
REMARK    7  A    between atoms: N_25  and  C_26 
REMARK    8  A    between atoms: C_29  and  C_30 
REMARK       I    between atoms: C_30  and  N_31 
ROOT
HETATM    1  C   UNL     1     -43.346  56.984 -54.650  1.00  0.00     0.197 A 
HETATM    2  N   UNL     1     -43.337  57.611 -55.887  1.00  0.00    -0.274 N 
HETATM    3  C   UNL     1     -43.263  56.551 -56.788  1.00  0.00     0.161 A 
HETATM    4  N   UNL     1     -43.158  55.413 -56.128  1.00  0.00    -0.132 NA
HETATM    5  N   UNL     1     -43.223  55.685 -54.799  1.00  0.00    -0.122 NA
ENDROOT
BRANCH   1   6
HETATM    6  S   UNL     1     -43.676  57.768 -53.141  1.00  0.00    -0.076 SA
BRANCH   6   7
HETATM    7  C   UNL     1     -42.146  57.418 -52.195  1.00  0.00     0.143 C 
HETATM    8  C   UNL     1     -40.916  57.909 -52.957  1.00  0.00     0.031 C 
BRANCH   7   9
HETATM    9  C   UNL     1     -42.007  55.910 -51.921  1.00  0.00     0.236 C 
HETATM   10  N   UNL     1     -40.990  55.338 -52.680  1.00  0.00    -0.326 N 
HETATM   11  H   UNL     1     -40.454  55.958 -53.275  1.00  0.00     0.169 HD
HETATM   12  O   UNL     1     -42.738  55.306 -51.143  1.00  0.00    -0.272 OA
BRANCH  10  13
HETATM   13  C   UNL     1     -40.608  53.982 -52.729  1.00  0.00     0.034 A 
HETATM   14  C   UNL     1     -40.225  53.232 -51.615  1.00  0.00     0.030 A 
HETATM   15  C   UNL     1     -39.865  51.884 -51.750  1.00  0.00     0.019 A 
HETATM   16  C   UNL     1     -39.879  51.271 -53.006  1.00  0.00     0.032 A 
HETATM   17  C   UNL     1     -40.274  52.016 -54.122  1.00  0.00     0.019 A 
HETATM   18  C   UNL     1     -40.633  53.361 -53.984  1.00  0.00     0.030 A 
BRANCH  16  19
HETATM   19  C   UNL     1     -39.513  49.844 -53.210  1.00  0.00     0.249 C 
HETATM   20  N   UNL     1     -39.419  49.046 -52.105  1.00  0.00    -0.366 N 
HETATM   21  H   UNL     1     -39.395  49.402 -51.161  1.00  0.00     0.159 HD
HETATM   22  H   UNL     1     -39.082  48.104 -52.259  1.00  0.00     0.159 HD
HETATM   23  O   UNL     1     -39.271  49.401 -54.325  1.00  0.00    -0.268 OA
ENDBRANCH  16  19
ENDBRANCH  10  13
ENDBRANCH   7   9
ENDBRANCH   6   7
ENDBRANCH   1   6
BRANCH   2  24
HETATM   24  C   UNL     1     -43.333  58.999 -56.194  1.00  0.00     0.043 A 
HETATM   25  C   UNL     1     -42.117  59.662 -56.422  1.00  0.00     0.033 A 
HETATM   26  C   UNL     1     -42.110  61.018 -56.758  1.00  0.00     0.044 A 
HETATM   27  C   UNL     1     -43.311  61.708 -56.862  1.00  0.00     0.116 A 
HETATM   28  F   UNL     1     -43.302  63.006 -57.187  1.00  0.00    -0.206 F 
HETATM   29  C   UNL     1     -44.522  61.068 -56.628  1.00  0.00     0.044 A 
HETATM   30  C   UNL     1     -44.539  59.711 -56.292  1.00  0.00     0.033 A 
ENDBRANCH   2  24
BRANCH   3  31
HETATM   31  C   UNL     1     -43.128  56.645 -58.268  1.00  0.00     0.315 C 
BRANCH  31  32
HETATM   32  N   UNL     1     -44.417  56.231 -58.977  1.00  0.00    -0.064 N 
HETATM   33  H   UNL     1     -44.823  55.505 -58.365  1.00  0.00     0.280 HD
HETATM   34  C   UNL     1     -45.437  57.348 -59.029  1.00  0.00     0.235 C 
HETATM   35  C   UNL     1     -46.751  56.799 -59.567  1.00  0.00     0.028 C 
HETATM   36  C   UNL     1     -46.565  56.152 -60.935  1.00  0.00     0.003 C 
HETATM   37  C   UNL     1     -45.473  55.087 -60.899  1.00  0.00     0.028 C 
HETATM   38  C   UNL     1     -44.167  55.627 -60.332  1.00  0.00     0.235 C 
ENDBRANCH  31  32
ENDBRANCH   3  31
TORSDOF 8
ENDMDL
MODEL 3
REMARK VINA RESULT:      -8.5      2.505      3.633
REMARK  8 active torsions:
REMARK  status: ('A' for Active; 'I' for Inactive)
REMARK    1  A    between atoms: C_2  and  S_3 
REMARK    2  A    between atoms: C_2  and  C_24 
REMARK    3  A    between atoms: S_3  and  C_4 
REMARK    4  A    between atoms: N_5  and  C_6 
REMARK    5  A    between atoms: C_13  and  C_14 
REMARK    6  A    between atoms: C_14  and  N_15 
REMARK       I    between atoms: C_24  and  N_25 
REMARK    7  A    between atoms: N_25  and  C_26 
REMARK    8  A    between atoms: C_29  and  C_30 
REMARK       I    between atoms: C_30  and  N_31 
ROOT
HETATM    1  C   UNL     1     -43.802  57.009 -53.567  1.00  0.00     0.197 A 
HETATM    2  N   UNL     1     -43.885  57.929 -54.602  1.00  0.00    -0.274 N 
HETATM    3  C   UNL     1     -43.755  57.143 -55.746  1.00  0.00     0.161 A 
HETATM    4  N   UNL     1     -43.537  55.888 -55.401  1.00  0.00    -0.132 NA
HETATM    5  N   UNL     1     -43.580  55.806 -54.045  1.00  0.00    -0.122 NA
ENDROOT
BRANCH   1   6
HETATM    6  S   UNL     1     -44.144  57.351 -51.904  1.00  0.00    -0.076 SA
BRANCH   6   7
HETATM    7  C   UNL     1     -42.534  56.984 -51.108  1.00  0.00     0.143 C 
HETATM    8  C   UNL     1     -41.394  57.676 -51.853  1.00  0.00     0.031 C 
BRANCH   7   9
HETATM    9  C   UNL     1     -42.276  55.468 -51.074  1.00  0.00     0.236 C 
HETATM   10  N   UNL     1     -41.282  55.093 -51.974  1.00  0.00    -0.326 N 
HETATM   11  H   UNL     1     -40.832  55.833 -52.500  1.00  0.00     0.169 HD
HETATM   12  O   UNL     1     -42.905  54.703 -50.352  1.00  0.00    -0.272 OA
BRANCH  10  13
HETATM   13  C   UNL     1     -40.814  53.792 -52.251  1.00  0.00     0.034 A 
HETATM   14  C   UNL     1     -40.106  53.001 -51.344  1.00  0.00     0.030 A 
HETATM   15  C   UNL     1     -39.683  51.712 -51.698  1.00  0.00     0.019 A 
HETATM   16  C   UNL     1     -39.959  51.203 -52.970  1.00  0.00     0.032 A 
HETATM   17  C   UNL     1     -40.679  51.988 -53.876  1.00  0.00     0.019 A 
HETATM   18  C   UNL     1     -41.100  53.273 -53.520  1.00  0.00     0.030 A 
BRANCH  16  19
HETATM   19  C   UNL     1     -39.540  49.842 -53.400  1.00  0.00     0.249 C 
HETATM   20  N   UNL     1     -39.196  48.943 -52.429  1.00  0.00    -0.366 N 
HETATM   21  H   UNL     1     -39.029  49.199 -51.467  1.00  0.00     0.159 HD
HETATM   22  H   UNL     1     -38.830  48.056 -52.749  1.00  0.00     0.159 HD
HETATM   23  O   UNL     1     -39.472  49.540 -54.584  1.00  0.00    -0.268 OA
ENDBRANCH  16  19
ENDBRANCH  10  13
ENDBRANCH   7   9
ENDBRANCH   6   7
ENDBRANCH   1   6
BRANCH   2  24
HETATM   24  C   UNL     1     -44.003  59.344 -54.543  1.00  0.00     0.043 A 
HETATM   25  C   UNL     1     -42.866  60.132 -54.305  1.00  0.00     0.033 A 
HETATM   26  C   UNL     1     -42.971  61.525 -54.281  1.00  0.00     0.044 A 
HETATM   27  C   UNL     1     -44.205  62.126 -54.488  1.00  0.00     0.116 A 
HETATM   28  F   UNL     1     -44.303  63.460 -54.467  1.00  0.00    -0.206 F 
HETATM   29  C   UNL     1     -45.341  61.359 -54.714  1.00  0.00     0.044 A 
HETATM   30  C   UNL     1     -45.246  59.964 -54.741  1.00  0.00     0.033 A 
ENDBRANCH   2  24
BRANCH   3  31
HETATM   31  C   UNL     1     -43.678  57.622 -57.154  1.00  0.00     0.315 C 
BRANCH  31  32
HETATM   32  N   UNL     1     -44.405  56.677 -58.109  1.00  0.00    -0.064 N 
HETATM   33  H   UNL     1     -44.969  56.073 -57.490  1.00  0.00     0.280 HD
HETATM   34  C   UNL     1     -45.395  57.398 -59.000  1.00  0.00     0.235 C 
HETATM   35  C   UNL     1     -46.210  56.372 -59.772  1.00  0.00     0.028 C 
HETATM   36  C   UNL     1     -45.313  55.440 -60.579  1.00  0.00     0.003 C 
HETATM   37  C   UNL     1     -44.260  54.783 -59.692  1.00  0.00     0.028 C 
HETATM   38  C   UNL     1     -43.464  55.807 -58.896  1.00  0.00     0.235 C 
ENDBRANCH  31  32
ENDBRANCH   3  31
TORSDOF 8
ENDMDL
MODEL 4
REMARK VINA RESULT:      -8.5      3.014      5.541
REMARK  8 active torsions:
REMARK  status: ('A' for Active; 'I' for Inactive)
REMARK    1  A    between atoms: C_2  and  S_3 
REMARK    2  A    between atoms: C_2  and  C_24 
REMARK    3  A    between atoms: S_3  and  C_4 
REMARK    4  A    between atoms: N_5  and  C_6 
REMARK    5  A    between atoms: C_13  and  C_14 
REMARK    6  A    between atoms: C_14  and  N_15 
REMARK       I    between atoms: C_24  and  N_25 
REMARK    7  A    between atoms: N_25  and  C_26 
REMARK    8  A    between atoms: C_29  and  C_30 
REMARK       I    between atoms: C_30  and  N_31 
ROOT
HETATM    1  C   UNL     1     -43.267  59.042 -53.713  1.00  0.00     0.197 A 
HETATM    2  N   UNL     1     -42.897  58.925 -52.381  1.00  0.00    -0.274 N 
HETATM    3  C   UNL     1     -42.682  60.245 -51.987  1.00  0.00     0.161 A 
HETATM    4  N   UNL     1     -42.837  61.049 -53.022  1.00  0.00    -0.132 NA
HETATM    5  N   UNL     1     -43.213  60.298 -54.091  1.00  0.00    -0.122 NA
ENDROOT
BRANCH   1   6
HETATM    6  S   UNL     1     -43.904  57.756 -54.683  1.00  0.00    -0.076 SA
BRANCH   6   7
HETATM    7  C   UNL     1     -42.383  56.828 -55.119  1.00  0.00     0.143 C 
HETATM    8  C   UNL     1     -42.285  56.633 -56.630  1.00  0.00     0.031 C 
BRANCH   7   9
HETATM    9  C   UNL     1     -42.365  55.455 -54.424  1.00  0.00     0.236 C 
HETATM   10  N   UNL     1     -41.068  54.975 -54.264  1.00  0.00    -0.326 N 
HETATM   11  H   UNL     1     -40.312  55.573 -54.575  1.00  0.00     0.169 HD
HETATM   12  O   UNL     1     -43.387  54.866 -54.089  1.00  0.00    -0.272 OA
BRANCH  10  13
HETATM   13  C   UNL     1     -40.667  53.739 -53.717  1.00  0.00     0.034 A 
HETATM   14  C   UNL     1     -40.402  53.528 -52.362  1.00  0.00     0.030 A 
HETATM   15  C   UNL     1     -40.015  52.263 -51.898  1.00  0.00     0.019 A 
HETATM   16  C   UNL     1     -39.879  51.195 -52.789  1.00  0.00     0.032 A 
HETATM   17  C   UNL     1     -40.156  51.400 -54.145  1.00  0.00     0.019 A 
HETATM   18  C   UNL     1     -40.543  52.663 -54.604  1.00  0.00     0.030 A 
BRANCH  16  19
HETATM   19  C   UNL     1     -39.477  49.831 -52.354  1.00  0.00     0.249 C 
HETATM   20  N   UNL     1     -39.263  49.622 -51.021  1.00  0.00    -0.366 N 
HETATM   21  H   UNL     1     -39.178  50.369 -50.347  1.00  0.00     0.159 HD
HETATM   22  H   UNL     1     -38.904  48.713 -50.760  1.00  0.00     0.159 HD
HETATM   23  O   UNL     1     -39.308  48.927 -53.164  1.00  0.00    -0.268 OA
ENDBRANCH  16  19
ENDBRANCH  10  13
ENDBRANCH   7   9
ENDBRANCH   6   7
ENDBRANCH   1   6
BRANCH   2  24
HETATM   24  C   UNL     1     -42.707  57.754 -51.597  1.00  0.00     0.043 A 
HETATM   25  C   UNL     1     -43.804  56.937 -51.283  1.00  0.00     0.033 A 
HETATM   26  C   UNL     1     -43.616  55.767 -50.542  1.00  0.00     0.044 A 
HETATM   27  C   UNL     1     -42.342  55.418 -50.116  1.00  0.00     0.116 A 
HETATM   28  F   UNL     1     -42.164  54.296 -49.410  1.00  0.00    -0.206 F 
HETATM   29  C   UNL     1     -41.248  56.223 -50.411  1.00  0.00     0.044 A 
HETATM   30  C   UNL     1     -41.425  57.396 -51.151  1.00  0.00     0.033 A 
ENDBRANCH   2  24
BRANCH   3  31
HETATM   31  C   UNL     1     -42.172  60.711 -50.668  1.00  0.00     0.315 C 
BRANCH  31  32
HETATM   32  N   UNL     1     -43.278  61.357 -49.835  1.00  0.00    -0.064 N 
HETATM   33  H   UNL     1     -42.973  61.221 -48.857  1.00  0.00     0.280 HD
HETATM   34  C   UNL     1     -43.360  62.855 -50.039  1.00  0.00     0.235 C 
HETATM   35  C   UNL     1     -44.342  63.442 -49.034  1.00  0.00     0.028 C 
HETATM   36  C   UNL     1     -45.714  62.789 -49.150  1.00  0.00     0.003 C 
HETATM   37  C   UNL     1     -45.615  61.271 -49.033  1.00  0.00     0.028 C 
HETATM   38  C   UNL     1     -44.611  60.686 -50.016  1.00  0.00     0.235 C 
ENDBRANCH  31  32
ENDBRANCH   3  31
TORSDOF 8
ENDMDL
MODEL 5
REMARK VINA RESULT:      -8.0      3.144      6.700
REMARK  8 active torsions:
REMARK  status: ('A' for Active; 'I' for Inactive)
REMARK    1  A    between atoms: C_2  and  S_3 
REMARK    2  A    between atoms: C_2  and  C_24 
REMARK    3  A    between atoms: S_3  and  C_4 
REMARK    4  A    between atoms: N_5  and  C_6 
REMARK    5  A    between atoms: C_13  and  C_14 
REMARK    6  A    between atoms: C_14  and  N_15 
REMARK       I    between atoms: C_24  and  N_25 
REMARK    7  A    between atoms: N_25  and  C_26 
REMARK    8  A    between atoms: C_29  and  C_30 
REMARK       I    between atoms: C_30  and  N_31 
ROOT
HETATM    1  C   UNL     1     -43.993  58.528 -52.541  1.00  0.00     0.197 A 
HETATM    2  N   UNL     1     -43.490  57.236 -52.525  1.00  0.00    -0.274 N 
HETATM    3  C   UNL     1     -44.053  56.655 -53.661  1.00  0.00     0.161 A 
HETATM    4  N   UNL     1     -44.872  57.512 -54.240  1.00  0.00    -0.132 NA
HETATM    5  N   UNL     1     -44.822  58.681 -53.548  1.00  0.00    -0.122 NA
ENDROOT
BRANCH   1   6
HETATM    6  S   UNL     1     -43.456  59.816 -51.514  1.00  0.00    -0.076 SA
BRANCH   6   7
HETATM    7  C   UNL     1     -42.646  60.939 -52.716  1.00  0.00     0.143 C 
HETATM    8  C   UNL     1     -43.653  61.937 -53.285  1.00  0.00     0.031 C 
BRANCH   7   9
HETATM    9  C   UNL     1     -42.012  60.139 -53.868  1.00  0.00     0.236 C 
HETATM   10  N   UNL     1     -42.787  60.196 -55.023  1.00  0.00    -0.326 N 
HETATM   11  H   UNL     1     -43.626  60.763 -54.990  1.00  0.00     0.169 HD
HETATM   12  O   UNL     1     -40.965  59.514 -53.745  1.00  0.00    -0.272 OA
BRANCH  10  13
HETATM   13  C   UNL     1     -42.549  59.551 -56.254  1.00  0.00     0.034 A 
HETATM   14  C   UNL     1     -42.609  58.168 -56.442  1.00  0.00     0.030 A 
HETATM   15  C   UNL     1     -42.365  57.607 -57.704  1.00  0.00     0.019 A 
HETATM   16  C   UNL     1     -42.052  58.426 -58.792  1.00  0.00     0.032 A 
HETATM   17  C   UNL     1     -42.004  59.812 -58.610  1.00  0.00     0.019 A 
HETATM   18  C   UNL     1     -42.248  60.369 -57.350  1.00  0.00     0.030 A 
BRANCH  16  19
HETATM   19  C   UNL     1     -41.790  57.888 -60.154  1.00  0.00     0.249 C 
HETATM   20  N   UNL     1     -41.589  58.784 -61.166  1.00  0.00    -0.366 N 
HETATM   21  H   UNL     1     -41.792  59.769 -61.087  1.00  0.00     0.159 HD
HETATM   22  H   UNL     1     -41.503  58.397 -62.097  1.00  0.00     0.159 HD
HETATM   23  O   UNL     1     -41.786  56.684 -60.374  1.00  0.00    -0.268 OA
ENDBRANCH  16  19
ENDBRANCH  10  13
ENDBRANCH   7   9
ENDBRANCH   6   7
ENDBRANCH   1   6
BRANCH   2  24
HETATM   24  C   UNL     1     -42.658  56.604 -51.561  1.00  0.00     0.043 A 
HETATM   25  C   UNL     1     -43.207  55.674 -50.665  1.00  0.00     0.033 A 
HETATM   26  C   UNL     1     -42.386  55.024 -49.739  1.00  0.00     0.044 A 
HETATM   27  C   UNL     1     -41.027  55.306 -49.706  1.00  0.00     0.116 A 
HETATM   28  F   UNL     1     -40.243  54.682 -48.822  1.00  0.00    -0.206 F 
HETATM   29  C   UNL     1     -40.472  56.233 -50.580  1.00  0.00     0.044 A 
HETATM   30  C   UNL     1     -41.284  56.888 -51.511  1.00  0.00     0.033 A 
ENDBRANCH   2  24
BRANCH   3  31
HETATM   31  C   UNL     1     -43.929  55.235 -54.091  1.00  0.00     0.315 C 
BRANCH  31  32
HETATM   32  N   UNL     1     -42.472  54.776 -54.104  1.00  0.00    -0.064 N 
HETATM   33  H   UNL     1     -41.958  55.546 -53.646  1.00  0.00     0.280 HD
HETATM   34  C   UNL     1     -42.239  53.552 -53.243  1.00  0.00     0.235 C 
HETATM   35  C   UNL     1     -40.744  53.284 -53.153  1.00  0.00     0.028 C 
HETATM   36  C   UNL     1     -40.124  53.117 -54.536  1.00  0.00     0.003 C 
HETATM   37  C   UNL     1     -40.436  54.313 -55.430  1.00  0.00     0.028 C 
HETATM   38  C   UNL     1     -41.930  54.602 -55.496  1.00  0.00     0.235 C 
ENDBRANCH  31  32
ENDBRANCH   3  31
TORSDOF 8
ENDMDL
MODEL 6
REMARK VINA RESULT:      -8.0      2.193      2.933
REMARK  8 active torsions:
REMARK  status: ('A' for Active; 'I' for Inactive)
REMARK    1  A    between atoms: C_2  and  S_3 
REMARK    2  A    between atoms: C_2  and  C_24 
REMARK    3  A    between atoms: S_3  and  C_4 
REMARK    4  A    between atoms: N_5  and  C_6 
REMARK    5  A    between atoms: C_13  and  C_14 
REMARK    6  A    between atoms: C_14  and  N_15 
REMARK       I    between atoms: C_24  and  N_25 
REMARK    7  A    between atoms: N_25  and  C_26 
REMARK    8  A    between atoms: C_29  and  C_30 
REMARK       I    between atoms: C_30  and  N_31 
ROOT
HETATM    1  C   UNL     1     -42.109  59.343 -54.960  1.00  0.00     0.197 A 
HETATM    2  N   UNL     1     -42.540  59.399 -56.277  1.00  0.00    -0.274 N 
HETATM    3  C   UNL     1     -42.940  60.725 -56.433  1.00  0.00     0.161 A 
HETATM    4  N   UNL     1     -42.825  61.362 -55.282  1.00  0.00    -0.132 NA
HETATM    5  N   UNL     1     -42.295  60.503 -54.372  1.00  0.00    -0.122 NA
ENDROOT
BRANCH   1   6
HETATM    6  S   UNL     1     -41.262  58.011 -54.247  1.00  0.00    -0.076 SA
BRANCH   6   7
HETATM    7  C   UNL     1     -42.483  57.405 -53.021  1.00  0.00     0.143 C 
HETATM    8  C   UNL     1     -42.193  57.985 -51.638  1.00  0.00     0.031 C 
BRANCH   7   9
HETATM    9  C   UNL     1     -42.461  55.868 -52.945  1.00  0.00     0.236 C 
HETATM   10  N   UNL     1     -41.164  55.366 -53.009  1.00  0.00    -0.326 N 
HETATM   11  H   UNL     1     -40.409  56.041 -53.059  1.00  0.00     0.169 HD
HETATM   12  O   UNL     1     -43.481  55.192 -52.866  1.00  0.00    -0.272 OA
BRANCH  10  13
HETATM   13  C   UNL     1     -40.760  54.016 -53.015  1.00  0.00     0.034 A 
HETATM   14  C   UNL     1     -40.222  53.350 -51.912  1.00  0.00     0.030 A 
HETATM   15  C   UNL     1     -39.853  52.000 -52.001  1.00  0.00     0.019 A 
HETATM   16  C   UNL     1     -40.011  51.303 -53.202  1.00  0.00     0.032 A 
HETATM   17  C   UNL     1     -40.561  51.963 -54.305  1.00  0.00     0.019 A 
HETATM   18  C   UNL     1     -40.929  53.309 -54.213  1.00  0.00     0.030 A 
BRANCH  16  19
HETATM   19  C   UNL     1     -39.642  49.870 -53.354  1.00  0.00     0.249 C 
HETATM   20  N   UNL     1     -39.483  49.127 -52.218  1.00  0.00    -0.366 N 
HETATM   21  H   UNL     1     -39.414  49.529 -51.295  1.00  0.00     0.159 HD
HETATM   22  H   UNL     1     -39.145  48.182 -52.344  1.00  0.00     0.159 HD
HETATM   23  O   UNL     1     -39.454  49.374 -54.458  1.00  0.00    -0.268 OA
ENDBRANCH  16  19
ENDBRANCH  10  13
ENDBRANCH   7   9
ENDBRANCH   6   7
ENDBRANCH   1   6
BRANCH   2  24
HETATM   24  C   UNL     1     -42.630  58.357 -57.241  1.00  0.00     0.043 A 
HETATM   25  C   UNL     1     -43.496  57.275 -57.022  1.00  0.00     0.033 A 
HETATM   26  C   UNL     1     -43.614  56.266 -57.982  1.00  0.00     0.044 A 
HETATM   27  C   UNL     1     -42.868  56.337 -59.151  1.00  0.00     0.116 A 
HETATM   28  F   UNL     1     -42.984  55.373 -60.070  1.00  0.00    -0.206 F 
HETATM   29  C   UNL     1     -41.998  57.397 -59.376  1.00  0.00     0.044 A 
HETATM   30  C   UNL     1     -41.873  58.411 -58.421  1.00  0.00     0.033 A 
ENDBRANCH   2  24
BRANCH   3  31
HETATM   31  C   UNL     1     -43.580  61.329 -57.633  1.00  0.00     0.315 C 
BRANCH  31  32
HETATM   32  N   UNL     1     -42.560  62.053 -58.510  1.00  0.00    -0.064 N 
HETATM   33  H   UNL     1     -42.730  63.055 -58.324  1.00  0.00     0.280 HD
HETATM   34  C   UNL     1     -41.132  61.788 -58.083  1.00  0.00     0.235 C 
HETATM   35  C   UNL     1     -40.199  62.694 -58.874  1.00  0.00     0.028 C 
HETATM   36  C   UNL     1     -40.375  62.501 -60.375  1.00  0.00     0.003 C 
HETATM   37  C   UNL     1     -41.832  62.682 -60.788  1.00  0.00     0.028 C 
HETATM   38  C   UNL     1     -42.770  61.798 -59.978  1.00  0.00     0.235 C 
ENDBRANCH  31  32
ENDBRANCH   3  31
TORSDOF 8
ENDMDL
MODEL 7
REMARK VINA RESULT:      -7.9      4.041      8.957
REMARK  8 active torsions:
REMARK  status: ('A' for Active; 'I' for Inactive)
REMARK    1  A    between atoms: C_2  and  S_3 
REMARK    2  A    between atoms: C_2  and  C_24 
REMARK    3  A    between atoms: S_3  and  C_4 
REMARK    4  A    between atoms: N_5  and  C_6 
REMARK    5  A    between atoms: C_13  and  C_14 
REMARK    6  A    between atoms: C_14  and  N_15 
REMARK       I    between atoms: C_24  and  N_25 
REMARK    7  A    between atoms: N_25  and  C_26 
REMARK    8  A    between atoms: C_29  and  C_30 
REMARK       I    between atoms: C_30  and  N_31 
ROOT
HETATM    1  C   UNL     1     -43.412  55.699 -54.277  1.00  0.00     0.197 A 
HETATM    2  N   UNL     1     -42.175  55.761 -53.652  1.00  0.00    -0.274 N 
HETATM    3  C   UNL     1     -41.636  54.495 -53.875  1.00  0.00     0.161 A 
HETATM    4  N   UNL     1     -42.516  53.741 -54.506  1.00  0.00    -0.132 NA
HETATM    5  N   UNL     1     -43.615  54.497 -54.766  1.00  0.00    -0.122 NA
ENDROOT
BRANCH   1   6
HETATM    6  S   UNL     1     -44.452  57.056 -54.557  1.00  0.00    -0.076 SA
BRANCH   6   7
HETATM    7  C   UNL     1     -43.591  57.910 -55.931  1.00  0.00     0.143 C 
HETATM    8  C   UNL     1     -43.771  59.423 -55.824  1.00  0.00     0.031 C 
BRANCH   7   9
HETATM    9  C   UNL     1     -44.124  57.428 -57.292  1.00  0.00     0.236 C 
HETATM   10  N   UNL     1     -45.216  58.181 -57.715  1.00  0.00    -0.326 N 
HETATM   11  H   UNL     1     -45.502  58.952 -57.124  1.00  0.00     0.169 HD
HETATM   12  O   UNL     1     -43.643  56.474 -57.894  1.00  0.00    -0.272 OA
BRANCH  10  13
HETATM   13  C   UNL     1     -45.988  58.001 -58.881  1.00  0.00     0.034 A 
HETATM   14  C   UNL     1     -46.394  59.039 -59.723  1.00  0.00     0.030 A 
HETATM   15  C   UNL     1     -47.157  58.773 -60.869  1.00  0.00     0.019 A 
HETATM   16  C   UNL     1     -47.528  57.462 -61.182  1.00  0.00     0.032 A 
HETATM   17  C   UNL     1     -47.111  56.419 -60.347  1.00  0.00     0.019 A 
HETATM   18  C   UNL     1     -46.351  56.688 -59.205  1.00  0.00     0.030 A 
BRANCH  16  19
HETATM   19  C   UNL     1     -48.330  57.118 -62.386  1.00  0.00     0.249 C 
HETATM   20  N   UNL     1     -48.284  57.976 -63.449  1.00  0.00    -0.366 N 
HETATM   21  H   UNL     1     -47.898  58.906 -63.398  1.00  0.00     0.159 HD
HETATM   22  H   UNL     1     -48.907  57.768 -64.220  1.00  0.00     0.159 HD
HETATM   23  O   UNL     1     -49.037  56.119 -62.418  1.00  0.00    -0.268 OA
ENDBRANCH  16  19
ENDBRANCH  10  13
ENDBRANCH   7   9
ENDBRANCH   6   7
ENDBRANCH   1   6
BRANCH   2  24
HETATM   24  C   UNL     1     -41.598  56.819 -52.899  1.00  0.00     0.043 A 
HETATM   25  C   UNL     1     -41.771  56.861 -51.506  1.00  0.00     0.033 A 
HETATM   26  C   UNL     1     -41.176  57.880 -50.757  1.00  0.00     0.044 A 
HETATM   27  C   UNL     1     -40.417  58.851 -51.395  1.00  0.00     0.116 A 
HETATM   28  F   UNL     1     -39.846  59.823 -50.676  1.00  0.00    -0.206 F 
HETATM   29  C   UNL     1     -40.246  58.828 -52.774  1.00  0.00     0.044 A 
HETATM   30  C   UNL     1     -40.837  57.813 -53.532  1.00  0.00     0.033 A 
ENDBRANCH   2  24
BRANCH   3  31
HETATM   31  C   UNL     1     -40.350  53.966 -53.342  1.00  0.00     0.315 C 
BRANCH  31  32
HETATM   32  N   UNL     1     -40.401  52.452 -53.151  1.00  0.00    -0.064 N 
HETATM   33  H   UNL     1     -41.400  52.249 -52.985  1.00  0.00     0.280 HD
HETATM   34  C   UNL     1     -40.027  51.693 -54.407  1.00  0.00     0.235 C 
HETATM   35  C   UNL     1     -40.294  50.210 -54.192  1.00  0.00     0.028 C 
HETATM   36  C   UNL     1     -39.541  49.680 -52.977  1.00  0.00     0.003 C 
HETATM   37  C   UNL     1     -39.853  50.502 -51.731  1.00  0.00     0.028 C 
HETATM   38  C   UNL     1     -39.615  51.989 -51.955  1.00  0.00     0.235 C 
ENDBRANCH  31  32
ENDBRANCH   3  31
TORSDOF 8
ENDMDL
MODEL 8
REMARK VINA RESULT:      -7.9      3.129      5.851
REMARK  8 active torsions:
REMARK  status: ('A' for Active; 'I' for Inactive)
REMARK    1  A    between atoms: C_2  and  S_3 
REMARK    2  A    between atoms: C_2  and  C_24 
REMARK    3  A    between atoms: S_3  and  C_4 
REMARK    4  A    between atoms: N_5  and  C_6 
REMARK    5  A    between atoms: C_13  and  C_14 
REMARK    6  A    between atoms: C_14  and  N_15 
REMARK       I    between atoms: C_24  and  N_25 
REMARK    7  A    between atoms: N_25  and  C_26 
REMARK    8  A    between atoms: C_29  and  C_30 
REMARK       I    between atoms: C_30  and  N_31 
ROOT
HETATM    1  C   UNL     1     -44.503  58.357 -56.559  1.00  0.00     0.197 A 
HETATM    2  N   UNL     1     -43.778  59.503 -56.270  1.00  0.00    -0.274 N 
HETATM    3  C   UNL     1     -43.865  59.599 -54.882  1.00  0.00     0.161 A 
HETATM    4  N   UNL     1     -44.639  58.637 -54.416  1.00  0.00    -0.132 NA
HETATM    5  N   UNL     1     -45.024  57.858 -55.461  1.00  0.00    -0.122 NA
ENDROOT
BRANCH   1   6
HETATM    6  S   UNL     1     -44.551  57.575 -58.105  1.00  0.00    -0.076 SA
BRANCH   6   7
HETATM    7  C   UNL     1     -42.898  56.785 -58.175  1.00  0.00     0.143 C 
HETATM    8  C   UNL     1     -42.641  56.192 -59.559  1.00  0.00     0.031 C 
BRANCH   7   9
HETATM    9  C   UNL     1     -42.778  55.677 -57.114  1.00  0.00     0.236 C 
HETATM   10  N   UNL     1     -41.766  55.947 -56.197  1.00  0.00    -0.326 N 
HETATM   11  H   UNL     1     -41.268  56.823 -56.303  1.00  0.00     0.169 HD
HETATM   12  O   UNL     1     -43.484  54.674 -57.118  1.00  0.00    -0.272 OA
BRANCH  10  13
HETATM   13  C   UNL     1     -41.338  55.142 -55.122  1.00  0.00     0.034 A 
HETATM   14  C   UNL     1     -40.552  53.996 -55.262  1.00  0.00     0.030 A 
HETATM   15  C   UNL     1     -40.163  53.254 -54.138  1.00  0.00     0.019 A 
HETATM   16  C   UNL     1     -40.564  53.648 -52.858  1.00  0.00     0.032 A 
HETATM   17  C   UNL     1     -41.340  54.803 -52.713  1.00  0.00     0.019 A 
HETATM   18  C   UNL     1     -41.726  55.541 -53.837  1.00  0.00     0.030 A 
BRANCH  16  19
HETATM   19  C   UNL     1     -40.177  52.905 -51.630  1.00  0.00     0.249 C 
HETATM   20  N   UNL     1     -40.622  53.381 -50.428  1.00  0.00    -0.366 N 
HETATM   21  H   UNL     1     -41.031  54.296 -50.309  1.00  0.00     0.159 HD
HETATM   22  H   UNL     1     -40.273  52.912 -49.602  1.00  0.00     0.159 HD
HETATM   23  O   UNL     1     -39.456  51.916 -51.683  1.00  0.00    -0.268 OA
ENDBRANCH  16  19
ENDBRANCH  10  13
ENDBRANCH   7   9
ENDBRANCH   6   7
ENDBRANCH   1   6
BRANCH   2  24
HETATM   24  C   UNL     1     -43.146  60.418 -57.155  1.00  0.00     0.043 A 
HETATM   25  C   UNL     1     -41.778  60.283 -57.441  1.00  0.00     0.033 A 
HETATM   26  C   UNL     1     -41.160  61.159 -58.338  1.00  0.00     0.044 A 
HETATM   27  C   UNL     1     -41.903  62.164 -58.941  1.00  0.00     0.116 A 
HETATM   28  F   UNL     1     -41.311  62.999 -59.802  1.00  0.00    -0.206 F 
HETATM   29  C   UNL     1     -43.255  62.316 -58.660  1.00  0.00     0.044 A 
HETATM   30  C   UNL     1     -43.883  61.445 -57.764  1.00  0.00     0.033 A 
ENDBRANCH   2  24
BRANCH   3  31
HETATM   31  C   UNL     1     -43.342  60.703 -54.030  1.00  0.00     0.315 C 
BRANCH  31  32
HETATM   32  N   UNL     1     -42.189  60.232 -53.145  1.00  0.00    -0.064 N 
HETATM   33  H   UNL     1     -41.604  61.074 -53.018  1.00  0.00     0.280 HD
HETATM   34  C   UNL     1     -42.646  59.831 -51.758  1.00  0.00     0.235 C 
HETATM   35  C   UNL     1     -41.425  59.569 -50.888  1.00  0.00     0.028 C 
HETATM   36  C   UNL     1     -40.520  58.507 -51.503  1.00  0.00     0.003 C 
HETATM   37  C   UNL     1     -40.134  58.872 -52.933  1.00  0.00     0.028 C 
HETATM   38  C   UNL     1     -41.353  59.165 -53.797  1.00  0.00     0.235 C 
ENDBRANCH  31  32
ENDBRANCH   3  31
TORSDOF 8
ENDMDL
MODEL 9
REMARK VINA RESULT:      -7.9      2.192      3.266
REMARK  8 active torsions:
REMARK  status: ('A' for Active; 'I' for Inactive)
REMARK    1  A    between atoms: C_2  and  S_3 
REMARK    2  A    between atoms: C_2  and  C_24 
REMARK    3  A    between atoms: S_3  and  C_4 
REMARK    4  A    between atoms: N_5  and  C_6 
REMARK    5  A    between atoms: C_13  and  C_14 
REMARK    6  A    between atoms: C_14  and  N_15 
REMARK       I    between atoms: C_24  and  N_25 
REMARK    7  A    between atoms: N_25  and  C_26 
REMARK    8  A    between atoms: C_29  and  C_30 
REMARK       I    between atoms: C_30  and  N_31 
ROOT
HETATM    1  C   UNL     1     -44.525  58.793 -54.969  1.00  0.00     0.197 A 
HETATM    2  N   UNL     1     -44.599  59.125 -56.313  1.00  0.00    -0.274 N 
HETATM    3  C   UNL     1     -44.317  60.490 -56.326  1.00  0.00     0.161 A 
HETATM    4  N   UNL     1     -44.170  60.926 -55.089  1.00  0.00    -0.132 NA
HETATM    5  N   UNL     1     -44.287  59.864 -54.248  1.00  0.00    -0.122 NA
ENDROOT
BRANCH   1   6
HETATM    6  S   UNL     1     -44.537  57.177 -54.342  1.00  0.00    -0.076 SA
BRANCH   6   7
HETATM    7  C   UNL     1     -42.804  56.983 -53.777  1.00  0.00     0.143 C 
HETATM    8  C   UNL     1     -41.833  57.172 -54.940  1.00  0.00     0.031 C 
BRANCH   7   9
HETATM    9  C   UNL     1     -42.588  55.594 -53.151  1.00  0.00     0.236 C 
HETATM   10  N   UNL     1     -41.398  55.013 -53.582  1.00  0.00    -0.326 N 
HETATM   11  H   UNL     1     -40.815  55.561 -54.203  1.00  0.00     0.169 HD
HETATM   12  O   UNL     1     -43.397  55.074 -52.390  1.00  0.00    -0.272 OA
BRANCH  10  13
HETATM   13  C   UNL     1     -40.895  53.737 -53.261  1.00  0.00     0.034 A 
HETATM   14  C   UNL     1     -40.420  53.373 -51.998  1.00  0.00     0.030 A 
HETATM   15  C   UNL     1     -39.942  52.077 -51.760  1.00  0.00     0.019 A 
HETATM   16  C   UNL     1     -39.927  51.129 -52.788  1.00  0.00     0.032 A 
HETATM   17  C   UNL     1     -40.413  51.487 -54.050  1.00  0.00     0.019 A 
HETATM   18  C   UNL     1     -40.890  52.780 -54.284  1.00  0.00     0.030 A 
BRANCH  16  19
HETATM   19  C   UNL     1     -39.438  49.739 -52.592  1.00  0.00     0.249 C 
HETATM   20  N   UNL     1     -39.220  49.312 -51.313  1.00  0.00    -0.366 N 
HETATM   21  H   UNL     1     -39.189  49.932 -50.517  1.00  0.00     0.159 HD
HETATM   22  H   UNL     1     -38.802  48.396 -51.210  1.00  0.00     0.159 HD
HETATM   23  O   UNL     1     -39.203  49.006 -53.545  1.00  0.00    -0.268 OA
ENDBRANCH  16  19
ENDBRANCH  10  13
ENDBRANCH   7   9
ENDBRANCH   6   7
ENDBRANCH   1   6
BRANCH   2  24
HETATM   24  C   UNL     1     -44.946  58.311 -57.425  1.00  0.00     0.043 A 
HETATM   25  C   UNL     1     -46.288  58.200 -57.820  1.00  0.00     0.033 A 
HETATM   26  C   UNL     1     -46.630  57.429 -58.934  1.00  0.00     0.044 A 
HETATM   27  C   UNL     1     -45.637  56.769 -59.645  1.00  0.00     0.116 A 
HETATM   28  F   UNL     1     -45.965  56.033 -60.713  1.00  0.00    -0.206 F 
HETATM   29  C   UNL     1     -44.305  56.860 -59.260  1.00  0.00     0.044 A 
HETATM   30  C   UNL     1     -43.953  57.629 -58.147  1.00  0.00     0.033 A 
ENDBRANCH   2  24
BRANCH   3  31
HETATM   31  C   UNL     1     -44.351  61.397 -57.506  1.00  0.00     0.315 C 
BRANCH  31  32
HETATM   32  N   UNL     1     -43.068  61.297 -58.330  1.00  0.00    -0.064 N 
HETATM   33  H   UNL     1     -42.612  60.436 -57.986  1.00  0.00     0.280 HD
HETATM   34  C   UNL     1     -43.338  61.065 -59.801  1.00  0.00     0.235 C 
HETATM   35  C   UNL     1     -42.022  60.780 -60.510  1.00  0.00     0.028 C 
HETATM   36  C   UNL     1     -41.020  61.910 -60.300  1.00  0.00     0.003 C 
HETATM   37  C   UNL     1     -40.818  62.199 -58.816  1.00  0.00     0.028 C 
HETATM   38  C   UNL     1     -42.136  62.455 -58.099  1.00  0.00     0.235 C 
ENDBRANCH  31  32
ENDBRANCH   3  31
TORSDOF 8
ENDMDL
MODEL 10
REMARK VINA RESULT:      -7.8      1.997      2.654
REMARK  8 active torsions:
REMARK  status: ('A' for Active; 'I' for Inactive)
REMARK    1  A    between atoms: C_2  and  S_3 
REMARK    2  A    between atoms: C_2  and  C_24 
REMARK    3  A    between atoms: S_3  and  C_4 
REMARK    4  A    between atoms: N_5  and  C_6 
REMARK    5  A    between atoms: C_13  and  C_14 
REMARK    6  A    between atoms: C_14  and  N_15 
REMARK       I    between atoms: C_24  and  N_25 
REMARK    7  A    between atoms: N_25  and  C_26 
REMARK    8  A    between atoms: C_29  and  C_30 
REMARK       I    between atoms: C_30  and  N_31 
ROOT
HETATM    1  C   UNL     1     -43.301  59.040 -54.487  1.00  0.00     0.197 A 
HETATM    2  N   UNL     1     -43.777  59.192 -55.781  1.00  0.00    -0.274 N 
HETATM    3  C   UNL     1     -44.938  59.944 -55.614  1.00  0.00     0.161 A 
HETATM    4  N   UNL     1     -45.157  60.144 -54.328  1.00  0.00    -0.132 NA
HETATM    5  N   UNL     1     -44.130  59.591 -53.631  1.00  0.00    -0.122 NA
ENDROOT
BRANCH   1   6
HETATM    6  S   UNL     1     -41.746  58.402 -54.069  1.00  0.00    -0.076 SA
BRANCH   6   7
HETATM    7  C   UNL     1     -42.126  57.463 -52.541  1.00  0.00     0.143 C 
HETATM    8  C   UNL     1     -41.088  57.752 -51.458  1.00  0.00     0.031 C 
BRANCH   7   9
HETATM    9  C   UNL     1     -42.161  55.951 -52.825  1.00  0.00     0.236 C 
HETATM   10  N   UNL     1     -40.967  55.331 -52.466  1.00  0.00    -0.326 N 
HETATM   11  H   UNL     1     -40.254  55.911 -52.041  1.00  0.00     0.169 HD
HETATM   12  O   UNL     1     -43.127  55.393 -53.334  1.00  0.00    -0.272 OA
BRANCH  10  13
HETATM   13  C   UNL     1     -40.619  53.974 -52.622  1.00  0.00     0.034 A 
HETATM   14  C   UNL     1     -40.138  53.161 -51.594  1.00  0.00     0.030 A 
HETATM   15  C   UNL     1     -39.821  51.817 -51.833  1.00  0.00     0.019 A 
HETATM   16  C   UNL     1     -39.977  51.271 -53.111  1.00  0.00     0.032 A 
HETATM   17  C   UNL     1     -40.471  52.079 -54.140  1.00  0.00     0.019 A 
HETATM   18  C   UNL     1     -40.786  53.420 -53.898  1.00  0.00     0.030 A 
BRANCH  16  19
HETATM   19  C   UNL     1     -39.663  49.851 -53.423  1.00  0.00     0.249 C 
HETATM   20  N   UNL     1     -39.287  49.039 -52.390  1.00  0.00    -0.366 N 
HETATM   21  H   UNL     1     -39.029  49.382 -51.477  1.00  0.00     0.159 HD
HETATM   22  H   UNL     1     -38.992  48.103 -52.640  1.00  0.00     0.159 HD
HETATM   23  O   UNL     1     -39.705  49.426 -54.570  1.00  0.00    -0.268 OA
ENDBRANCH  16  19
ENDBRANCH  10  13
ENDBRANCH   7   9
ENDBRANCH   6   7
ENDBRANCH   1   6
BRANCH   2  24
HETATM   24  C   UNL     1     -43.266  58.661 -56.997  1.00  0.00     0.043 A 
HETATM   25  C   UNL     1     -42.501  59.474 -57.848  1.00  0.00     0.033 A 
HETATM   26  C   UNL     1     -41.967  58.948 -59.028  1.00  0.00     0.044 A 
HETATM   27  C   UNL     1     -42.201  57.619 -59.356  1.00  0.00     0.116 A 
HETATM   28  F   UNL     1     -41.687  57.116 -60.484  1.00  0.00    -0.206 F 
HETATM   29  C   UNL     1     -42.965  56.805 -58.529  1.00  0.00     0.044 A 
HETATM   30  C   UNL     1     -43.503  57.323 -57.346  1.00  0.00     0.033 A 
ENDBRANCH   2  24
BRANCH   3  31
HETATM   31  C   UNL     1     -45.913  60.327 -56.672  1.00  0.00     0.315 C 
BRANCH  31  32
HETATM   32  N   UNL     1     -45.924  59.318 -57.819  1.00  0.00    -0.064 N 
HETATM   33  H   UNL     1     -45.073  58.751 -57.667  1.00  0.00     0.280 HD
HETATM   34  C   UNL     1     -47.087  58.352 -57.735  1.00  0.00     0.235 C 
HETATM   35  C   UNL     1     -46.913  57.269 -58.789  1.00  0.00     0.028 C 
HETATM   36  C   UNL     1     -46.786  57.866 -60.186  1.00  0.00     0.003 C 
HETATM   37  C   UNL     1     -45.669  58.904 -60.244  1.00  0.00     0.028 C 
HETATM   38  C   UNL     1     -45.826  59.971 -59.170  1.00  0.00     0.235 C 
ENDBRANCH  31  32
ENDBRANCH   3  31
TORSDOF 8
ENDMDL
