MODEL 1
REMARK VINA RESULT:      -8.5      0.000      0.000
REMARK  7 active torsions:
REMARK  status: ('A' for Active; 'I' for Inactive)
REMARK    1  A    between atoms: C_5  and  N_6 
REMARK    2  A    between atoms: C_7  and  S_8 
REMARK    3  A    between atoms: S_8  and  C_9 
REMARK    4  A    between atoms: C_9  and  C_10 
REMARK       I    between atoms: C_10  and  N_11 
REMARK    5  A    between atoms: C_13  and  C_14 
REMARK    6  A    between atoms: C_14  and  N_15 
REMARK       I    between atoms: N_15  and  C_16 
REMARK       I    between atoms: C_16  and  N_17 
REMARK    7  A    between atoms: N_17  and  C_18 
ROOT
HETATM    1  C   UNL     1     -44.894  60.014 -53.665  1.00  0.00     0.229 C 
HETATM    2  N   UNL     1     -43.589  59.606 -53.364  1.00  0.00    -0.351 N 
HETATM    3  C   UNL     1     -43.421  58.785 -52.165  1.00  0.00     0.132 C 
HETATM    4  C   UNL     1     -42.206  57.850 -52.257  1.00  0.00     0.021 C 
HETATM    5  C   UNL     1     -40.949  58.641 -52.645  1.00  0.00     0.009 C 
HETATM    6  C   UNL     1     -41.191  59.444 -53.922  1.00  0.00     0.020 C 
HETATM    7  C   UNL     1     -42.404  60.354 -53.783  1.00  0.00     0.126 C 
HETATM    8  O   UNL     1     -45.834  59.729 -52.917  1.00  0.00    -0.273 OA
ENDROOT
BRANCH   1   9
HETATM    9  C   UNL     1     -45.139  60.872 -54.901  1.00  0.00     0.185 C 
BRANCH   9  10
HETATM   10  S   UNL     1     -45.206  59.907 -56.440  1.00  0.00    -0.082 SA
BRANCH  10  11
HETATM   11  C   UNL     1     -43.673  60.285 -57.164  1.00  0.00     0.173 A 
HETATM   12  N   UNL     1     -42.705  59.340 -57.477  1.00  0.00    -0.299 N 
HETATM   13  C   UNL     1     -41.602  60.070 -57.883  1.00  0.00     0.118 A 
HETATM   14  C   UNL     1     -41.962  61.391 -57.794  1.00  0.00     0.137 A 
HETATM   15  N   UNL     1     -43.238  61.514 -57.331  1.00  0.00    -0.235 NA
BRANCH  12  16
HETATM   16  C   UNL     1     -42.790  57.917 -57.498  1.00  0.00     0.047 A 
HETATM   17  C   UNL     1     -43.277  57.215 -58.629  1.00  0.00    -0.029 A 
HETATM   18  C   UNL     1     -43.464  55.813 -58.527  1.00  0.00    -0.054 A 
HETATM   19  C   UNL     1     -43.562  57.900 -59.945  1.00  0.00     0.051 C 
HETATM   20  C   UNL     1     -44.005  54.993 -59.670  1.00  0.00     0.049 C 
HETATM   21  C   UNL     1     -43.094  55.143 -57.350  1.00  0.00     0.007 A 
HETATM   22  C   UNL     1     -42.578  55.840 -56.263  1.00  0.00     0.003 A 
HETATM   23  C   UNL     1     -42.437  57.223 -56.329  1.00  0.00     0.030 A 
ENDBRANCH  12  16
ENDBRANCH  10  11
ENDBRANCH   9  10
ENDBRANCH   1   9
BRANCH   4  24
HETATM   24  C   UNL     1     -42.046  57.095 -50.929  1.00  0.00     0.130 C 
BRANCH  24  25
HETATM   25  N   UNL     1     -42.806  55.856 -50.895  1.00  0.00    -0.342 N 
HETATM   26  C   UNL     1     -42.499  54.591 -51.302  1.00  0.00     0.320 C 
HETATM   27  N   UNL     1     -41.212  54.387 -51.713  1.00  0.00    -0.309 N 
HETATM   28  O   UNL     1     -43.396  53.756 -51.270  1.00  0.00    -0.247 OA
HETATM   29  H   UNL     1     -40.567  55.141 -51.555  1.00  0.00     0.170 HD
HETATM   30  H   UNL     1     -43.781  55.922 -50.623  1.00  0.00     0.164 HD
BRANCH  27  31
HETATM   31  C   UNL     1     -40.655  53.204 -52.243  1.00  0.00     0.039 A 
HETATM   32  C   UNL     1     -40.032  52.220 -51.476  1.00  0.00     0.071 A 
HETATM   33  C   UNL     1     -39.518  51.083 -52.094  1.00  0.00     0.118 A 
HETATM   34  F   UNL     1     -38.921  50.141 -51.350  1.00  0.00    -0.206 F 
HETATM   35  C   UNL     1     -39.613  50.900 -53.468  1.00  0.00     0.042 A 
HETATM   36  C   UNL     1     -40.236  51.873 -54.242  1.00  0.00     0.005 A 
HETATM   37  C   UNL     1     -40.755  53.018 -53.632  1.00  0.00     0.030 A 
ENDBRANCH  27  31
ENDBRANCH  24  25
ENDBRANCH   4  24
TORSDOF 7
ENDMDL
MODEL 2
REMARK VINA RESULT:      -8.5      2.900      6.712
REMARK  7 active torsions:
REMARK  status: ('A' for Active; 'I' for Inactive)
REMARK    1  A    between atoms: C_5  and  N_6 
REMARK    2  A    between atoms: C_7  and  S_8 
REMARK    3  A    between atoms: S_8  and  C_9 
REMARK    4  A    between atoms: C_9  and  C_10 
REMARK       I    between atoms: C_10  and  N_11 
REMARK    5  A    between atoms: C_13  and  C_14 
REMARK    6  A    between atoms: C_14  and  N_15 
REMARK       I    between atoms: N_15  and  C_16 
REMARK       I    between atoms: C_16  and  N_17 
REMARK    7  A    between atoms: N_17  and  C_18 
ROOT
HETATM    1  C   UNL     1     -41.025  59.440 -52.081  1.00  0.00     0.229 C 
HETATM    2  N   UNL     1     -42.119  60.278 -52.331  1.00  0.00    -0.351 N 
HETATM    3  C   UNL     1     -42.237  60.814 -53.686  1.00  0.00     0.132 C 
HETATM    4  C   UNL     1     -43.692  61.115 -54.076  1.00  0.00     0.021 C 
HETATM    5  C   UNL     1     -44.364  61.987 -53.007  1.00  0.00     0.009 C 
HETATM    6  C   UNL     1     -44.229  61.347 -51.626  1.00  0.00     0.020 C 
HETATM    7  C   UNL     1     -42.772  61.067 -51.285  1.00  0.00     0.126 C 
HETATM    8  O   UNL     1     -40.187  59.217 -52.960  1.00  0.00    -0.273 OA
ENDROOT
BRANCH   1   9
HETATM    9  C   UNL     1     -40.844  58.848 -50.689  1.00  0.00     0.185 C 
BRANCH   9  10
HETATM   10  S   UNL     1     -41.169  57.061 -50.623  1.00  0.00    -0.082 SA
BRANCH  10  11
HETATM   11  C   UNL     1     -42.669  56.940 -51.489  1.00  0.00     0.173 A 
HETATM   12  N   UNL     1     -42.828  56.244 -52.681  1.00  0.00    -0.299 N 
HETATM   13  C   UNL     1     -44.115  56.529 -53.100  1.00  0.00     0.118 A 
HETATM   14  C   UNL     1     -44.652  57.366 -52.153  1.00  0.00     0.137 A 
HETATM   15  N   UNL     1     -43.743  57.628 -51.171  1.00  0.00    -0.235 NA
BRANCH  12  16
HETATM   16  C   UNL     1     -41.943  55.338 -53.334  1.00  0.00     0.047 A 
HETATM   17  C   UNL     1     -41.555  54.112 -52.736  1.00  0.00    -0.029 A 
HETATM   18  C   UNL     1     -40.566  53.328 -53.381  1.00  0.00    -0.054 A 
HETATM   19  C   UNL     1     -42.187  53.597 -51.465  1.00  0.00     0.051 C 
HETATM   20  C   UNL     1     -40.072  52.027 -52.802  1.00  0.00     0.049 C 
HETATM   21  C   UNL     1     -40.052  53.735 -54.623  1.00  0.00     0.007 A 
HETATM   22  C   UNL     1     -40.472  54.919 -55.217  1.00  0.00     0.003 A 
HETATM   23  C   UNL     1     -41.405  55.726 -54.572  1.00  0.00     0.030 A 
ENDBRANCH  12  16
ENDBRANCH  10  11
ENDBRANCH   9  10
ENDBRANCH   1   9
BRANCH   4  24
HETATM   24  C   UNL     1     -43.720  61.757 -55.471  1.00  0.00     0.130 C 
BRANCH  24  25
HETATM   25  N   UNL     1     -42.522  61.468 -56.244  1.00  0.00    -0.342 N 
HETATM   26  C   UNL     1     -42.188  60.413 -57.038  1.00  0.00     0.320 C 
HETATM   27  N   UNL     1     -43.174  59.497 -57.269  1.00  0.00    -0.309 N 
HETATM   28  O   UNL     1     -41.040  60.373 -57.468  1.00  0.00    -0.247 OA
HETATM   29  H   UNL     1     -44.096  59.741 -56.952  1.00  0.00     0.170 HD
HETATM   30  H   UNL     1     -41.731  62.088 -56.113  1.00  0.00     0.164 HD
BRANCH  27  31
HETATM   31  C   UNL     1     -43.076  58.287 -57.990  1.00  0.00     0.039 A 
HETATM   32  C   UNL     1     -43.233  57.023 -57.422  1.00  0.00     0.071 A 
HETATM   33  C   UNL     1     -43.123  55.888 -58.221  1.00  0.00     0.118 A 
HETATM   34  F   UNL     1     -43.277  54.676 -57.668  1.00  0.00    -0.206 F 
HETATM   35  C   UNL     1     -42.863  55.982 -59.583  1.00  0.00     0.042 A 
HETATM   36  C   UNL     1     -42.709  57.238 -60.160  1.00  0.00     0.005 A 
HETATM   37  C   UNL     1     -42.816  58.384 -59.367  1.00  0.00     0.030 A 
ENDBRANCH  27  31
ENDBRANCH  24  25
ENDBRANCH   4  24
TORSDOF 7
ENDMDL
MODEL 3
REMARK VINA RESULT:      -8.4      1.521      2.044
REMARK  7 active torsions:
REMARK  status: ('A' for Active; 'I' for Inactive)
REMARK    1  A    between atoms: C_5  and  N_6 
REMARK    2  A    between atoms: C_7  and  S_8 
REMARK    3  A    between atoms: S_8  and  C_9 
REMARK    4  A    between atoms: C_9  and  C_10 
REMARK       I    between atoms: C_10  and  N_11 
REMARK    5  A    between atoms: C_13  and  C_14 
REMARK    6  A    between atoms: C_14  and  N_15 
REMARK       I    between atoms: N_15  and  C_16 
REMARK       I    between atoms: C_16  and  N_17 
REMARK    7  A    between atoms: N_17  and  C_18 
ROOT
HETATM    1  C   UNL     1     -44.297  58.027 -53.621  1.00  0.00     0.229 C 
HETATM    2  N   UNL     1     -43.416  58.518 -52.650  1.00  0.00    -0.351 N 
HETATM    3  C   UNL     1     -42.812  57.531 -51.756  1.00  0.00     0.132 C 
HETATM    4  C   UNL     1     -41.439  57.976 -51.227  1.00  0.00     0.021 C 
HETATM    5  C   UNL     1     -41.529  59.384 -50.623  1.00  0.00     0.009 C 
HETATM    6  C   UNL     1     -42.136  60.364 -51.625  1.00  0.00     0.020 C 
HETATM    7  C   UNL     1     -43.493  59.880 -52.120  1.00  0.00     0.126 C 
HETATM    8  O   UNL     1     -44.576  56.825 -53.671  1.00  0.00    -0.273 OA
ENDROOT
BRANCH   1   9
HETATM    9  C   UNL     1     -44.960  59.003 -54.585  1.00  0.00     0.185 C 
BRANCH   9  10
HETATM   10  S   UNL     1     -45.331  58.268 -56.205  1.00  0.00    -0.082 SA
BRANCH  10  11
HETATM   11  C   UNL     1     -43.914  58.688 -57.118  1.00  0.00     0.173 A 
HETATM   12  N   UNL     1     -43.471  57.991 -58.235  1.00  0.00    -0.299 N 
HETATM   13  C   UNL     1     -42.250  58.556 -58.556  1.00  0.00     0.118 A 
HETATM   14  C   UNL     1     -42.029  59.546 -57.631  1.00  0.00     0.137 A 
HETATM   15  N   UNL     1     -43.056  59.607 -56.736  1.00  0.00    -0.235 NA
BRANCH  12  16
HETATM   16  C   UNL     1     -44.122  56.977 -58.997  1.00  0.00     0.047 A 
HETATM   17  C   UNL     1     -45.284  57.249 -59.763  1.00  0.00    -0.029 A 
HETATM   18  C   UNL     1     -45.955  56.165 -60.381  1.00  0.00    -0.054 A 
HETATM   19  C   UNL     1     -45.802  58.652 -59.976  1.00  0.00     0.051 C 
HETATM   20  C   UNL     1     -47.213  56.358 -61.189  1.00  0.00     0.049 C 
HETATM   21  C   UNL     1     -45.422  54.869 -60.290  1.00  0.00     0.007 A 
HETATM   22  C   UNL     1     -44.259  54.624 -59.569  1.00  0.00     0.003 A 
HETATM   23  C   UNL     1     -43.615  55.669 -58.914  1.00  0.00     0.030 A 
ENDBRANCH  12  16
ENDBRANCH  10  11
ENDBRANCH   9  10
ENDBRANCH   1   9
BRANCH   4  24
HETATM   24  C   UNL     1     -40.919  56.932 -50.228  1.00  0.00     0.130 C 
BRANCH  24  25
HETATM   25  N   UNL     1     -41.794  55.775 -50.122  1.00  0.00    -0.342 N 
HETATM   26  C   UNL     1     -41.728  54.534 -50.679  1.00  0.00     0.320 C 
HETATM   27  N   UNL     1     -40.590  54.246 -51.378  1.00  0.00    -0.309 N 
HETATM   28  O   UNL     1     -42.690  53.791 -50.514  1.00  0.00    -0.247 OA
HETATM   29  H   UNL     1     -39.843  54.914 -51.310  1.00  0.00     0.170 HD
HETATM   30  H   UNL     1     -42.675  55.909 -49.637  1.00  0.00     0.164 HD
BRANCH  27  31
HETATM   31  C   UNL     1     -40.299  53.073 -52.106  1.00  0.00     0.039 A 
HETATM   32  C   UNL     1     -39.830  51.892 -51.531  1.00  0.00     0.071 A 
HETATM   33  C   UNL     1     -39.578  50.783 -52.335  1.00  0.00     0.118 A 
HETATM   34  F   UNL     1     -39.129  49.651 -51.775  1.00  0.00    -0.206 F 
HETATM   35  C   UNL     1     -39.786  50.823 -53.709  1.00  0.00     0.042 A 
HETATM   36  C   UNL     1     -40.256  51.995 -54.292  1.00  0.00     0.005 A 
HETATM   37  C   UNL     1     -40.513  53.113 -53.493  1.00  0.00     0.030 A 
ENDBRANCH  27  31
ENDBRANCH  24  25
ENDBRANCH   4  24
TORSDOF 7
ENDMDL
MODEL 4
REMARK VINA RESULT:      -8.4      1.968      2.829
REMARK  7 active torsions:
REMARK  status: ('A' for Active; 'I' for Inactive)
REMARK    1  A    between atoms: C_5  and  N_6 
REMARK    2  A    between atoms: C_7  and  S_8 
REMARK    3  A    between atoms: S_8  and  C_9 
REMARK    4  A    between atoms: C_9  and  C_10 
REMARK       I    between atoms: C_10  and  N_11 
REMARK    5  A    between atoms: C_13  and  C_14 
REMARK    6  A    between atoms: C_14  and  N_15 
REMARK       I    between atoms: N_15  and  C_16 
REMARK       I    between atoms: C_16  and  N_17 
REMARK    7  A    between atoms: N_17  and  C_18 
ROOT
HETATM    1  C   UNL     1     -43.472  60.025 -55.672  1.00  0.00     0.229 C 
HETATM    2  N   UNL     1     -42.891  58.755 -55.569  1.00  0.00    -0.351 N 
HETATM    3  C   UNL     1     -42.148  58.473 -54.342  1.00  0.00     0.132 C 
HETATM    4  C   UNL     1     -42.139  56.977 -53.989  1.00  0.00     0.021 C 
HETATM    5  C   UNL     1     -41.679  56.146 -55.195  1.00  0.00     0.009 C 
HETATM    6  C   UNL     1     -42.522  56.470 -56.427  1.00  0.00     0.020 C 
HETATM    7  C   UNL     1     -42.501  57.962 -56.735  1.00  0.00     0.126 C 
HETATM    8  O   UNL     1     -43.310  60.867 -54.783  1.00  0.00    -0.273 OA
ENDROOT
BRANCH   1   9
HETATM    9  C   UNL     1     -44.260  60.384 -56.925  1.00  0.00     0.185 C 
BRANCH   9  10
HETATM   10  S   UNL     1     -45.769  59.392 -57.131  1.00  0.00    -0.082 SA
BRANCH  10  11
HETATM   11  C   UNL     1     -46.235  59.787 -58.757  1.00  0.00     0.173 A 
HETATM   12  N   UNL     1     -45.625  59.267 -59.891  1.00  0.00    -0.299 N 
HETATM   13  C   UNL     1     -46.191  59.950 -60.953  1.00  0.00     0.118 A 
HETATM   14  C   UNL     1     -47.095  60.827 -60.409  1.00  0.00     0.137 A 
HETATM   15  N   UNL     1     -47.102  60.731 -59.049  1.00  0.00    -0.235 NA
BRANCH  12  16
HETATM   16  C   UNL     1     -44.691  58.198 -60.018  1.00  0.00     0.047 A 
HETATM   17  C   UNL     1     -45.089  56.842 -59.901  1.00  0.00    -0.029 A 
HETATM   18  C   UNL     1     -44.086  55.840 -59.899  1.00  0.00    -0.054 A 
HETATM   19  C   UNL     1     -46.540  56.429 -59.822  1.00  0.00     0.051 C 
HETATM   20  C   UNL     1     -44.416  54.377 -59.749  1.00  0.00     0.049 C 
HETATM   21  C   UNL     1     -42.741  56.198 -60.088  1.00  0.00     0.007 A 
HETATM   22  C   UNL     1     -42.371  57.529 -60.242  1.00  0.00     0.003 A 
HETATM   23  C   UNL     1     -43.338  58.528 -60.196  1.00  0.00     0.030 A 
ENDBRANCH  12  16
ENDBRANCH  10  11
ENDBRANCH   9  10
ENDBRANCH   1   9
BRANCH   4  24
HETATM   24  C   UNL     1     -41.265  56.756 -52.746  1.00  0.00     0.130 C 
BRANCH  24  25
HETATM   25  N   UNL     1     -41.813  55.752 -51.848  1.00  0.00    -0.342 N 
HETATM   26  C   UNL     1     -41.611  54.407 -51.759  1.00  0.00     0.320 C 
HETATM   27  N   UNL     1     -40.636  53.889 -52.563  1.00  0.00    -0.309 N 
HETATM   28  O   UNL     1     -42.319  53.783 -50.975  1.00  0.00    -0.247 OA
HETATM   29  H   UNL     1     -40.060  54.552 -53.051  1.00  0.00     0.170 HD
HETATM   30  H   UNL     1     -42.561  56.048 -51.231  1.00  0.00     0.164 HD
BRANCH  27  31
HETATM   31  C   UNL     1     -40.275  52.534 -52.717  1.00  0.00     0.039 A 
HETATM   32  C   UNL     1     -39.807  51.726 -51.681  1.00  0.00     0.071 A 
HETATM   33  C   UNL     1     -39.483  50.396 -51.933  1.00  0.00     0.118 A 
HETATM   34  F   UNL     1     -39.035  49.625 -50.932  1.00  0.00    -0.206 F 
HETATM   35  C   UNL     1     -39.618  49.846 -53.203  1.00  0.00     0.042 A 
HETATM   36  C   UNL     1     -40.087  50.641 -54.242  1.00  0.00     0.005 A 
HETATM   37  C   UNL     1     -40.416  51.978 -54.000  1.00  0.00     0.030 A 
ENDBRANCH  27  31
ENDBRANCH  24  25
ENDBRANCH   4  24
TORSDOF 7
ENDMDL
MODEL 5
REMARK VINA RESULT:      -8.2      1.769      2.497
REMARK  7 active torsions:
REMARK  status: ('A' for Active; 'I' for Inactive)
REMARK    1  A    between atoms: C_5  and  N_6 
REMARK    2  A    between atoms: C_7  and  S_8 
REMARK    3  A    between atoms: S_8  and  C_9 
REMARK    4  A    between atoms: C_9  and  C_10 
REMARK       I    between atoms: C_10  and  N_11 
REMARK    5  A    between atoms: C_13  and  C_14 
REMARK    6  A    between atoms: C_14  and  N_15 
REMARK       I    between atoms: N_15  and  C_16 
REMARK       I    between atoms: C_16  and  N_17 
REMARK    7  A    between atoms: N_17  and  C_18 
ROOT
HETATM    1  C   UNL     1     -42.156  58.488 -55.069  1.00  0.00     0.229 C 
HETATM    2  N   UNL     1     -42.116  58.771 -53.698  1.00  0.00    -0.351 N 
HETATM    3  C   UNL     1     -41.897  57.636 -52.802  1.00  0.00     0.132 C 
HETATM    4  C   UNL     1     -41.208  58.044 -51.491  1.00  0.00     0.021 C 
HETATM    5  C   UNL     1     -41.955  59.214 -50.835  1.00  0.00     0.009 C 
HETATM    6  C   UNL     1     -42.114  60.372 -51.819  1.00  0.00     0.020 C 
HETATM    7  C   UNL     1     -42.800  59.919 -53.101  1.00  0.00     0.126 C 
HETATM    8  O   UNL     1     -42.062  57.327 -55.477  1.00  0.00    -0.273 OA
ENDROOT
BRANCH   1   9
HETATM    9  C   UNL     1     -42.381  59.626 -56.057  1.00  0.00     0.185 C 
BRANCH   9  10
HETATM   10  S   UNL     1     -43.907  59.441 -57.027  1.00  0.00    -0.082 SA
BRANCH  10  11
HETATM   11  C   UNL     1     -43.351  59.791 -58.635  1.00  0.00     0.173 A 
HETATM   12  N   UNL     1     -43.665  59.028 -59.752  1.00  0.00    -0.299 N 
HETATM   13  C   UNL     1     -42.906  59.557 -60.780  1.00  0.00     0.118 A 
HETATM   14  C   UNL     1     -42.189  60.593 -60.235  1.00  0.00     0.137 A 
HETATM   15  N   UNL     1     -42.457  60.717 -58.903  1.00  0.00    -0.235 NA
BRANCH  12  16
HETATM   16  C   UNL     1     -44.623  57.983 -59.905  1.00  0.00     0.047 A 
HETATM   17  C   UNL     1     -44.272  56.619 -59.741  1.00  0.00    -0.029 A 
HETATM   18  C   UNL     1     -45.240  55.629 -60.044  1.00  0.00    -0.054 A 
HETATM   19  C   UNL     1     -42.921  56.189 -59.218  1.00  0.00     0.051 C 
HETATM   20  C   UNL     1     -44.944  54.156 -59.927  1.00  0.00     0.049 C 
HETATM   21  C   UNL     1     -46.537  56.014 -60.420  1.00  0.00     0.007 A 
HETATM   22  C   UNL     1     -46.879  57.357 -60.536  1.00  0.00     0.003 A 
HETATM   23  C   UNL     1     -45.925  58.340 -60.292  1.00  0.00     0.030 A 
ENDBRANCH  12  16
ENDBRANCH  10  11
ENDBRANCH   9  10
ENDBRANCH   1   9
BRANCH   4  24
HETATM   24  C   UNL     1     -41.101  56.818 -50.573  1.00  0.00     0.130 C 
BRANCH  24  25
HETATM   25  N   UNL     1     -42.103  55.807 -50.870  1.00  0.00    -0.342 N 
HETATM   26  C   UNL     1     -41.997  54.545 -51.372  1.00  0.00     0.320 C 
HETATM   27  N   UNL     1     -40.729  54.063 -51.527  1.00  0.00    -0.309 N 
HETATM   28  O   UNL     1     -43.039  53.958 -51.646  1.00  0.00    -0.247 OA
HETATM   29  H   UNL     1     -39.988  54.617 -51.135  1.00  0.00     0.170 HD
HETATM   30  H   UNL     1     -43.075  56.090 -50.803  1.00  0.00     0.164 HD
BRANCH  27  31
HETATM   31  C   UNL     1     -40.338  52.827 -52.085  1.00  0.00     0.039 A 
HETATM   32  C   UNL     1     -39.912  51.730 -51.337  1.00  0.00     0.071 A 
HETATM   33  C   UNL     1     -39.553  50.549 -51.983  1.00  0.00     0.118 A 
HETATM   34  F   UNL     1     -39.146  49.498 -51.257  1.00  0.00    -0.206 F 
HETATM   35  C   UNL     1     -39.613  50.434 -53.366  1.00  0.00     0.042 A 
HETATM   36  C   UNL     1     -40.040  51.520 -54.122  1.00  0.00     0.005 A 
HETATM   37  C   UNL     1     -40.402  52.710 -53.484  1.00  0.00     0.030 A 
ENDBRANCH  27  31
ENDBRANCH  24  25
ENDBRANCH   4  24
TORSDOF 7
ENDMDL
MODEL 6
REMARK VINA RESULT:      -8.1      1.634      2.479
REMARK  7 active torsions:
REMARK  status: ('A' for Active; 'I' for Inactive)
REMARK    1  A    between atoms: C_5  and  N_6 
REMARK    2  A    between atoms: C_7  and  S_8 
REMARK    3  A    between atoms: S_8  and  C_9 
REMARK    4  A    between atoms: C_9  and  C_10 
REMARK       I    between atoms: C_10  and  N_11 
REMARK    5  A    between atoms: C_13  and  C_14 
REMARK    6  A    between atoms: C_14  and  N_15 
REMARK       I    between atoms: N_15  and  C_16 
REMARK       I    between atoms: C_16  and  N_17 
REMARK    7  A    between atoms: N_17  and  C_18 
ROOT
HETATM    1  C   UNL     1     -42.770  60.064 -55.121  1.00  0.00     0.229 C 
HETATM    2  N   UNL     1     -43.243  59.569 -53.899  1.00  0.00    -0.351 N 
HETATM    3  C   UNL     1     -42.318  58.743 -53.125  1.00  0.00     0.132 C 
HETATM    4  C   UNL     1     -42.590  58.811 -51.614  1.00  0.00     0.021 C 
HETATM    5  C   UNL     1     -44.069  58.520 -51.323  1.00  0.00     0.009 C 
HETATM    6  C   UNL     1     -44.971  59.443 -52.141  1.00  0.00     0.020 C 
HETATM    7  C   UNL     1     -44.663  59.342 -53.629  1.00  0.00     0.126 C 
HETATM    8  O   UNL     1     -41.644  59.764 -55.530  1.00  0.00    -0.273 OA
ENDROOT
BRANCH   1   9
HETATM    9  C   UNL     1     -43.684  60.931 -55.977  1.00  0.00     0.185 C 
BRANCH   9  10
HETATM   10  S   UNL     1     -44.680  59.974 -57.158  1.00  0.00    -0.082 SA
BRANCH  10  11
HETATM   11  C   UNL     1     -43.688  60.026 -58.583  1.00  0.00     0.173 A 
HETATM   12  N   UNL     1     -43.705  59.060 -59.582  1.00  0.00    -0.299 N 
HETATM   13  C   UNL     1     -42.673  59.402 -60.436  1.00  0.00     0.118 A 
HETATM   14  C   UNL     1     -42.101  60.536 -59.915  1.00  0.00     0.137 A 
HETATM   15  N   UNL     1     -42.724  60.903 -58.759  1.00  0.00    -0.235 NA
BRANCH  12  16
HETATM   16  C   UNL     1     -44.617  57.986 -59.798  1.00  0.00     0.047 A 
HETATM   17  C   UNL     1     -44.236  56.633 -59.607  1.00  0.00    -0.029 A 
HETATM   18  C   UNL     1     -45.150  55.615 -59.974  1.00  0.00    -0.054 A 
HETATM   19  C   UNL     1     -42.913  56.246 -58.989  1.00  0.00     0.051 C 
HETATM   20  C   UNL     1     -44.817  54.151 -59.833  1.00  0.00     0.049 C 
HETATM   21  C   UNL     1     -46.429  55.959 -60.441  1.00  0.00     0.007 A 
HETATM   22  C   UNL     1     -46.803  57.290 -60.584  1.00  0.00     0.003 A 
HETATM   23  C   UNL     1     -45.899  58.302 -60.276  1.00  0.00     0.030 A 
ENDBRANCH  12  16
ENDBRANCH  10  11
ENDBRANCH   9  10
ENDBRANCH   1   9
BRANCH   4  24
HETATM   24  C   UNL     1     -41.640  57.848 -50.886  1.00  0.00     0.130 C 
BRANCH  24  25
HETATM   25  N   UNL     1     -42.296  56.615 -50.481  1.00  0.00    -0.342 N 
HETATM   26  C   UNL     1     -42.084  55.316 -50.834  1.00  0.00     0.320 C 
HETATM   27  N   UNL     1     -40.992  55.075 -51.618  1.00  0.00    -0.309 N 
HETATM   28  O   UNL     1     -42.888  54.484 -50.427  1.00  0.00    -0.247 OA
HETATM   29  H   UNL     1     -40.363  55.846 -51.757  1.00  0.00     0.170 HD
HETATM   30  H   UNL     1     -43.133  56.705 -49.914  1.00  0.00     0.164 HD
BRANCH  27  31
HETATM   31  C   UNL     1     -40.588  53.845 -52.178  1.00  0.00     0.039 A 
HETATM   32  C   UNL     1     -39.976  52.821 -51.456  1.00  0.00     0.071 A 
HETATM   33  C   UNL     1     -39.619  51.638 -52.100  1.00  0.00     0.118 A 
HETATM   34  F   UNL     1     -39.032  50.658 -51.399  1.00  0.00    -0.206 F 
HETATM   35  C   UNL     1     -39.862  51.450 -53.455  1.00  0.00     0.042 A 
HETATM   36  C   UNL     1     -40.474  52.463 -54.183  1.00  0.00     0.005 A 
HETATM   37  C   UNL     1     -40.837  53.654 -53.547  1.00  0.00     0.030 A 
ENDBRANCH  27  31
ENDBRANCH  24  25
ENDBRANCH   4  24
TORSDOF 7
ENDMDL
MODEL 7
REMARK VINA RESULT:      -8.0      2.046      2.744
REMARK  7 active torsions:
REMARK  status: ('A' for Active; 'I' for Inactive)
REMARK    1  A    between atoms: C_5  and  N_6 
REMARK    2  A    between atoms: C_7  and  S_8 
REMARK    3  A    between atoms: S_8  and  C_9 
REMARK    4  A    between atoms: C_9  and  C_10 
REMARK       I    between atoms: C_10  and  N_11 
REMARK    5  A    between atoms: C_13  and  C_14 
REMARK    6  A    between atoms: C_14  and  N_15 
REMARK       I    between atoms: N_15  and  C_16 
REMARK       I    between atoms: C_16  and  N_17 
REMARK    7  A    between atoms: N_17  and  C_18 
ROOT
HETATM    1  C   UNL     1     -44.317  58.024 -55.859  1.00  0.00     0.229 C 
HETATM    2  N   UNL     1     -43.901  58.288 -54.548  1.00  0.00    -0.351 N 
HETATM    3  C   UNL     1     -43.000  57.311 -53.939  1.00  0.00     0.132 C 
HETATM    4  C   UNL     1     -42.085  57.936 -52.874  1.00  0.00     0.021 C 
HETATM    5  C   UNL     1     -42.914  58.731 -51.856  1.00  0.00     0.009 C 
HETATM    6  C   UNL     1     -43.803  59.752 -52.564  1.00  0.00     0.020 C 
HETATM    7  C   UNL     1     -44.689  59.086 -53.609  1.00  0.00     0.126 C 
HETATM    8  O   UNL     1     -43.971  56.988 -56.436  1.00  0.00    -0.273 OA
ENDROOT
BRANCH   1   9
HETATM    9  C   UNL     1     -45.257  59.002 -56.553  1.00  0.00     0.185 C 
BRANCH   9  10
HETATM   10  S   UNL     1     -44.386  60.360 -57.390  1.00  0.00    -0.082 SA
BRANCH  10  11
HETATM   11  C   UNL     1     -45.202  60.415 -58.922  1.00  0.00     0.173 A 
HETATM   12  N   UNL     1     -44.931  59.559 -59.982  1.00  0.00    -0.299 N 
HETATM   13  C   UNL     1     -45.683  60.040 -61.039  1.00  0.00     0.118 A 
HETATM   14  C   UNL     1     -46.354  61.139 -60.566  1.00  0.00     0.137 A 
HETATM   15  N   UNL     1     -46.036  61.374 -59.261  1.00  0.00    -0.235 NA
BRANCH  12  16
HETATM   16  C   UNL     1     -44.145  58.371 -60.018  1.00  0.00     0.047 A 
HETATM   17  C   UNL     1     -44.723  57.087 -59.848  1.00  0.00    -0.029 A 
HETATM   18  C   UNL     1     -43.863  55.964 -59.756  1.00  0.00    -0.054 A 
HETATM   19  C   UNL     1     -46.218  56.874 -59.802  1.00  0.00     0.051 C 
HETATM   20  C   UNL     1     -44.390  54.568 -59.545  1.00  0.00     0.049 C 
HETATM   21  C   UNL     1     -42.478  56.131 -59.913  1.00  0.00     0.007 A 
HETATM   22  C   UNL     1     -41.928  57.391 -60.120  1.00  0.00     0.003 A 
HETATM   23  C   UNL     1     -42.754  58.510 -60.161  1.00  0.00     0.030 A 
ENDBRANCH  12  16
ENDBRANCH  10  11
ENDBRANCH   9  10
ENDBRANCH   1   9
BRANCH   4  24
HETATM   24  C   UNL     1     -41.241  56.832 -52.221  1.00  0.00     0.130 C 
BRANCH  24  25
HETATM   25  N   UNL     1     -42.051  55.741 -51.704  1.00  0.00    -0.342 N 
HETATM   26  C   UNL     1     -41.883  54.389 -51.742  1.00  0.00     0.320 C 
HETATM   27  N   UNL     1     -40.695  53.943 -52.247  1.00  0.00    -0.309 N 
HETATM   28  O   UNL     1     -42.807  53.695 -51.331  1.00  0.00    -0.247 OA
HETATM   29  H   UNL     1     -39.992  54.641 -52.420  1.00  0.00     0.170 HD
HETATM   30  H   UNL     1     -42.962  55.982 -51.331  1.00  0.00     0.164 HD
BRANCH  27  31
HETATM   31  C   UNL     1     -40.297  52.607 -52.463  1.00  0.00     0.039 A 
HETATM   32  C   UNL     1     -40.235  52.002 -53.718  1.00  0.00     0.071 A 
HETATM   33  C   UNL     1     -39.822  50.677 -53.828  1.00  0.00     0.118 A 
HETATM   34  F   UNL     1     -39.764  50.102 -55.038  1.00  0.00    -0.206 F 
HETATM   35  C   UNL     1     -39.464  49.935 -52.708  1.00  0.00     0.042 A 
HETATM   36  C   UNL     1     -39.518  50.529 -51.453  1.00  0.00     0.005 A 
HETATM   37  C   UNL     1     -39.931  51.859 -51.331  1.00  0.00     0.030 A 
ENDBRANCH  27  31
ENDBRANCH  24  25
ENDBRANCH   4  24
TORSDOF 7
ENDMDL
MODEL 8
REMARK VINA RESULT:      -8.0      4.061      8.691
REMARK  7 active torsions:
REMARK  status: ('A' for Active; 'I' for Inactive)
REMARK    1  A    between atoms: C_5  and  N_6 
REMARK    2  A    between atoms: C_7  and  S_8 
REMARK    3  A    between atoms: S_8  and  C_9 
REMARK    4  A    between atoms: C_9  and  C_10 
REMARK       I    between atoms: C_10  and  N_11 
REMARK    5  A    between atoms: C_13  and  C_14 
REMARK    6  A    between atoms: C_14  and  N_15 
REMARK       I    between atoms: N_15  and  C_16 
REMARK       I    between atoms: C_16  and  N_17 
REMARK    7  A    between atoms: N_17  and  C_18 
ROOT
HETATM    1  C   UNL     1     -42.354  57.285 -52.205  1.00  0.00     0.229 C 
HETATM    2  N   UNL     1     -43.100  57.454 -53.378  1.00  0.00    -0.351 N 
HETATM    3  C   UNL     1     -42.374  57.940 -54.551  1.00  0.00     0.132 C 
HETATM    4  C   UNL     1     -43.006  57.472 -55.871  1.00  0.00     0.021 C 
HETATM    5  C   UNL     1     -44.506  57.800 -55.893  1.00  0.00     0.009 C 
HETATM    6  C   UNL     1     -45.200  57.232 -54.656  1.00  0.00     0.020 C 
HETATM    7  C   UNL     1     -44.538  57.722 -53.375  1.00  0.00     0.126 C 
HETATM    8  O   UNL     1     -41.157  57.585 -52.170  1.00  0.00    -0.273 OA
ENDROOT
BRANCH   1   9
HETATM    9  C   UNL     1     -43.050  56.782 -50.947  1.00  0.00     0.185 C 
BRANCH   9  10
HETATM   10  S   UNL     1     -43.137  54.969 -50.853  1.00  0.00    -0.082 SA
BRANCH  10  11
HETATM   11  C   UNL     1     -41.629  54.580 -50.083  1.00  0.00     0.173 A 
HETATM   12  N   UNL     1     -40.634  53.804 -50.664  1.00  0.00    -0.299 N 
HETATM   13  C   UNL     1     -39.691  53.617 -49.668  1.00  0.00     0.118 A 
HETATM   14  C   UNL     1     -40.163  54.279 -48.563  1.00  0.00     0.137 A 
HETATM   15  N   UNL     1     -41.371  54.856 -48.824  1.00  0.00    -0.235 NA
BRANCH  12  16
HETATM   16  C   UNL     1     -40.496  53.351 -52.008  1.00  0.00     0.047 A 
HETATM   17  C   UNL     1     -40.097  52.024 -52.312  1.00  0.00    -0.029 A 
HETATM   18  C   UNL     1     -39.847  51.686 -53.665  1.00  0.00    -0.054 A 
HETATM   19  C   UNL     1     -39.970  50.956 -51.251  1.00  0.00     0.051 C 
HETATM   20  C   UNL     1     -39.390  50.309 -54.074  1.00  0.00     0.049 C 
HETATM   21  C   UNL     1     -40.072  52.635 -54.675  1.00  0.00     0.007 A 
HETATM   22  C   UNL     1     -40.504  53.920 -54.366  1.00  0.00     0.003 A 
HETATM   23  C   UNL     1     -40.704  54.283 -53.038  1.00  0.00     0.030 A 
ENDBRANCH  12  16
ENDBRANCH  10  11
ENDBRANCH   9  10
ENDBRANCH   1   9
BRANCH   4  24
HETATM   24  C   UNL     1     -42.243  58.099 -57.047  1.00  0.00     0.130 C 
BRANCH  24  25
HETATM   25  N   UNL     1     -42.254  57.257 -58.233  1.00  0.00    -0.342 N 
HETATM   26  C   UNL     1     -43.218  57.016 -59.166  1.00  0.00     0.320 C 
HETATM   27  N   UNL     1     -44.352  57.772 -59.070  1.00  0.00    -0.309 N 
HETATM   28  O   UNL     1     -42.990  56.145 -59.999  1.00  0.00    -0.247 OA
HETATM   29  H   UNL     1     -44.329  58.531 -58.412  1.00  0.00     0.170 HD
HETATM   30  H   UNL     1     -41.458  56.644 -58.369  1.00  0.00     0.164 HD
BRANCH  27  31
HETATM   31  C   UNL     1     -45.520  57.677 -59.857  1.00  0.00     0.039 A 
HETATM   32  C   UNL     1     -46.137  58.765 -60.474  1.00  0.00     0.071 A 
HETATM   33  C   UNL     1     -47.286  58.567 -61.236  1.00  0.00     0.118 A 
HETATM   34  F   UNL     1     -47.873  59.617 -61.828  1.00  0.00    -0.206 F 
HETATM   35  C   UNL     1     -47.836  57.302 -61.403  1.00  0.00     0.042 A 
HETATM   36  C   UNL     1     -47.226  56.210 -60.795  1.00  0.00     0.005 A 
HETATM   37  C   UNL     1     -46.073  56.397 -60.027  1.00  0.00     0.030 A 
ENDBRANCH  27  31
ENDBRANCH  24  25
ENDBRANCH   4  24
TORSDOF 7
ENDMDL
MODEL 9
REMARK VINA RESULT:      -7.9      3.333      7.589
REMARK  7 active torsions:
REMARK  status: ('A' for Active; 'I' for Inactive)
REMARK    1  A    between atoms: C_5  and  N_6 
REMARK    2  A    between atoms: C_7  and  S_8 
REMARK    3  A    between atoms: S_8  and  C_9 
REMARK    4  A    between atoms: C_9  and  C_10 
REMARK       I    between atoms: C_10  and  N_11 
REMARK    5  A    between atoms: C_13  and  C_14 
REMARK    6  A    between atoms: C_14  and  N_15 
REMARK       I    between atoms: N_15  and  C_16 
REMARK       I    between atoms: C_16  and  N_17 
REMARK    7  A    between atoms: N_17  and  C_18 
ROOT
HETATM    1  C   UNL     1     -41.274  59.308 -52.608  1.00  0.00     0.229 C 
HETATM    2  N   UNL     1     -42.538  59.683 -53.079  1.00  0.00    -0.351 N 
HETATM    3  C   UNL     1     -42.599  60.210 -54.442  1.00  0.00     0.132 C 
HETATM    4  C   UNL     1     -43.958  59.959 -55.112  1.00  0.00     0.021 C 
HETATM    5  C   UNL     1     -45.099  60.449 -54.209  1.00  0.00     0.009 C 
HETATM    6  C   UNL     1     -44.988  59.829 -52.817  1.00  0.00     0.020 C 
HETATM    7  C   UNL     1     -43.625  60.104 -52.195  1.00  0.00     0.126 C 
HETATM    8  O   UNL     1     -40.267  59.471 -53.303  1.00  0.00    -0.273 OA
ENDROOT
BRANCH   1   9
HETATM    9  C   UNL     1     -41.142  58.751 -51.196  1.00  0.00     0.185 C 
BRANCH   9  10
HETATM   10  S   UNL     1     -40.635  57.006 -51.160  1.00  0.00    -0.082 SA
BRANCH  10  11
HETATM   11  C   UNL     1     -42.162  56.195 -50.995  1.00  0.00     0.173 A 
HETATM   12  N   UNL     1     -42.369  54.853 -51.288  1.00  0.00    -0.299 N 
HETATM   13  C   UNL     1     -43.733  54.660 -51.169  1.00  0.00     0.118 A 
HETATM   14  C   UNL     1     -44.264  55.876 -50.816  1.00  0.00     0.137 A 
HETATM   15  N   UNL     1     -43.286  56.822 -50.729  1.00  0.00    -0.235 NA
BRANCH  12  16
HETATM   16  C   UNL     1     -41.423  53.822 -51.560  1.00  0.00     0.047 A 
HETATM   17  C   UNL     1     -41.139  53.399 -52.883  1.00  0.00    -0.029 A 
HETATM   18  C   UNL     1     -40.294  52.276 -53.068  1.00  0.00    -0.054 A 
HETATM   19  C   UNL     1     -41.670  54.127 -54.096  1.00  0.00     0.051 C 
HETATM   20  C   UNL     1     -39.963  51.741 -54.438  1.00  0.00     0.049 C 
HETATM   21  C   UNL     1     -39.699  51.659 -51.956  1.00  0.00     0.007 A 
HETATM   22  C   UNL     1     -39.954  52.110 -50.666  1.00  0.00     0.003 A 
HETATM   23  C   UNL     1     -40.822  53.179 -50.464  1.00  0.00     0.030 A 
ENDBRANCH  12  16
ENDBRANCH  10  11
ENDBRANCH   9  10
ENDBRANCH   1   9
BRANCH   4  24
HETATM   24  C   UNL     1     -43.970  60.622 -56.497  1.00  0.00     0.130 C 
BRANCH  24  25
HETATM   25  N   UNL     1     -42.983  60.052 -57.399  1.00  0.00    -0.342 N 
HETATM   26  C   UNL     1     -43.021  58.960 -58.214  1.00  0.00     0.320 C 
HETATM   27  N   UNL     1     -44.228  58.329 -58.318  1.00  0.00    -0.309 N 
HETATM   28  O   UNL     1     -41.978  58.637 -58.772  1.00  0.00    -0.247 OA
HETATM   29  H   UNL     1     -45.014  58.794 -57.900  1.00  0.00     0.170 HD
HETATM   30  H   UNL     1     -42.050  60.448 -57.368  1.00  0.00     0.164 HD
BRANCH  27  31
HETATM   31  C   UNL     1     -44.524  57.147 -59.031  1.00  0.00     0.039 A 
HETATM   32  C   UNL     1     -45.469  57.066 -60.053  1.00  0.00     0.071 A 
HETATM   33  C   UNL     1     -45.685  55.853 -60.702  1.00  0.00     0.118 A 
HETATM   34  F   UNL     1     -46.594  55.783 -61.684  1.00  0.00    -0.206 F 
HETATM   35  C   UNL     1     -44.973  54.710 -60.355  1.00  0.00     0.042 A 
HETATM   36  C   UNL     1     -44.025  54.781 -59.340  1.00  0.00     0.005 A 
HETATM   37  C   UNL     1     -43.801  55.994 -58.683  1.00  0.00     0.030 A 
ENDBRANCH  27  31
ENDBRANCH  24  25
ENDBRANCH   4  24
TORSDOF 7
ENDMDL
MODEL 10
REMARK VINA RESULT:      -7.7      1.987      2.556
REMARK  7 active torsions:
REMARK  status: ('A' for Active; 'I' for Inactive)
REMARK    1  A    between atoms: C_5  and  N_6 
REMARK    2  A    between atoms: C_7  and  S_8 
REMARK    3  A    between atoms: S_8  and  C_9 
REMARK    4  A    between atoms: C_9  and  C_10 
REMARK       I    between atoms: C_10  and  N_11 
REMARK    5  A    between atoms: C_13  and  C_14 
REMARK    6  A    between atoms: C_14  and  N_15 
REMARK       I    between atoms: N_15  and  C_16 
REMARK       I    between atoms: C_16  and  N_17 
REMARK    7  A    between atoms: N_17  and  C_18 
ROOT
HETATM    1  C   UNL     1     -43.980  58.650 -56.071  1.00  0.00     0.229 C 
HETATM    2  N   UNL     1     -44.175  59.018 -54.734  1.00  0.00    -0.351 N 
HETATM    3  C   UNL     1     -44.443  57.934 -53.790  1.00  0.00     0.132 C 
HETATM    4  C   UNL     1     -43.983  58.269 -52.362  1.00  0.00     0.021 C 
HETATM    5  C   UNL     1     -44.547  59.626 -51.922  1.00  0.00     0.009 C 
HETATM    6  C   UNL     1     -44.198  60.711 -52.938  1.00  0.00     0.020 C 
HETATM    7  C   UNL     1     -44.673  60.335 -54.335  1.00  0.00     0.126 C 
HETATM    8  O   UNL     1     -44.084  57.471 -56.423  1.00  0.00    -0.273 OA
ENDROOT
BRANCH   1   9
HETATM    9  C   UNL     1     -43.697  59.731 -57.106  1.00  0.00     0.185 C 
BRANCH   9  10
HETATM   10  S   UNL     1     -41.934  59.875 -57.527  1.00  0.00    -0.082 SA
BRANCH  10  11
HETATM   11  C   UNL     1     -42.003  60.289 -59.212  1.00  0.00     0.173 A 
HETATM   12  N   UNL     1     -42.427  59.422 -60.212  1.00  0.00    -0.299 N 
HETATM   13  C   UNL     1     -42.182  60.088 -61.399  1.00  0.00     0.118 A 
HETATM   14  C   UNL     1     -41.634  61.299 -61.055  1.00  0.00     0.137 A 
HETATM   15  N   UNL     1     -41.511  61.406 -59.701  1.00  0.00    -0.235 NA
BRANCH  12  16
HETATM   16  C   UNL     1     -43.074  58.156 -60.109  1.00  0.00     0.047 A 
HETATM   17  C   UNL     1     -44.487  58.036 -60.127  1.00  0.00    -0.029 A 
HETATM   18  C   UNL     1     -45.061  56.764 -59.880  1.00  0.00    -0.054 A 
HETATM   19  C   UNL     1     -45.393  59.204 -60.439  1.00  0.00     0.051 C 
HETATM   20  C   UNL     1     -46.553  56.551 -59.851  1.00  0.00     0.049 C 
HETATM   21  C   UNL     1     -44.230  55.645 -59.704  1.00  0.00     0.007 A 
HETATM   22  C   UNL     1     -42.846  55.771 -59.730  1.00  0.00     0.003 A 
HETATM   23  C   UNL     1     -42.267  57.022 -59.920  1.00  0.00     0.030 A 
ENDBRANCH  12  16
ENDBRANCH  10  11
ENDBRANCH   9  10
ENDBRANCH   1   9
BRANCH   4  24
HETATM   24  C   UNL     1     -44.383  57.124 -51.420  1.00  0.00     0.130 C 
BRANCH  24  25
HETATM   25  N   UNL     1     -43.276  56.664 -50.597  1.00  0.00    -0.342 N 
HETATM   26  C   UNL     1     -42.331  55.703 -50.802  1.00  0.00     0.320 C 
HETATM   27  N   UNL     1     -42.317  55.126 -52.040  1.00  0.00    -0.309 N 
HETATM   28  O   UNL     1     -41.587  55.436 -49.864  1.00  0.00    -0.247 OA
HETATM   29  H   UNL     1     -42.906  55.547 -52.737  1.00  0.00     0.170 HD
HETATM   30  H   UNL     1     -43.226  57.026 -49.651  1.00  0.00     0.164 HD
BRANCH  27  31
HETATM   31  C   UNL     1     -41.498  54.069 -52.489  1.00  0.00     0.039 A 
HETATM   32  C   UNL     1     -40.750  53.246 -51.646  1.00  0.00     0.071 A 
HETATM   33  C   UNL     1     -39.976  52.223 -52.187  1.00  0.00     0.118 A 
HETATM   34  F   UNL     1     -39.261  51.435 -51.370  1.00  0.00    -0.206 F 
HETATM   35  C   UNL     1     -39.931  51.995 -53.557  1.00  0.00     0.042 A 
HETATM   36  C   UNL     1     -40.675  52.807 -54.406  1.00  0.00     0.005 A 
HETATM   37  C   UNL     1     -41.455  53.837 -53.874  1.00  0.00     0.030 A 
ENDBRANCH  27  31
ENDBRANCH  24  25
ENDBRANCH   4  24
TORSDOF 7
ENDMDL
