MODEL 1
REMARK VINA RESULT:      -8.4      0.000      0.000
REMARK  4 active torsions:
REMARK  status: ('A' for Active; 'I' for Inactive)
REMARK    1  A    between atoms: O_2  and  C_3 
REMARK    2  A    between atoms: C_6  and  C_7 
REMARK    3  A    between atoms: C_12  and  N_13 
REMARK    4  A    between atoms: C_15  and  C_16 
ROOT
HETATM    1  C   UNL     1     -41.504  55.479 -53.885  1.00  0.00     0.135 C 
HETATM    2  N   UNL     1     -42.833  55.710 -53.331  1.00  0.00    -0.214 N 
HETATM    3  C   UNL     1     -43.522  56.782 -53.776  1.00  0.00     0.736 A 
HETATM    4  N   UNL     1     -43.237  57.360 -54.985  1.00  0.00    -0.074 N 
HETATM    5  N   UNL     1     -43.958  58.480 -55.169  1.00  0.00     0.037 NA
HETATM    6  C   UNL     1     -44.713  58.474 -54.074  1.00  0.00     0.753 A 
HETATM    7  N   UNL     1     -44.488  57.450 -53.202  1.00  0.00     0.131 NA
HETATM    8  C   UNL     1     -42.124  56.958 -55.839  1.00  0.00     0.164 C 
HETATM    9  C   UNL     1     -41.566  55.585 -55.417  1.00  0.00     0.063 C 
HETATM   10  H   UNL     1     -42.931  55.504 -52.338  1.00  0.00     0.178 HD
ENDROOT
BRANCH   1  11
HETATM   11  C   UNL     1     -40.985  54.119 -53.457  1.00  0.00    -0.035 A 
HETATM   12  C   UNL     1     -40.732  53.104 -54.392  1.00  0.00     0.012 A 
HETATM   13  C   UNL     1     -40.206  51.877 -53.983  1.00  0.00     0.037 A 
HETATM   14  C   UNL     1     -39.916  51.637 -52.639  1.00  0.00     0.068 A 
HETATM   15  C   UNL     1     -40.179  52.633 -51.700  1.00  0.00     0.037 A 
HETATM   16  C   UNL     1     -40.708  53.865 -52.106  1.00  0.00     0.012 A 
BRANCH  14  17
HETATM   17  O   UNL     1     -39.391  50.403 -52.378  1.00  0.00    -0.356 OA
HETATM   18  C   UNL     1     -39.543  49.911 -51.052  1.00  0.00     0.210 C 
ENDBRANCH  14  17
ENDBRANCH   1  11
BRANCH   8  19
HETATM   19  C   UNL     1     -42.490  56.950 -57.317  1.00  0.00    -0.031 A 
HETATM   20  C   UNL     1     -43.249  55.890 -57.842  1.00  0.00     0.028 A 
HETATM   21  C   UNL     1     -43.620  55.889 -59.188  1.00  0.00     0.011 A 
HETATM   22 BR   UNL     1     -44.642  54.455 -59.875  1.00  0.00    -0.051 Br
HETATM   23  C   UNL     1     -43.250  56.937 -60.027  1.00  0.00     0.019 A 
HETATM   24  C   UNL     1     -42.499  57.994 -59.518  1.00  0.00     0.002 A 
HETATM   25  C   UNL     1     -42.124  58.003 -58.173  1.00  0.00     0.009 A 
ENDBRANCH   8  19
BRANCH   6  26
HETATM   26  N   UNL     1     -45.654  59.367 -53.780  1.00  0.00    -0.229 N 
HETATM   27  H   UNL     1     -45.372  60.145 -53.200  1.00  0.00     0.174 HD
HETATM   28  H   UNL     1     -46.301  59.600 -54.520  1.00  0.00     0.174 HD
ENDBRANCH   6  26
TORSDOF 4
ENDMDL
MODEL 2
REMARK VINA RESULT:      -8.3      1.112      1.471
REMARK  4 active torsions:
REMARK  status: ('A' for Active; 'I' for Inactive)
REMARK    1  A    between atoms: O_2  and  C_3 
REMARK    2  A    between atoms: C_6  and  C_7 
REMARK    3  A    between atoms: C_12  and  N_13 
REMARK    4  A    between atoms: C_15  and  C_16 
ROOT
HETATM    1  C   UNL     1     -41.462  55.394 -53.870  1.00  0.00     0.135 C 
HETATM    2  N   UNL     1     -42.776  55.644 -53.290  1.00  0.00    -0.214 N 
HETATM    3  C   UNL     1     -43.472  56.709 -53.741  1.00  0.00     0.736 A 
HETATM    4  N   UNL     1     -43.213  57.259 -54.970  1.00  0.00    -0.074 N 
HETATM    5  N   UNL     1     -43.933  58.378 -55.161  1.00  0.00     0.037 NA
HETATM    6  C   UNL     1     -44.662  58.400 -54.048  1.00  0.00     0.753 A 
HETATM    7  N   UNL     1     -44.420  57.395 -53.159  1.00  0.00     0.131 NA
HETATM    8  C   UNL     1     -42.122  56.832 -55.841  1.00  0.00     0.164 C 
HETATM    9  C   UNL     1     -41.561  55.466 -55.402  1.00  0.00     0.063 C 
HETATM   10  H   UNL     1     -42.851  55.460 -52.290  1.00  0.00     0.178 HD
ENDROOT
BRANCH   1  11
HETATM   11  C   UNL     1     -40.940  54.041 -53.425  1.00  0.00    -0.035 A 
HETATM   12  C   UNL     1     -40.676  53.018 -54.347  1.00  0.00     0.012 A 
HETATM   13  C   UNL     1     -40.147  51.797 -53.923  1.00  0.00     0.037 A 
HETATM   14  C   UNL     1     -39.864  51.573 -52.574  1.00  0.00     0.068 A 
HETATM   15  C   UNL     1     -40.137  52.577 -51.647  1.00  0.00     0.037 A 
HETATM   16  C   UNL     1     -40.669  53.802 -52.069  1.00  0.00     0.012 A 
BRANCH  14  17
HETATM   17  O   UNL     1     -39.334  50.344 -52.297  1.00  0.00    -0.356 OA
HETATM   18  C   UNL     1     -39.513  49.855 -50.973  1.00  0.00     0.210 C 
ENDBRANCH  14  17
ENDBRANCH   1  11
BRANCH   8  19
HETATM   19  C   UNL     1     -42.525  56.794 -57.309  1.00  0.00    -0.031 A 
HETATM   20  C   UNL     1     -42.215  57.879 -58.147  1.00  0.00     0.028 A 
HETATM   21  C   UNL     1     -42.549  57.840 -59.501  1.00  0.00     0.011 A 
HETATM   22 BR   UNL     1     -42.122  59.309 -60.612  1.00  0.00    -0.051 Br
HETATM   23  C   UNL     1     -43.189  56.728 -60.043  1.00  0.00     0.019 A 
HETATM   24  C   UNL     1     -43.500  55.645 -59.224  1.00  0.00     0.002 A 
HETATM   25  C   UNL     1     -43.170  55.676 -57.867  1.00  0.00     0.009 A 
ENDBRANCH   8  19
BRANCH   6  26
HETATM   26  N   UNL     1     -45.591  59.304 -53.751  1.00  0.00    -0.229 N 
HETATM   27  H   UNL     1     -45.267  60.249 -53.593  1.00  0.00     0.174 HD
HETATM   28  H   UNL     1     -46.466  59.232 -54.251  1.00  0.00     0.174 HD
ENDBRANCH   6  26
TORSDOF 4
ENDMDL
MODEL 3
REMARK VINA RESULT:      -7.9      3.599      7.060
REMARK  4 active torsions:
REMARK  status: ('A' for Active; 'I' for Inactive)
REMARK    1  A    between atoms: O_2  and  C_3 
REMARK    2  A    between atoms: C_6  and  C_7 
REMARK    3  A    between atoms: C_12  and  N_13 
REMARK    4  A    between atoms: C_15  and  C_16 
ROOT
HETATM    1  C   UNL     1     -42.497  57.202 -54.651  1.00  0.00     0.135 C 
HETATM    2  N   UNL     1     -41.373  58.107 -54.443  1.00  0.00    -0.214 N 
HETATM    3  C   UNL     1     -40.907  58.252 -53.185  1.00  0.00     0.736 A 
HETATM    4  N   UNL     1     -41.128  57.295 -52.229  1.00  0.00    -0.074 N 
HETATM    5  N   UNL     1     -40.685  57.701 -51.025  1.00  0.00     0.037 NA
HETATM    6  C   UNL     1     -40.138  58.871 -51.342  1.00  0.00     0.753 A 
HETATM    7  N   UNL     1     -40.241  59.242 -52.649  1.00  0.00     0.131 NA
HETATM    8  C   UNL     1     -41.955  56.111 -52.436  1.00  0.00     0.164 C 
HETATM    9  C   UNL     1     -42.217  55.871 -53.936  1.00  0.00     0.063 C 
HETATM   10  H   UNL     1     -41.388  58.955 -55.008  1.00  0.00     0.178 HD
ENDROOT
BRANCH   1  11
HETATM   11  C   UNL     1     -42.725  56.981 -56.135  1.00  0.00    -0.035 A 
HETATM   12  C   UNL     1     -42.582  58.023 -57.062  1.00  0.00     0.012 A 
HETATM   13  C   UNL     1     -42.746  57.786 -58.428  1.00  0.00     0.037 A 
HETATM   14  C   UNL     1     -43.049  56.508 -58.899  1.00  0.00     0.068 A 
HETATM   15  C   UNL     1     -43.210  55.468 -57.986  1.00  0.00     0.037 A 
HETATM   16  C   UNL     1     -43.047  55.702 -56.614  1.00  0.00     0.012 A 
BRANCH  14  17
HETATM   17  O   UNL     1     -43.166  56.411 -60.258  1.00  0.00    -0.356 OA
HETATM   18  C   UNL     1     -44.338  55.777 -60.755  1.00  0.00     0.210 C 
ENDBRANCH  14  17
ENDBRANCH   1  11
BRANCH   8  19
HETATM   19  C   UNL     1     -41.365  54.863 -51.794  1.00  0.00    -0.031 A 
HETATM   20  C   UNL     1     -40.839  53.842 -52.605  1.00  0.00     0.028 A 
HETATM   21  C   UNL     1     -40.265  52.709 -52.028  1.00  0.00     0.011 A 
HETATM   22 BR   UNL     1     -39.562  51.348 -53.136  1.00  0.00    -0.051 Br
HETATM   23  C   UNL     1     -40.200  52.574 -50.643  1.00  0.00     0.019 A 
HETATM   24  C   UNL     1     -40.716  53.579 -49.828  1.00  0.00     0.002 A 
HETATM   25  C   UNL     1     -41.292  54.716 -50.398  1.00  0.00     0.009 A 
ENDBRANCH   8  19
BRANCH   6  26
HETATM   26  N   UNL     1     -39.507  59.682 -50.496  1.00  0.00    -0.229 N 
HETATM   27  H   UNL     1     -39.820  59.665 -49.536  1.00  0.00     0.174 HD
HETATM   28  H   UNL     1     -38.508  59.769 -50.617  1.00  0.00     0.174 HD
ENDBRANCH   6  26
TORSDOF 4
ENDMDL
MODEL 4
REMARK VINA RESULT:      -7.6      2.690      4.395
REMARK  4 active torsions:
REMARK  status: ('A' for Active; 'I' for Inactive)
REMARK    1  A    between atoms: O_2  and  C_3 
REMARK    2  A    between atoms: C_6  and  C_7 
REMARK    3  A    between atoms: C_12  and  N_13 
REMARK    4  A    between atoms: C_15  and  C_16 
ROOT
HETATM    1  C   UNL     1     -42.590  54.450 -54.375  1.00  0.00     0.135 C 
HETATM    2  N   UNL     1     -42.125  54.759 -55.722  1.00  0.00    -0.214 N 
HETATM    3  C   UNL     1     -42.785  55.712 -56.413  1.00  0.00     0.736 A 
HETATM    4  N   UNL     1     -43.533  56.665 -55.772  1.00  0.00    -0.074 N 
HETATM    5  N   UNL     1     -44.199  57.432 -56.655  1.00  0.00     0.037 NA
HETATM    6  C   UNL     1     -43.746  56.941 -57.805  1.00  0.00     0.753 A 
HETATM    7  N   UNL     1     -42.874  55.898 -57.703  1.00  0.00     0.131 NA
HETATM    8  C   UNL     1     -43.773  56.684 -54.333  1.00  0.00     0.164 C 
HETATM    9  C   UNL     1     -42.787  55.759 -53.593  1.00  0.00     0.063 C 
HETATM   10  H   UNL     1     -41.811  53.957 -56.267  1.00  0.00     0.178 HD
ENDROOT
BRANCH   1  11
HETATM   11  C   UNL     1     -41.597  53.545 -53.671  1.00  0.00    -0.035 A 
HETATM   12  C   UNL     1     -41.331  53.674 -52.300  1.00  0.00     0.012 A 
HETATM   13  C   UNL     1     -40.452  52.797 -51.661  1.00  0.00     0.037 A 
HETATM   14  C   UNL     1     -39.826  51.772 -52.370  1.00  0.00     0.068 A 
HETATM   15  C   UNL     1     -40.070  51.644 -53.736  1.00  0.00     0.037 A 
HETATM   16  C   UNL     1     -40.950  52.522 -54.381  1.00  0.00     0.012 A 
BRANCH  14  17
HETATM   17  O   UNL     1     -39.004  50.976 -51.622  1.00  0.00    -0.356 OA
HETATM   18  C   UNL     1     -39.623  49.923 -50.894  1.00  0.00     0.210 C 
ENDBRANCH  14  17
ENDBRANCH   1  11
BRANCH   8  19
HETATM   19  C   UNL     1     -43.724  58.088 -53.748  1.00  0.00    -0.031 A 
HETATM   20  C   UNL     1     -44.896  58.674 -53.239  1.00  0.00     0.028 A 
HETATM   21  C   UNL     1     -44.857  59.948 -52.669  1.00  0.00     0.011 A 
HETATM   22 BR   UNL     1     -46.444  60.718 -51.989  1.00  0.00    -0.051 Br
HETATM   23  C   UNL     1     -43.659  60.654 -52.592  1.00  0.00     0.019 A 
HETATM   24  C   UNL     1     -42.490  60.084 -53.091  1.00  0.00     0.002 A 
HETATM   25  C   UNL     1     -42.521  58.810 -53.663  1.00  0.00     0.009 A 
ENDBRANCH   8  19
BRANCH   6  26
HETATM   26  N   UNL     1     -44.068  57.387 -59.015  1.00  0.00    -0.229 N 
HETATM   27  H   UNL     1     -44.360  56.694 -59.690  1.00  0.00     0.174 HD
HETATM   28  H   UNL     1     -44.578  58.259 -59.053  1.00  0.00     0.174 HD
ENDBRANCH   6  26
TORSDOF 4
ENDMDL
MODEL 5
REMARK VINA RESULT:      -7.6      3.477      5.134
REMARK  4 active torsions:
REMARK  status: ('A' for Active; 'I' for Inactive)
REMARK    1  A    between atoms: O_2  and  C_3 
REMARK    2  A    between atoms: C_6  and  C_7 
REMARK    3  A    between atoms: C_12  and  N_13 
REMARK    4  A    between atoms: C_15  and  C_16 
ROOT
HETATM    1  C   UNL     1     -43.072  55.046 -53.219  1.00  0.00     0.135 C 
HETATM    2  N   UNL     1     -43.216  55.636 -54.544  1.00  0.00    -0.214 N 
HETATM    3  C   UNL     1     -43.932  56.775 -54.652  1.00  0.00     0.736 A 
HETATM    4  N   UNL     1     -44.125  57.599 -53.574  1.00  0.00    -0.074 N 
HETATM    5  N   UNL     1     -44.966  58.604 -53.877  1.00  0.00     0.037 NA
HETATM    6  C   UNL     1     -45.175  58.374 -55.169  1.00  0.00     0.753 A 
HETATM    7  N   UNL     1     -44.556  57.275 -55.686  1.00  0.00     0.131 NA
HETATM    8  C   UNL     1     -43.684  57.286 -52.218  1.00  0.00     0.164 C 
HETATM    9  C   UNL     1     -42.656  56.137 -52.219  1.00  0.00     0.063 C 
HETATM   10  H   UNL     1     -43.331  54.969 -55.306  1.00  0.00     0.178 HD
ENDROOT
BRANCH   1  11
HETATM   11  C   UNL     1     -42.050  53.925 -53.251  1.00  0.00    -0.035 A 
HETATM   12  C   UNL     1     -41.829  53.168 -54.411  1.00  0.00     0.012 A 
HETATM   13  C   UNL     1     -40.848  52.175 -54.434  1.00  0.00     0.037 A 
HETATM   14  C   UNL     1     -40.064  51.919 -53.308  1.00  0.00     0.068 A 
HETATM   15  C   UNL     1     -40.286  52.654 -52.145  1.00  0.00     0.037 A 
HETATM   16  C   UNL     1     -41.270  53.651 -52.117  1.00  0.00     0.012 A 
BRANCH  14  17
HETATM   17  O   UNL     1     -39.131  50.934 -53.471  1.00  0.00    -0.356 OA
HETATM   18  C   UNL     1     -39.483  49.854 -54.326  1.00  0.00     0.210 C 
ENDBRANCH  14  17
ENDBRANCH   1  11
BRANCH   8  19
HETATM   19  C   UNL     1     -43.123  58.499 -51.488  1.00  0.00    -0.031 A 
HETATM   20  C   UNL     1     -41.741  58.593 -51.250  1.00  0.00     0.028 A 
HETATM   21  C   UNL     1     -41.212  59.715 -50.612  1.00  0.00     0.011 A 
HETATM   22 BR   UNL     1     -39.350  59.824 -50.302  1.00  0.00    -0.051 Br
HETATM   23  C   UNL     1     -42.041  60.759 -50.207  1.00  0.00     0.019 A 
HETATM   24  C   UNL     1     -43.412  60.678 -50.439  1.00  0.00     0.002 A 
HETATM   25  C   UNL     1     -43.950  59.558 -51.077  1.00  0.00     0.009 A 
ENDBRANCH   8  19
BRANCH   6  26
HETATM   26  N   UNL     1     -45.921  59.124 -55.976  1.00  0.00    -0.229 N 
HETATM   27  H   UNL     1     -46.548  59.780 -55.531  1.00  0.00     0.174 HD
HETATM   28  H   UNL     1     -45.474  59.464 -56.816  1.00  0.00     0.174 HD
ENDBRANCH   6  26
TORSDOF 4
ENDMDL
MODEL 6
REMARK VINA RESULT:      -7.6      2.185      2.636
REMARK  4 active torsions:
REMARK  status: ('A' for Active; 'I' for Inactive)
REMARK    1  A    between atoms: O_2  and  C_3 
REMARK    2  A    between atoms: C_6  and  C_7 
REMARK    3  A    between atoms: C_12  and  N_13 
REMARK    4  A    between atoms: C_15  and  C_16 
ROOT
HETATM    1  C   UNL     1     -41.535  55.759 -52.389  1.00  0.00     0.135 C 
HETATM    2  N   UNL     1     -42.885  55.655 -51.845  1.00  0.00    -0.214 N 
HETATM    3  C   UNL     1     -43.609  56.788 -51.736  1.00  0.00     0.736 A 
HETATM    4  N   UNL     1     -43.323  57.892 -52.498  1.00  0.00    -0.074 N 
HETATM    5  N   UNL     1     -44.087  58.939 -52.139  1.00  0.00     0.037 NA
HETATM    6  C   UNL     1     -44.863  58.378 -51.217  1.00  0.00     0.753 A 
HETATM    7  N   UNL     1     -44.613  57.065 -50.947  1.00  0.00     0.131 NA
HETATM    8  C   UNL     1     -42.176  57.988 -53.396  1.00  0.00     0.164 C 
HETATM    9  C   UNL     1     -41.571  56.599 -53.676  1.00  0.00     0.063 C 
HETATM   10  H   UNL     1     -42.994  54.987 -51.084  1.00  0.00     0.178 HD
ENDROOT
BRANCH   1  11
HETATM   11  C   UNL     1     -40.970  54.378 -52.660  1.00  0.00    -0.035 A 
HETATM   12  C   UNL     1     -40.815  53.893 -53.967  1.00  0.00     0.012 A 
HETATM   13  C   UNL     1     -40.244  52.640 -54.197  1.00  0.00     0.037 A 
HETATM   14  C   UNL     1     -39.810  51.848 -53.133  1.00  0.00     0.068 A 
HETATM   15  C   UNL     1     -39.974  52.313 -51.829  1.00  0.00     0.037 A 
HETATM   16  C   UNL     1     -40.547  53.570 -51.594  1.00  0.00     0.012 A 
BRANCH  14  17
HETATM   17  O   UNL     1     -39.256  50.652 -53.497  1.00  0.00    -0.356 OA
HETATM   18  C   UNL     1     -39.959  49.892 -54.471  1.00  0.00     0.210 C 
ENDBRANCH  14  17
ENDBRANCH   1  11
BRANCH   8  19
HETATM   19  C   UNL     1     -42.511  58.695 -54.702  1.00  0.00    -0.031 A 
HETATM   20  C   UNL     1     -43.330  58.057 -55.650  1.00  0.00     0.028 A 
HETATM   21  C   UNL     1     -43.672  58.708 -56.836  1.00  0.00     0.011 A 
HETATM   22 BR   UNL     1     -44.776  57.834 -58.098  1.00  0.00    -0.051 Br
HETATM   23  C   UNL     1     -43.213  59.997 -57.097  1.00  0.00     0.019 A 
HETATM   24  C   UNL     1     -42.402  60.640 -56.164  1.00  0.00     0.002 A 
HETATM   25  C   UNL     1     -42.055  59.996 -54.975  1.00  0.00     0.009 A 
ENDBRANCH   8  19
BRANCH   6  26
HETATM   26  N   UNL     1     -45.846  58.988 -50.560  1.00  0.00    -0.229 N 
HETATM   27  H   UNL     1     -46.613  58.406 -50.253  1.00  0.00     0.174 HD
HETATM   28  H   UNL     1     -45.573  59.711 -49.910  1.00  0.00     0.174 HD
ENDBRANCH   6  26
TORSDOF 4
ENDMDL
MODEL 7
REMARK VINA RESULT:      -7.5      3.120      4.993
REMARK  4 active torsions:
REMARK  status: ('A' for Active; 'I' for Inactive)
REMARK    1  A    between atoms: O_2  and  C_3 
REMARK    2  A    between atoms: C_6  and  C_7 
REMARK    3  A    between atoms: C_12  and  N_13 
REMARK    4  A    between atoms: C_15  and  C_16 
ROOT
HETATM    1  C   UNL     1     -42.181  54.915 -53.758  1.00  0.00     0.135 C 
HETATM    2  N   UNL     1     -41.667  55.501 -54.991  1.00  0.00    -0.214 N 
HETATM    3  C   UNL     1     -42.206  56.665 -55.408  1.00  0.00     0.736 A 
HETATM    4  N   UNL     1     -42.851  57.504 -54.536  1.00  0.00    -0.074 N 
HETATM    5  N   UNL     1     -43.414  58.538 -55.186  1.00  0.00     0.037 NA
HETATM    6  C   UNL     1     -43.004  58.306 -56.429  1.00  0.00     0.753 A 
HETATM    7  N   UNL     1     -42.256  57.180 -56.608  1.00  0.00     0.131 NA
HETATM    8  C   UNL     1     -43.106  57.184 -53.135  1.00  0.00     0.164 C 
HETATM    9  C   UNL     1     -42.241  55.998 -52.668  1.00  0.00     0.063 C 
HETATM   10  H   UNL     1     -41.438  54.833 -55.725  1.00  0.00     0.178 HD
ENDROOT
BRANCH   1  11
HETATM   11  C   UNL     1     -41.306  53.756 -53.321  1.00  0.00    -0.035 A 
HETATM   12  C   UNL     1     -40.919  53.593 -51.983  1.00  0.00     0.012 A 
HETATM   13  C   UNL     1     -40.156  52.491 -51.593  1.00  0.00     0.037 A 
HETATM   14  C   UNL     1     -39.769  51.526 -52.524  1.00  0.00     0.068 A 
HETATM   15  C   UNL     1     -40.134  51.686 -53.859  1.00  0.00     0.037 A 
HETATM   16  C   UNL     1     -40.899  52.791 -54.255  1.00  0.00     0.012 A 
BRANCH  14  17
HETATM   17  O   UNL     1     -39.040  50.491 -52.008  1.00  0.00    -0.356 OA
HETATM   18  C   UNL     1     -39.569  49.849 -50.855  1.00  0.00     0.210 C 
ENDBRANCH  14  17
ENDBRANCH   1  11
BRANCH   8  19
HETATM   19  C   UNL     1     -42.907  58.381 -52.214  1.00  0.00    -0.031 A 
HETATM   20  C   UNL     1     -44.025  59.033 -51.666  1.00  0.00     0.028 A 
HETATM   21  C   UNL     1     -43.854  60.109 -50.794  1.00  0.00     0.011 A 
HETATM   22 BR   UNL     1     -45.369  60.972 -50.065  1.00  0.00    -0.051 Br
HETATM   23  C   UNL     1     -42.578  60.550 -50.452  1.00  0.00     0.019 A 
HETATM   24  C   UNL     1     -41.462  59.911 -50.988  1.00  0.00     0.002 A 
HETATM   25  C   UNL     1     -41.624  58.833 -51.861  1.00  0.00     0.009 A 
ENDBRANCH   8  19
BRANCH   6  26
HETATM   26  N   UNL     1     -43.257  59.077 -57.482  1.00  0.00    -0.229 N 
HETATM   27  H   UNL     1     -44.231  59.228 -57.708  1.00  0.00     0.174 HD
HETATM   28  H   UNL     1     -42.663  59.885 -57.603  1.00  0.00     0.174 HD
ENDBRANCH   6  26
TORSDOF 4
ENDMDL
MODEL 8
REMARK VINA RESULT:      -7.5     15.409     17.761
REMARK  4 active torsions:
REMARK  status: ('A' for Active; 'I' for Inactive)
REMARK    1  A    between atoms: O_2  and  C_3 
REMARK    2  A    between atoms: C_6  and  C_7 
REMARK    3  A    between atoms: C_12  and  N_13 
REMARK    4  A    between atoms: C_15  and  C_16 
ROOT
HETATM    1  C   UNL     1     -32.857  40.490 -55.384  1.00  0.00     0.135 C 
HETATM    2  N   UNL     1     -33.754  40.038 -54.327  1.00  0.00    -0.214 N 
HETATM    3  C   UNL     1     -34.975  40.608 -54.250  1.00  0.00     0.736 A 
HETATM    4  N   UNL     1     -35.543  41.221 -55.335  1.00  0.00    -0.074 N 
HETATM    5  N   UNL     1     -36.699  41.824 -55.001  1.00  0.00     0.037 NA
HETATM    6  C   UNL     1     -36.806  41.467 -53.724  1.00  0.00     0.753 A 
HETATM    7  N   UNL     1     -35.782  40.717 -53.228  1.00  0.00     0.131 NA
HETATM    8  C   UNL     1     -34.866  41.411 -56.614  1.00  0.00     0.164 C 
HETATM    9  C   UNL     1     -33.618  40.513 -56.720  1.00  0.00     0.063 C 
HETATM   10  H   UNL     1     -33.305  39.835 -53.435  1.00  0.00     0.178 HD
ENDROOT
BRANCH   1  11
HETATM   11  C   UNL     1     -31.644  39.584 -55.468  1.00  0.00    -0.035 A 
HETATM   12  C   UNL     1     -31.437  38.549 -54.545  1.00  0.00     0.012 A 
HETATM   13  C   UNL     1     -30.340  37.694 -54.670  1.00  0.00     0.037 A 
HETATM   14  C   UNL     1     -29.433  37.846 -55.719  1.00  0.00     0.068 A 
HETATM   15  C   UNL     1     -29.620  38.881 -56.633  1.00  0.00     0.037 A 
HETATM   16  C   UNL     1     -30.718  39.743 -56.511  1.00  0.00     0.012 A 
BRANCH  14  17
HETATM   17  O   UNL     1     -28.415  36.933 -55.735  1.00  0.00    -0.356 OA
HETATM   18  C   UNL     1     -27.150  37.394 -56.191  1.00  0.00     0.210 C 
ENDBRANCH  14  17
ENDBRANCH   1  11
BRANCH   8  19
HETATM   19  C   UNL     1     -35.786  41.183 -57.806  1.00  0.00    -0.031 A 
HETATM   20  C   UNL     1     -35.969  39.884 -58.308  1.00  0.00     0.028 A 
HETATM   21  C   UNL     1     -36.836  39.658 -59.379  1.00  0.00     0.011 A 
HETATM   22 BR   UNL     1     -37.070  37.903 -60.039  1.00  0.00    -0.051 Br
HETATM   23  C   UNL     1     -37.534  40.714 -59.960  1.00  0.00     0.019 A 
HETATM   24  C   UNL     1     -37.363  42.006 -59.470  1.00  0.00     0.002 A 
HETATM   25  C   UNL     1     -36.497  42.240 -58.400  1.00  0.00     0.009 A 
ENDBRANCH   8  19
BRANCH   6  26
HETATM   26  N   UNL     1     -37.820  41.776 -52.920  1.00  0.00    -0.229 N 
HETATM   27  H   UNL     1     -38.737  41.815 -53.343  1.00  0.00     0.174 HD
HETATM   28  H   UNL     1     -37.795  41.378 -51.992  1.00  0.00     0.174 HD
ENDBRANCH   6  26
TORSDOF 4
ENDMDL
MODEL 9
REMARK VINA RESULT:      -7.1      3.268      4.348
REMARK  4 active torsions:
REMARK  status: ('A' for Active; 'I' for Inactive)
REMARK    1  A    between atoms: O_2  and  C_3 
REMARK    2  A    between atoms: C_6  and  C_7 
REMARK    3  A    between atoms: C_12  and  N_13 
REMARK    4  A    between atoms: C_15  and  C_16 
ROOT
HETATM    1  C   UNL     1     -43.189  55.562 -55.817  1.00  0.00     0.135 C 
HETATM    2  N   UNL     1     -43.098  54.992 -57.157  1.00  0.00    -0.214 N 
HETATM    3  C   UNL     1     -43.682  55.667 -58.169  1.00  0.00     0.736 A 
HETATM    4  N   UNL     1     -43.939  57.010 -58.074  1.00  0.00    -0.074 N 
HETATM    5  N   UNL     1     -44.632  57.447 -59.141  1.00  0.00     0.037 NA
HETATM    6  C   UNL     1     -44.688  56.338 -59.874  1.00  0.00     0.753 A 
HETATM    7  N   UNL     1     -44.112  55.232 -59.324  1.00  0.00     0.131 NA
HETATM    8  C   UNL     1     -43.714  57.800 -56.868  1.00  0.00     0.164 C 
HETATM    9  C   UNL     1     -42.809  57.050 -55.872  1.00  0.00     0.063 C 
HETATM   10  H   UNL     1     -43.173  53.977 -57.202  1.00  0.00     0.178 HD
ENDROOT
BRANCH   1  11
HETATM   11  C   UNL     1     -42.284  54.807 -54.862  1.00  0.00    -0.035 A 
HETATM   12  C   UNL     1     -42.673  54.537 -53.542  1.00  0.00     0.012 A 
HETATM   13  C   UNL     1     -41.847  53.796 -52.695  1.00  0.00     0.037 A 
HETATM   14  C   UNL     1     -40.621  53.305 -53.145  1.00  0.00     0.068 A 
HETATM   15  C   UNL     1     -40.216  53.581 -54.450  1.00  0.00     0.037 A 
HETATM   16  C   UNL     1     -41.042  54.325 -55.303  1.00  0.00     0.012 A 
BRANCH  14  17
HETATM   17  O   UNL     1     -39.918  52.582 -52.222  1.00  0.00    -0.356 OA
HETATM   18  C   UNL     1     -40.029  52.998 -50.866  1.00  0.00     0.210 C 
ENDBRANCH  14  17
ENDBRANCH   1  11
BRANCH   8  19
HETATM   19  C   UNL     1     -43.144  59.180 -57.168  1.00  0.00    -0.031 A 
HETATM   20  C   UNL     1     -43.813  60.327 -56.708  1.00  0.00     0.028 A 
HETATM   21  C   UNL     1     -43.282  61.595 -56.948  1.00  0.00     0.011 A 
HETATM   22 BR   UNL     1     -44.196  63.126 -56.319  1.00  0.00    -0.051 Br
HETATM   23  C   UNL     1     -42.083  61.743 -57.641  1.00  0.00     0.019 A 
HETATM   24  C   UNL     1     -41.410  60.614 -58.101  1.00  0.00     0.002 A 
HETATM   25  C   UNL     1     -41.934  59.342 -57.865  1.00  0.00     0.009 A 
ENDBRANCH   8  19
BRANCH   6  26
HETATM   26  N   UNL     1     -45.245  56.237 -61.078  1.00  0.00    -0.229 N 
HETATM   27  H   UNL     1     -44.752  56.677 -61.842  1.00  0.00     0.174 HD
HETATM   28  H   UNL     1     -45.673  55.349 -61.302  1.00  0.00     0.174 HD
ENDBRANCH   6  26
TORSDOF 4
ENDMDL
MODEL 10
REMARK VINA RESULT:      -7.1      4.231      7.124
REMARK  4 active torsions:
REMARK  status: ('A' for Active; 'I' for Inactive)
REMARK    1  A    between atoms: O_2  and  C_3 
REMARK    2  A    between atoms: C_6  and  C_7 
REMARK    3  A    between atoms: C_12  and  N_13 
REMARK    4  A    between atoms: C_15  and  C_16 
ROOT
HETATM    1  C   UNL     1     -41.792  58.537 -54.030  1.00  0.00     0.135 C 
HETATM    2  N   UNL     1     -43.028  58.217 -54.735  1.00  0.00    -0.214 N 
HETATM    3  C   UNL     1     -43.003  57.195 -55.616  1.00  0.00     0.736 A 
HETATM    4  N   UNL     1     -42.052  56.211 -55.539  1.00  0.00    -0.074 N 
HETATM    5  N   UNL     1     -42.141  55.368 -56.583  1.00  0.00     0.037 NA
HETATM    6  C   UNL     1     -43.213  55.852 -57.205  1.00  0.00     0.753 A 
HETATM    7  N   UNL     1     -43.777  56.959 -56.643  1.00  0.00     0.131 NA
HETATM    8  C   UNL     1     -40.940  56.224 -54.594  1.00  0.00     0.164 C 
HETATM    9  C   UNL     1     -41.182  57.244 -53.465  1.00  0.00     0.063 C 
HETATM   10  H   UNL     1     -43.592  59.020 -55.008  1.00  0.00     0.178 HD
ENDROOT
BRANCH   1  11
HETATM   11  C   UNL     1     -42.063  59.536 -52.921  1.00  0.00    -0.035 A 
HETATM   12  C   UNL     1     -42.899  60.645 -53.122  1.00  0.00     0.012 A 
HETATM   13  C   UNL     1     -43.176  61.524 -52.074  1.00  0.00     0.037 A 
HETATM   14  C   UNL     1     -42.635  61.315 -50.805  1.00  0.00     0.068 A 
HETATM   15  C   UNL     1     -41.791  60.226 -50.598  1.00  0.00     0.037 A 
HETATM   16  C   UNL     1     -41.509  59.341 -51.647  1.00  0.00     0.012 A 
BRANCH  14  17
HETATM   17  O   UNL     1     -42.999  62.240 -49.867  1.00  0.00    -0.356 OA
HETATM   18  C   UNL     1     -44.392  62.479 -49.712  1.00  0.00     0.210 C 
ENDBRANCH  14  17
ENDBRANCH   1  11
BRANCH   8  19
HETATM   19  C   UNL     1     -40.647  54.848 -54.013  1.00  0.00    -0.031 A 
HETATM   20  C   UNL     1     -40.752  54.639 -52.628  1.00  0.00     0.028 A 
HETATM   21  C   UNL     1     -40.519  53.373 -52.087  1.00  0.00     0.011 A 
HETATM   22 BR   UNL     1     -40.668  53.111 -50.221  1.00  0.00    -0.051 Br
HETATM   23  C   UNL     1     -40.184  52.300 -52.910  1.00  0.00     0.019 A 
HETATM   24  C   UNL     1     -40.078  52.495 -54.285  1.00  0.00     0.002 A 
HETATM   25  C   UNL     1     -40.310  53.758 -54.834  1.00  0.00     0.009 A 
ENDBRANCH   8  19
BRANCH   6  26
HETATM   26  N   UNL     1     -43.765  55.341 -58.302  1.00  0.00    -0.229 N 
HETATM   27  H   UNL     1     -43.675  55.887 -59.148  1.00  0.00     0.174 HD
HETATM   28  H   UNL     1     -43.677  54.343 -58.428  1.00  0.00     0.174 HD
ENDBRANCH   6  26
TORSDOF 4
ENDMDL
