MODEL 1
REMARK VINA RESULT:      -9.6      0.000      0.000
REMARK  3 active torsions:
REMARK  status: ('A' for Active; 'I' for Inactive)
REMARK    1  A    between atoms: C_4  and  C_5 
REMARK    2  A    between atoms: C_9  and  N_10 
REMARK       I    between atoms: N_10  and  C_11 
REMARK    3  A    between atoms: C_11  and  C_12 
ROOT
HETATM    1  C   UNL     1     -41.522  54.464 -55.015  1.00  0.00     0.090 A 
HETATM    2  N   UNL     1     -40.984  55.674 -55.253  1.00  0.00    -0.173 NA
HETATM    3  N   UNL     1     -41.798  56.236 -56.159  1.00  0.00    -0.262 N 
HETATM    4  H   UNL     1     -41.594  57.171 -56.506  1.00  0.00     0.191 HD
HETATM    5  C   UNL     1     -42.857  55.445 -56.512  1.00  0.00     0.126 A 
HETATM    6  C   UNL     1     -42.704  54.287 -55.791  1.00  0.00     0.084 A 
ENDROOT
BRANCH   5   7
HETATM    7  N   UNL     1     -43.837  55.811 -57.409  1.00  0.00    -0.306 N 
HETATM    8  C   UNL     1     -43.574  55.999 -58.755  1.00  0.00     0.281 C 
HETATM    9  O   UNL     1     -42.485  55.866 -59.292  1.00  0.00    -0.265 OA
HETATM   10  H   UNL     1     -44.786  55.988 -57.090  1.00  0.00     0.170 HD
BRANCH   8  11
HETATM   11  C   UNL     1     -44.812  56.428 -59.543  1.00  0.00     0.193 A 
HETATM   12  N   UNL     1     -45.470  57.458 -59.063  1.00  0.00    -0.241 NA
HETATM   13  C   UNL     1     -46.587  57.899 -59.745  1.00  0.00     0.054 A 
HETATM   14  C   UNL     1     -47.269  59.085 -59.114  1.00  0.00     0.072 C 
HETATM   15  C   UNL     1     -47.042  57.332 -60.884  1.00  0.00     0.033 A 
HETATM   16  C   UNL     1     -48.245  57.778 -61.667  1.00  0.00     0.070 C 
HETATM   17  N   UNL     1     -46.376  56.249 -61.401  1.00  0.00    -0.324 N 
HETATM   18  C   UNL     1     -45.262  55.707 -60.808  1.00  0.00     0.280 A 
HETATM   19  H   UNL     1     -46.696  55.793 -62.247  1.00  0.00     0.169 HD
HETATM   20  O   UNL     1     -44.690  54.727 -61.253  1.00  0.00    -0.265 OA
ENDBRANCH   8  11
ENDBRANCH   5   7
BRANCH   1  21
HETATM   21  C   UNL     1     -40.913  53.529 -54.060  1.00  0.00    -0.005 A 
HETATM   22  C   UNL     1     -40.486  52.262 -54.488  1.00  0.00     0.020 A 
HETATM   23  C   UNL     1     -39.893  51.357 -53.598  1.00  0.00    -0.061 A 
HETATM   24  C   UNL     1     -39.439  50.005 -54.064  1.00  0.00     0.048 C 
HETATM   25  C   UNL     1     -39.735  51.726 -52.257  1.00  0.00     0.013 A 
HETATM   26  C   UNL     1     -40.158  52.981 -51.804  1.00  0.00    -0.061 A 
HETATM   27  C   UNL     1     -40.745  53.876 -52.711  1.00  0.00     0.020 A 
HETATM   28  C   UNL     1     -39.989  53.346 -50.358  1.00  0.00     0.048 C 
ENDBRANCH   1  21
TORSDOF 3
ENDMDL
MODEL 2
REMARK VINA RESULT:      -8.8      2.669      2.932
REMARK  3 active torsions:
REMARK  status: ('A' for Active; 'I' for Inactive)
REMARK    1  A    between atoms: C_4  and  C_5 
REMARK    2  A    between atoms: C_9  and  N_10 
REMARK       I    between atoms: N_10  and  C_11 
REMARK    3  A    between atoms: C_11  and  C_12 
ROOT
HETATM    1  C   UNL     1     -41.943  54.166 -54.783  1.00  0.00     0.090 A 
HETATM    2  N   UNL     1     -43.275  54.304 -54.659  1.00  0.00    -0.173 NA
HETATM    3  N   UNL     1     -43.619  55.169 -55.624  1.00  0.00    -0.262 N 
HETATM    4  H   UNL     1     -44.595  55.439 -55.732  1.00  0.00     0.191 HD
HETATM    5  C   UNL     1     -42.565  55.593 -56.385  1.00  0.00     0.126 A 
HETATM    6  C   UNL     1     -41.461  54.965 -55.862  1.00  0.00     0.084 A 
ENDROOT
BRANCH   5   7
HETATM    7  N   UNL     1     -42.670  56.466 -57.445  1.00  0.00    -0.306 N 
HETATM    8  C   UNL     1     -43.016  57.796 -57.276  1.00  0.00     0.281 C 
HETATM    9  O   UNL     1     -43.256  58.337 -56.208  1.00  0.00    -0.265 OA
HETATM   10  H   UNL     1     -42.528  56.139 -58.398  1.00  0.00     0.170 HD
BRANCH   8  11
HETATM   11  C   UNL     1     -43.096  58.557 -58.599  1.00  0.00     0.193 A 
HETATM   12  N   UNL     1     -42.314  59.606 -58.708  1.00  0.00    -0.241 NA
HETATM   13  C   UNL     1     -42.333  60.321 -59.889  1.00  0.00     0.054 A 
HETATM   14  C   UNL     1     -41.399  61.503 -59.912  1.00  0.00     0.072 C 
HETATM   15  C   UNL     1     -43.112  60.001 -60.946  1.00  0.00     0.033 A 
HETATM   16  C   UNL     1     -43.164  60.740 -62.253  1.00  0.00     0.070 C 
HETATM   17  N   UNL     1     -43.946  58.914 -60.854  1.00  0.00    -0.324 N 
HETATM   18  C   UNL     1     -44.029  58.132 -59.729  1.00  0.00     0.280 A 
HETATM   19  H   UNL     1     -44.550  58.652 -61.624  1.00  0.00     0.169 HD
HETATM   20  O   UNL     1     -44.791  57.185 -59.639  1.00  0.00    -0.265 OA
ENDBRANCH   8  11
ENDBRANCH   5   7
BRANCH   1  21
HETATM   21  C   UNL     1     -41.177  53.284 -53.895  1.00  0.00    -0.005 A 
HETATM   22  C   UNL     1     -40.660  52.071 -54.378  1.00  0.00     0.020 A 
HETATM   23  C   UNL     1     -39.917  51.218 -53.552  1.00  0.00    -0.061 A 
HETATM   24  C   UNL     1     -39.367  49.925 -54.077  1.00  0.00     0.048 C 
HETATM   25  C   UNL     1     -39.698  51.582 -52.218  1.00  0.00     0.013 A 
HETATM   26  C   UNL     1     -40.209  52.782 -51.710  1.00  0.00    -0.061 A 
HETATM   27  C   UNL     1     -40.946  53.627 -52.554  1.00  0.00     0.020 A 
HETATM   28  C   UNL     1     -39.971  53.143 -50.272  1.00  0.00     0.048 C 
ENDBRANCH   1  21
TORSDOF 3
ENDMDL
MODEL 3
REMARK VINA RESULT:      -8.8      2.641      3.355
REMARK  3 active torsions:
REMARK  status: ('A' for Active; 'I' for Inactive)
REMARK    1  A    between atoms: C_4  and  C_5 
REMARK    2  A    between atoms: C_9  and  N_10 
REMARK       I    between atoms: N_10  and  C_11 
REMARK    3  A    between atoms: C_11  and  C_12 
ROOT
HETATM    1  C   UNL     1     -41.957  54.186 -54.821  1.00  0.00     0.090 A 
HETATM    2  N   UNL     1     -43.284  54.339 -54.663  1.00  0.00    -0.173 NA
HETATM    3  N   UNL     1     -43.643  55.204 -55.624  1.00  0.00    -0.262 N 
HETATM    4  H   UNL     1     -44.618  55.483 -55.708  1.00  0.00     0.191 HD
HETATM    5  C   UNL     1     -42.604  55.611 -56.414  1.00  0.00     0.126 A 
HETATM    6  C   UNL     1     -41.495  54.973 -55.917  1.00  0.00     0.084 A 
ENDROOT
BRANCH   5   7
HETATM    7  N   UNL     1     -42.728  56.479 -57.476  1.00  0.00    -0.306 N 
HETATM    8  C   UNL     1     -43.123  57.796 -57.313  1.00  0.00     0.281 C 
HETATM    9  O   UNL     1     -43.394  58.329 -56.248  1.00  0.00    -0.265 OA
HETATM   10  H   UNL     1     -42.562  56.157 -58.427  1.00  0.00     0.170 HD
BRANCH   8  11
HETATM   11  C   UNL     1     -43.214  58.554 -58.637  1.00  0.00     0.193 A 
HETATM   12  N   UNL     1     -42.413  59.587 -58.765  1.00  0.00    -0.241 NA
HETATM   13  C   UNL     1     -42.441  60.298 -59.949  1.00  0.00     0.054 A 
HETATM   14  C   UNL     1     -41.486  61.462 -59.995  1.00  0.00     0.072 C 
HETATM   15  C   UNL     1     -43.247  59.989 -60.989  1.00  0.00     0.033 A 
HETATM   16  C   UNL     1     -43.310  60.723 -62.298  1.00  0.00     0.070 C 
HETATM   17  N   UNL     1     -44.099  58.918 -60.877  1.00  0.00    -0.324 N 
HETATM   18  C   UNL     1     -44.175  58.143 -59.747  1.00  0.00     0.280 A 
HETATM   19  H   UNL     1     -44.723  58.665 -61.634  1.00  0.00     0.169 HD
HETATM   20  O   UNL     1     -44.954  57.211 -59.638  1.00  0.00    -0.265 OA
ENDBRANCH   8  11
ENDBRANCH   5   7
BRANCH   1  21
HETATM   21  C   UNL     1     -41.178  53.300 -53.948  1.00  0.00    -0.005 A 
HETATM   22  C   UNL     1     -40.927  53.665 -52.615  1.00  0.00     0.020 A 
HETATM   23  C   UNL     1     -40.195  52.830 -51.760  1.00  0.00    -0.061 A 
HETATM   24  C   UNL     1     -39.932  53.227 -50.337  1.00  0.00     0.048 C 
HETATM   25  C   UNL     1     -39.700  51.617 -52.251  1.00  0.00     0.013 A 
HETATM   26  C   UNL     1     -39.930  51.234 -53.578  1.00  0.00    -0.061 A 
HETATM   27  C   UNL     1     -40.670  52.080 -54.418  1.00  0.00     0.020 A 
HETATM   28  C   UNL     1     -39.377  49.934 -54.084  1.00  0.00     0.048 C 
ENDBRANCH   1  21
TORSDOF 3
ENDMDL
MODEL 4
REMARK VINA RESULT:      -8.6      2.723      3.883
REMARK  3 active torsions:
REMARK  status: ('A' for Active; 'I' for Inactive)
REMARK    1  A    between atoms: C_4  and  C_5 
REMARK    2  A    between atoms: C_9  and  N_10 
REMARK       I    between atoms: N_10  and  C_11 
REMARK    3  A    between atoms: C_11  and  C_12 
ROOT
HETATM    1  C   UNL     1     -41.836  54.427 -54.897  1.00  0.00     0.090 A 
HETATM    2  N   UNL     1     -43.012  54.091 -55.459  1.00  0.00    -0.173 NA
HETATM    3  N   UNL     1     -43.369  55.169 -56.172  1.00  0.00    -0.262 N 
HETATM    4  H   UNL     1     -44.242  55.158 -56.696  1.00  0.00     0.191 HD
HETATM    5  C   UNL     1     -42.464  56.193 -56.112  1.00  0.00     0.126 A 
HETATM    6  C   UNL     1     -41.461  55.746 -55.288  1.00  0.00     0.084 A 
ENDROOT
BRANCH   5   7
HETATM    7  N   UNL     1     -42.601  57.393 -56.775  1.00  0.00    -0.306 N 
HETATM    8  C   UNL     1     -42.655  57.473 -58.156  1.00  0.00     0.281 C 
HETATM    9  O   UNL     1     -42.596  56.526 -58.925  1.00  0.00    -0.265 OA
HETATM   10  H   UNL     1     -42.630  58.268 -56.256  1.00  0.00     0.170 HD
BRANCH   8  11
HETATM   11  C   UNL     1     -42.780  58.911 -58.659  1.00  0.00     0.193 A 
HETATM   12  N   UNL     1     -43.474  59.077 -59.761  1.00  0.00    -0.241 NA
HETATM   13  C   UNL     1     -43.634  60.358 -60.251  1.00  0.00     0.054 A 
HETATM   14  C   UNL     1     -44.447  60.440 -61.517  1.00  0.00     0.072 C 
HETATM   15  C   UNL     1     -43.116  61.457 -59.658  1.00  0.00     0.033 A 
HETATM   16  C   UNL     1     -43.267  62.870 -60.145  1.00  0.00     0.070 C 
HETATM   17  N   UNL     1     -42.379  61.309 -58.509  1.00  0.00    -0.324 N 
HETATM   18  C   UNL     1     -42.137  60.087 -57.932  1.00  0.00     0.280 A 
HETATM   19  H   UNL     1     -41.968  62.110 -58.045  1.00  0.00     0.169 HD
HETATM   20  O   UNL     1     -41.456  59.955 -56.929  1.00  0.00    -0.265 OA
ENDBRANCH   8  11
ENDBRANCH   5   7
BRANCH   1  21
HETATM   21  C   UNL     1     -41.108  53.495 -54.028  1.00  0.00    -0.005 A 
HETATM   22  C   UNL     1     -40.848  53.834 -52.691  1.00  0.00     0.020 A 
HETATM   23  C   UNL     1     -40.163  52.957 -51.839  1.00  0.00    -0.061 A 
HETATM   24  C   UNL     1     -39.891  53.326 -50.411  1.00  0.00     0.048 C 
HETATM   25  C   UNL     1     -39.725  51.726 -52.340  1.00  0.00     0.013 A 
HETATM   26  C   UNL     1     -39.965  51.367 -53.672  1.00  0.00    -0.061 A 
HETATM   27  C   UNL     1     -40.657  52.257 -54.508  1.00  0.00     0.020 A 
HETATM   28  C   UNL     1     -39.472  50.046 -54.188  1.00  0.00     0.048 C 
ENDBRANCH   1  21
TORSDOF 3
ENDMDL
MODEL 5
REMARK VINA RESULT:      -8.2      1.962      2.283
REMARK  3 active torsions:
REMARK  status: ('A' for Active; 'I' for Inactive)
REMARK    1  A    between atoms: C_4  and  C_5 
REMARK    2  A    between atoms: C_9  and  N_10 
REMARK       I    between atoms: N_10  and  C_11 
REMARK    3  A    between atoms: C_11  and  C_12 
ROOT
HETATM    1  C   UNL     1     -41.558  54.851 -54.739  1.00  0.00     0.090 A 
HETATM    2  N   UNL     1     -41.185  56.125 -54.518  1.00  0.00    -0.173 NA
HETATM    3  N   UNL     1     -41.888  56.845 -55.404  1.00  0.00    -0.262 N 
HETATM    4  H   UNL     1     -41.774  57.856 -55.433  1.00  0.00     0.191 HD
HETATM    5  C   UNL     1     -42.720  56.093 -56.187  1.00  0.00     0.126 A 
HETATM    6  C   UNL     1     -42.526  54.794 -55.785  1.00  0.00     0.084 A 
ENDROOT
BRANCH   5   7
HETATM    7  N   UNL     1     -43.555  56.607 -57.155  1.00  0.00    -0.306 N 
HETATM    8  C   UNL     1     -44.318  57.744 -56.945  1.00  0.00     0.281 C 
HETATM    9  O   UNL     1     -44.339  58.406 -55.919  1.00  0.00    -0.265 OA
HETATM   10  H   UNL     1     -43.658  56.135 -58.050  1.00  0.00     0.170 HD
BRANCH   8  11
HETATM   11  C   UNL     1     -45.184  58.103 -58.152  1.00  0.00     0.193 A 
HETATM   12  N   UNL     1     -45.746  57.095 -58.777  1.00  0.00    -0.241 NA
HETATM   13  C   UNL     1     -46.554  57.363 -59.865  1.00  0.00     0.054 A 
HETATM   14  C   UNL     1     -47.152  56.139 -60.509  1.00  0.00     0.072 C 
HETATM   15  C   UNL     1     -46.803  58.610 -60.324  1.00  0.00     0.033 A 
HETATM   16  C   UNL     1     -47.678  58.955 -61.495  1.00  0.00     0.070 C 
HETATM   17  N   UNL     1     -46.219  59.680 -59.693  1.00  0.00    -0.324 N 
HETATM   18  C   UNL     1     -45.385  59.543 -58.611  1.00  0.00     0.280 A 
HETATM   19  H   UNL     1     -46.376  60.627 -60.017  1.00  0.00     0.169 HD
HETATM   20  O   UNL     1     -44.845  60.493 -58.071  1.00  0.00    -0.265 OA
ENDBRANCH   8  11
ENDBRANCH   5   7
BRANCH   1  21
HETATM   21  C   UNL     1     -41.003  53.742 -53.954  1.00  0.00    -0.005 A 
HETATM   22  C   UNL     1     -40.659  52.535 -54.583  1.00  0.00     0.020 A 
HETATM   23  C   UNL     1     -40.117  51.466 -53.857  1.00  0.00    -0.061 A 
HETATM   24  C   UNL     1     -39.752  50.180 -54.537  1.00  0.00     0.048 C 
HETATM   25  C   UNL     1     -39.928  51.607 -52.478  1.00  0.00     0.013 A 
HETATM   26  C   UNL     1     -40.270  52.798 -51.825  1.00  0.00    -0.061 A 
HETATM   27  C   UNL     1     -40.805  53.860 -52.570  1.00  0.00     0.020 A 
HETATM   28  C   UNL     1     -40.069  52.919 -50.343  1.00  0.00     0.048 C 
ENDBRANCH   1  21
TORSDOF 3
ENDMDL
MODEL 6
REMARK VINA RESULT:      -8.2      2.321      3.117
REMARK  3 active torsions:
REMARK  status: ('A' for Active; 'I' for Inactive)
REMARK    1  A    between atoms: C_4  and  C_5 
REMARK    2  A    between atoms: C_9  and  N_10 
REMARK       I    between atoms: N_10  and  C_11 
REMARK    3  A    between atoms: C_11  and  C_12 
ROOT
HETATM    1  C   UNL     1     -40.873  54.237 -53.767  1.00  0.00     0.090 A 
HETATM    2  N   UNL     1     -40.267  53.715 -54.849  1.00  0.00    -0.173 NA
HETATM    3  N   UNL     1     -40.668  54.489 -55.869  1.00  0.00    -0.262 N 
HETATM    4  H   UNL     1     -40.338  54.288 -56.811  1.00  0.00     0.191 HD
HETATM    5  C   UNL     1     -41.502  55.506 -55.494  1.00  0.00     0.126 A 
HETATM    6  C   UNL     1     -41.659  55.367 -54.137  1.00  0.00     0.084 A 
ENDROOT
BRANCH   5   7
HETATM    7  N   UNL     1     -42.028  56.440 -56.358  1.00  0.00    -0.306 N 
HETATM    8  C   UNL     1     -42.874  56.092 -57.398  1.00  0.00     0.281 C 
HETATM    9  O   UNL     1     -43.246  54.959 -57.662  1.00  0.00    -0.265 OA
HETATM   10  H   UNL     1     -41.776  57.422 -56.272  1.00  0.00     0.170 HD
BRANCH   8  11
HETATM   11  C   UNL     1     -43.306  57.296 -58.235  1.00  0.00     0.193 A 
HETATM   12  N   UNL     1     -43.896  58.269 -57.581  1.00  0.00    -0.241 NA
HETATM   13  C   UNL     1     -44.291  59.389 -58.286  1.00  0.00     0.054 A 
HETATM   14  C   UNL     1     -44.957  60.448 -57.444  1.00  0.00     0.072 C 
HETATM   15  C   UNL     1     -44.102  59.543 -59.615  1.00  0.00     0.033 A 
HETATM   16  C   UNL     1     -44.506  60.743 -60.426  1.00  0.00     0.070 C 
HETATM   17  N   UNL     1     -43.495  58.536 -60.323  1.00  0.00    -0.324 N 
HETATM   18  C   UNL     1     -43.070  57.368 -59.740  1.00  0.00     0.280 A 
HETATM   19  H   UNL     1     -43.347  58.615 -61.322  1.00  0.00     0.169 HD
HETATM   20  O   UNL     1     -42.558  56.462 -60.376  1.00  0.00    -0.265 OA
ENDBRANCH   8  11
ENDBRANCH   5   7
BRANCH   1  21
HETATM   21  C   UNL     1     -40.681  53.662 -52.430  1.00  0.00    -0.005 A 
HETATM   22  C   UNL     1     -40.899  54.447 -51.286  1.00  0.00     0.020 A 
HETATM   23  C   UNL     1     -40.732  53.918 -50.000  1.00  0.00    -0.061 A 
HETATM   24  C   UNL     1     -40.968  54.763 -48.784  1.00  0.00     0.048 C 
HETATM   25  C   UNL     1     -40.332  52.584 -49.859  1.00  0.00     0.013 A 
HETATM   26  C   UNL     1     -40.102  51.782 -50.983  1.00  0.00    -0.061 A 
HETATM   27  C   UNL     1     -40.279  52.328 -52.264  1.00  0.00     0.020 A 
HETATM   28  C   UNL     1     -39.660  50.359 -50.805  1.00  0.00     0.048 C 
ENDBRANCH   1  21
TORSDOF 3
ENDMDL
MODEL 7
REMARK VINA RESULT:      -7.9      3.947      4.693
REMARK  3 active torsions:
REMARK  status: ('A' for Active; 'I' for Inactive)
REMARK    1  A    between atoms: C_4  and  C_5 
REMARK    2  A    between atoms: C_9  and  N_10 
REMARK       I    between atoms: N_10  and  C_11 
REMARK    3  A    between atoms: C_11  and  C_12 
ROOT
HETATM    1  C   UNL     1     -41.196  54.775 -54.420  1.00  0.00     0.090 A 
HETATM    2  N   UNL     1     -41.427  54.688 -55.742  1.00  0.00    -0.173 NA
HETATM    3  N   UNL     1     -41.817  55.921 -56.100  1.00  0.00    -0.262 N 
HETATM    4  H   UNL     1     -42.056  56.109 -57.072  1.00  0.00     0.191 HD
HETATM    5  C   UNL     1     -41.836  56.814 -55.065  1.00  0.00     0.126 A 
HETATM    6  C   UNL     1     -41.443  56.102 -53.959  1.00  0.00     0.084 A 
ENDROOT
BRANCH   5   7
HETATM    7  N   UNL     1     -42.184  58.142 -55.188  1.00  0.00    -0.306 N 
HETATM    8  C   UNL     1     -43.465  58.542 -55.529  1.00  0.00     0.281 C 
HETATM    9  O   UNL     1     -44.408  57.797 -55.748  1.00  0.00    -0.265 OA
HETATM   10  H   UNL     1     -41.486  58.871 -55.064  1.00  0.00     0.170 HD
BRANCH   8  11
HETATM   11  C   UNL     1     -43.600  60.061 -55.632  1.00  0.00     0.193 A 
HETATM   12  N   UNL     1     -44.727  60.570 -55.189  1.00  0.00    -0.241 NA
HETATM   13  C   UNL     1     -44.896  61.939 -55.242  1.00  0.00     0.054 A 
HETATM   14  C   UNL     1     -46.220  62.421 -54.708  1.00  0.00     0.072 C 
HETATM   15  C   UNL     1     -43.963  62.791 -55.723  1.00  0.00     0.033 A 
HETATM   16  C   UNL     1     -44.094  64.286 -55.795  1.00  0.00     0.070 C 
HETATM   17  N   UNL     1     -42.780  62.283 -56.200  1.00  0.00    -0.324 N 
HETATM   18  C   UNL     1     -42.499  60.939 -56.215  1.00  0.00     0.280 A 
HETATM   19  H   UNL     1     -42.064  62.892 -56.577  1.00  0.00     0.169 HD
HETATM   20  O   UNL     1     -41.460  60.489 -56.667  1.00  0.00    -0.265 OA
ENDBRANCH   8  11
ENDBRANCH   5   7
BRANCH   1  21
HETATM   21  C   UNL     1     -40.740  53.615 -53.644  1.00  0.00    -0.005 A 
HETATM   22  C   UNL     1     -40.316  52.449 -54.301  1.00  0.00     0.020 A 
HETATM   23  C   UNL     1     -39.867  51.333 -53.582  1.00  0.00    -0.061 A 
HETATM   24  C   UNL     1     -39.414  50.092 -54.292  1.00  0.00     0.048 C 
HETATM   25  C   UNL     1     -39.854  51.384 -52.184  1.00  0.00     0.013 A 
HETATM   26  C   UNL     1     -40.279  52.532 -51.504  1.00  0.00    -0.061 A 
HETATM   27  C   UNL     1     -40.720  53.642 -52.241  1.00  0.00     0.020 A 
HETATM   28  C   UNL     1     -40.267  52.557 -50.004  1.00  0.00     0.048 C 
ENDBRANCH   1  21
TORSDOF 3
ENDMDL
MODEL 8
REMARK VINA RESULT:      -7.9      3.966      5.343
REMARK  3 active torsions:
REMARK  status: ('A' for Active; 'I' for Inactive)
REMARK    1  A    between atoms: C_4  and  C_5 
REMARK    2  A    between atoms: C_9  and  N_10 
REMARK       I    between atoms: N_10  and  C_11 
REMARK    3  A    between atoms: C_11  and  C_12 
ROOT
HETATM    1  C   UNL     1     -41.078  54.638 -54.315  1.00  0.00     0.090 A 
HETATM    2  N   UNL     1     -41.365  54.620 -55.629  1.00  0.00    -0.173 NA
HETATM    3  N   UNL     1     -41.725  55.880 -55.915  1.00  0.00    -0.262 N 
HETATM    4  H   UNL     1     -41.995  56.121 -56.866  1.00  0.00     0.191 HD
HETATM    5  C   UNL     1     -41.671  56.725 -54.841  1.00  0.00     0.126 A 
HETATM    6  C   UNL     1     -41.260  55.949 -53.785  1.00  0.00     0.084 A 
ENDROOT
BRANCH   5   7
HETATM    7  N   UNL     1     -41.976  58.068 -54.890  1.00  0.00    -0.306 N 
HETATM    8  C   UNL     1     -43.259  58.526 -55.136  1.00  0.00     0.281 C 
HETATM    9  O   UNL     1     -44.240  57.824 -55.327  1.00  0.00    -0.265 OA
HETATM   10  H   UNL     1     -41.245  58.766 -54.779  1.00  0.00     0.170 HD
BRANCH   8  11
HETATM   11  C   UNL     1     -43.344  60.052 -55.170  1.00  0.00     0.193 A 
HETATM   12  N   UNL     1     -44.115  60.565 -56.100  1.00  0.00    -0.241 NA
HETATM   13  C   UNL     1     -44.242  61.938 -56.166  1.00  0.00     0.054 A 
HETATM   14  C   UNL     1     -45.150  62.424 -57.267  1.00  0.00     0.072 C 
HETATM   15  C   UNL     1     -43.618  62.790 -55.323  1.00  0.00     0.033 A 
HETATM   16  C   UNL     1     -43.728  64.288 -55.347  1.00  0.00     0.070 C 
HETATM   17  N   UNL     1     -42.799  62.279 -54.346  1.00  0.00    -0.324 N 
HETATM   18  C   UNL     1     -42.579  60.933 -54.188  1.00  0.00     0.280 A 
HETATM   19  H   UNL     1     -42.308  62.889 -53.704  1.00  0.00     0.169 HD
HETATM   20  O   UNL     1     -41.828  60.483 -53.339  1.00  0.00    -0.265 OA
ENDBRANCH   8  11
ENDBRANCH   5   7
BRANCH   1  21
HETATM   21  C   UNL     1     -40.634  53.428 -53.611  1.00  0.00    -0.005 A 
HETATM   22  C   UNL     1     -40.637  53.387 -52.208  1.00  0.00     0.020 A 
HETATM   23  C   UNL     1     -40.228  52.240 -51.514  1.00  0.00    -0.061 A 
HETATM   24  C   UNL     1     -40.235  52.204 -50.015  1.00  0.00     0.048 C 
HETATM   25  C   UNL     1     -39.800  51.122 -52.240  1.00  0.00     0.013 A 
HETATM   26  C   UNL     1     -39.780  51.141 -53.640  1.00  0.00    -0.061 A 
HETATM   27  C   UNL     1     -40.199  52.296 -54.317  1.00  0.00     0.020 A 
HETATM   28  C   UNL     1     -39.304  49.933 -54.394  1.00  0.00     0.048 C 
ENDBRANCH   1  21
TORSDOF 3
ENDMDL
MODEL 9
REMARK VINA RESULT:      -7.8      2.754      2.975
REMARK  3 active torsions:
REMARK  status: ('A' for Active; 'I' for Inactive)
REMARK    1  A    between atoms: C_4  and  C_5 
REMARK    2  A    between atoms: C_9  and  N_10 
REMARK       I    between atoms: N_10  and  C_11 
REMARK    3  A    between atoms: C_11  and  C_12 
ROOT
HETATM    1  C   UNL     1     -41.401  55.510 -53.998  1.00  0.00     0.090 A 
HETATM    2  N   UNL     1     -41.707  56.666 -53.382  1.00  0.00    -0.173 NA
HETATM    3  N   UNL     1     -42.121  57.477 -54.367  1.00  0.00    -0.262 N 
HETATM    4  H   UNL     1     -42.410  58.427 -54.147  1.00  0.00     0.191 HD
HETATM    5  C   UNL     1     -42.112  56.890 -55.603  1.00  0.00     0.126 A 
HETATM    6  C   UNL     1     -41.645  55.615 -55.399  1.00  0.00     0.084 A 
ENDROOT
BRANCH   5   7
HETATM    7  N   UNL     1     -42.511  57.514 -56.764  1.00  0.00    -0.306 N 
HETATM    8  C   UNL     1     -42.283  58.860 -56.996  1.00  0.00     0.281 C 
HETATM    9  O   UNL     1     -41.718  59.627 -56.231  1.00  0.00    -0.265 OA
HETATM   10  H   UNL     1     -43.023  56.999 -57.476  1.00  0.00     0.170 HD
BRANCH   8  11
HETATM   11  C   UNL     1     -42.841  59.330 -58.340  1.00  0.00     0.193 A 
HETATM   12  N   UNL     1     -43.706  60.316 -58.290  1.00  0.00    -0.241 NA
HETATM   13  C   UNL     1     -44.229  60.792 -59.476  1.00  0.00     0.054 A 
HETATM   14  C   UNL     1     -45.210  61.924 -59.311  1.00  0.00     0.072 C 
HETATM   15  C   UNL     1     -43.899  60.300 -60.691  1.00  0.00     0.033 A 
HETATM   16  C   UNL     1     -44.432  60.787 -62.009  1.00  0.00     0.070 C 
HETATM   17  N   UNL     1     -43.003  59.263 -60.769  1.00  0.00    -0.324 N 
HETATM   18  C   UNL     1     -42.425  58.693 -59.661  1.00  0.00     0.280 A 
HETATM   19  H   UNL     1     -42.742  58.864 -61.663  1.00  0.00     0.169 HD
HETATM   20  O   UNL     1     -41.653  57.752 -59.731  1.00  0.00    -0.265 OA
ENDBRANCH   8  11
ENDBRANCH   5   7
BRANCH   1  21
HETATM   21  C   UNL     1     -40.905  54.350 -53.247  1.00  0.00    -0.005 A 
HETATM   22  C   UNL     1     -40.514  53.184 -53.926  1.00  0.00     0.020 A 
HETATM   23  C   UNL     1     -40.027  52.069 -53.232  1.00  0.00    -0.061 A 
HETATM   24  C   UNL     1     -39.610  50.828 -53.966  1.00  0.00     0.048 C 
HETATM   25  C   UNL     1     -39.941  52.120 -51.837  1.00  0.00     0.013 A 
HETATM   26  C   UNL     1     -40.331  53.267 -51.135  1.00  0.00    -0.061 A 
HETATM   27  C   UNL     1     -40.811  54.376 -51.848  1.00  0.00     0.020 A 
HETATM   28  C   UNL     1     -40.241  53.291 -49.637  1.00  0.00     0.048 C 
ENDBRANCH   1  21
TORSDOF 3
ENDMDL
MODEL 10
REMARK VINA RESULT:      -7.8      2.105      2.806
REMARK  3 active torsions:
REMARK  status: ('A' for Active; 'I' for Inactive)
REMARK    1  A    between atoms: C_4  and  C_5 
REMARK    2  A    between atoms: C_9  and  N_10 
REMARK       I    between atoms: N_10  and  C_11 
REMARK    3  A    between atoms: C_11  and  C_12 
ROOT
HETATM    1  C   UNL     1     -41.849  55.989 -54.149  1.00  0.00     0.090 A 
HETATM    2  N   UNL     1     -40.945  55.632 -55.081  1.00  0.00    -0.173 NA
HETATM    3  N   UNL     1     -41.632  55.617 -56.232  1.00  0.00    -0.262 N 
HETATM    4  H   UNL     1     -41.157  55.370 -57.097  1.00  0.00     0.191 HD
HETATM    5  C   UNL     1     -42.948  55.965 -56.093  1.00  0.00     0.126 A 
HETATM    6  C   UNL     1     -43.122  56.207 -54.753  1.00  0.00     0.084 A 
ENDROOT
BRANCH   5   7
HETATM    7  N   UNL     1     -43.848  56.040 -57.133  1.00  0.00    -0.306 N 
HETATM    8  C   UNL     1     -43.715  56.958 -58.161  1.00  0.00     0.281 C 
HETATM    9  O   UNL     1     -42.816  57.777 -58.270  1.00  0.00    -0.265 OA
HETATM   10  H   UNL     1     -44.666  55.435 -57.151  1.00  0.00     0.170 HD
BRANCH   8  11
HETATM   11  C   UNL     1     -44.850  56.868 -59.182  1.00  0.00     0.193 A 
HETATM   12  N   UNL     1     -45.652  57.905 -59.242  1.00  0.00    -0.241 NA
HETATM   13  C   UNL     1     -46.685  57.885 -60.159  1.00  0.00     0.054 A 
HETATM   14  C   UNL     1     -47.546  59.122 -60.149  1.00  0.00     0.072 C 
HETATM   15  C   UNL     1     -46.916  56.856 -61.004  1.00  0.00     0.033 A 
HETATM   16  C   UNL     1     -48.018  56.789 -62.023  1.00  0.00     0.070 C 
HETATM   17  N   UNL     1     -46.096  55.757 -60.955  1.00  0.00    -0.324 N 
HETATM   18  C   UNL     1     -45.045  55.650 -60.078  1.00  0.00     0.280 A 
HETATM   19  H   UNL     1     -46.247  54.964 -61.567  1.00  0.00     0.169 HD
HETATM   20  O   UNL     1     -44.336  54.660 -60.016  1.00  0.00    -0.265 OA
ENDBRANCH   8  11
ENDBRANCH   5   7
BRANCH   1  21
HETATM   21  C   UNL     1     -41.479  56.122 -52.735  1.00  0.00    -0.005 A 
HETATM   22  C   UNL     1     -41.274  54.977 -51.948  1.00  0.00     0.020 A 
HETATM   23  C   UNL     1     -40.910  55.080 -50.598  1.00  0.00    -0.061 A 
HETATM   24  C   UNL     1     -40.691  53.852 -49.766  1.00  0.00     0.048 C 
HETATM   25  C   UNL     1     -40.761  56.349 -50.028  1.00  0.00     0.013 A 
HETATM   26  C   UNL     1     -40.967  57.506 -50.789  1.00  0.00    -0.061 A 
HETATM   27  C   UNL     1     -41.325  57.383 -52.140  1.00  0.00     0.020 A 
HETATM   28  C   UNL     1     -40.813  58.855 -50.150  1.00  0.00     0.048 C 
ENDBRANCH   1  21
TORSDOF 3
ENDMDL
