MODEL 1
REMARK VINA RESULT:      -7.8      0.000      0.000
REMARK  5 active torsions:
REMARK  status: ('A' for Active; 'I' for Inactive)
REMARK    1  A    between atoms: C_6  and  N_7 
REMARK       I    between atoms: N_7  and  C_8 
REMARK    2  A    between atoms: C_8  and  C_9 
REMARK    3  A    between atoms: C_9  and  O_10 
REMARK    4  A    between atoms: O_10  and  C_11 
REMARK    5  A    between atoms: C_19  and  C_20 
ROOT
HETATM    1  C   UNL     1     -44.542  54.177 -50.377  1.00  0.00     0.073 C 
HETATM    2  C   UNL     1     -43.810  55.392 -50.813  1.00  0.00     0.065 A 
HETATM    3  N   UNL     1     -44.296  56.606 -50.525  1.00  0.00    -0.177 NA
HETATM    4  N   UNL     1     -43.413  57.449 -51.082  1.00  0.00    -0.262 N 
HETATM    5  H   UNL     1     -43.567  58.447 -50.967  1.00  0.00     0.191 HD
HETATM    6  C   UNL     1     -42.363  56.830 -51.707  1.00  0.00     0.137 A 
HETATM    7  C   UNL     1     -42.598  55.476 -51.551  1.00  0.00     0.046 A 
ENDROOT
BRANCH   6   8
HETATM    8  N   UNL     1     -41.282  57.466 -52.283  1.00  0.00    -0.309 N 
HETATM    9  C   UNL     1     -41.263  58.341 -53.336  1.00  0.00     0.247 C 
HETATM   10  O   UNL     1     -40.250  59.021 -53.523  1.00  0.00    -0.271 OA
HETATM   11  H   UNL     1     -40.371  57.306 -51.867  1.00  0.00     0.170 HD
BRANCH   9  12
HETATM   12  C   UNL     1     -42.395  58.321 -54.364  1.00  0.00     0.278 C 
BRANCH  12  13
HETATM   13  O   UNL     1     -42.010  58.733 -55.665  1.00  0.00    -0.342 OA
BRANCH  13  14
HETATM   14  C   UNL     1     -42.357  57.880 -56.685  1.00  0.00     0.069 A 
HETATM   15  C   UNL     1     -42.622  56.565 -56.289  1.00  0.00     0.040 A 
HETATM   16  C   UNL     1     -42.969  55.596 -57.233  1.00  0.00     0.045 A 
HETATM   17  C   UNL     1     -43.057  55.948 -58.573  1.00  0.00     0.116 A 
HETATM   18  F   UNL     1     -43.392  55.023 -59.482  1.00  0.00    -0.206 F 
HETATM   19  C   UNL     1     -42.803  57.250 -58.984  1.00  0.00     0.045 A 
HETATM   20  C   UNL     1     -42.453  58.220 -58.040  1.00  0.00     0.040 A 
ENDBRANCH  13  14
ENDBRANCH  12  13
ENDBRANCH   9  12
ENDBRANCH   6   8
BRANCH   7  21
HETATM   21  C   UNL     1     -41.827  54.434 -52.199  1.00  0.00    -0.020 A 
HETATM   22  C   UNL     1     -42.055  54.085 -53.535  1.00  0.00     0.014 A 
HETATM   23  C   UNL     1     -41.340  53.032 -54.113  1.00  0.00     0.020 A 
HETATM   24  C   UNL     1     -40.395  52.337 -53.359  1.00  0.00     0.011 A 
HETATM   25 BR   UNL     1     -39.444  50.899 -54.136  1.00  0.00    -0.051 Br
HETATM   26  C   UNL     1     -40.150  52.688 -52.034  1.00  0.00     0.020 A 
HETATM   27  C   UNL     1     -40.866  53.737 -51.455  1.00  0.00     0.014 A 
ENDBRANCH   7  21
TORSDOF 5
ENDMDL
MODEL 2
REMARK VINA RESULT:      -7.7      3.806      6.355
REMARK  5 active torsions:
REMARK  status: ('A' for Active; 'I' for Inactive)
REMARK    1  A    between atoms: C_6  and  N_7 
REMARK       I    between atoms: N_7  and  C_8 
REMARK    2  A    between atoms: C_8  and  C_9 
REMARK    3  A    between atoms: C_9  and  O_10 
REMARK    4  A    between atoms: O_10  and  C_11 
REMARK    5  A    between atoms: C_19  and  C_20 
ROOT
HETATM    1  C   UNL     1     -43.397  59.510 -55.651  1.00  0.00     0.073 C 
HETATM    2  C   UNL     1     -43.862  58.300 -54.928  1.00  0.00     0.065 A 
HETATM    3  N   UNL     1     -44.943  57.638 -55.359  1.00  0.00    -0.177 NA
HETATM    4  N   UNL     1     -45.086  56.639 -54.473  1.00  0.00    -0.262 N 
HETATM    5  H   UNL     1     -45.843  55.977 -54.618  1.00  0.00     0.191 HD
HETATM    6  C   UNL     1     -44.129  56.617 -53.494  1.00  0.00     0.137 A 
HETATM    7  C   UNL     1     -43.312  57.700 -53.763  1.00  0.00     0.046 A 
ENDROOT
BRANCH   6   8
HETATM    8  N   UNL     1     -44.001  55.650 -52.516  1.00  0.00    -0.309 N 
HETATM    9  C   UNL     1     -43.067  54.653 -52.414  1.00  0.00     0.247 C 
HETATM   10  O   UNL     1     -42.939  54.071 -51.334  1.00  0.00    -0.271 OA
HETATM   11  H   UNL     1     -44.653  55.682 -51.740  1.00  0.00     0.170 HD
BRANCH   9  12
HETATM   12  C   UNL     1     -42.352  54.149 -53.667  1.00  0.00     0.278 C 
BRANCH  12  13
HETATM   13  O   UNL     1     -40.944  54.042 -53.534  1.00  0.00    -0.342 OA
BRANCH  13  14
HETATM   14  C   UNL     1     -40.466  52.779 -53.277  1.00  0.00     0.069 A 
HETATM   15  C   UNL     1     -40.526  51.896 -54.360  1.00  0.00     0.040 A 
HETATM   16  C   UNL     1     -40.085  50.577 -54.224  1.00  0.00     0.045 A 
HETATM   17  C   UNL     1     -39.579  50.147 -53.004  1.00  0.00     0.116 A 
HETATM   18  F   UNL     1     -39.154  48.885 -52.870  1.00  0.00    -0.206 F 
HETATM   19  C   UNL     1     -39.508  51.012 -51.921  1.00  0.00     0.045 A 
HETATM   20  C   UNL     1     -39.951  52.331 -52.055  1.00  0.00     0.040 A 
ENDBRANCH  13  14
ENDBRANCH  12  13
ENDBRANCH   9  12
ENDBRANCH   6   8
BRANCH   7  21
HETATM   21  C   UNL     1     -42.258  58.165 -52.884  1.00  0.00    -0.020 A 
HETATM   22  C   UNL     1     -42.546  58.706 -51.626  1.00  0.00     0.014 A 
HETATM   23  C   UNL     1     -41.513  59.205 -50.827  1.00  0.00     0.020 A 
HETATM   24  C   UNL     1     -40.196  59.156 -51.284  1.00  0.00     0.011 A 
HETATM   25 BR   UNL     1     -38.802  59.852 -50.212  1.00  0.00    -0.051 Br
HETATM   26  C   UNL     1     -39.898  58.605 -52.527  1.00  0.00     0.020 A 
HETATM   27  C   UNL     1     -40.930  58.110 -53.327  1.00  0.00     0.014 A 
ENDBRANCH   7  21
TORSDOF 5
ENDMDL
MODEL 3
REMARK VINA RESULT:      -7.7      3.107      5.782
REMARK  5 active torsions:
REMARK  status: ('A' for Active; 'I' for Inactive)
REMARK    1  A    between atoms: C_6  and  N_7 
REMARK       I    between atoms: N_7  and  C_8 
REMARK    2  A    between atoms: C_8  and  C_9 
REMARK    3  A    between atoms: C_9  and  O_10 
REMARK    4  A    between atoms: O_10  and  C_11 
REMARK    5  A    between atoms: C_19  and  C_20 
ROOT
HETATM    1  C   UNL     1     -42.128  60.274 -53.046  1.00  0.00     0.073 C 
HETATM    2  C   UNL     1     -42.557  59.022 -52.375  1.00  0.00     0.065 A 
HETATM    3  N   UNL     1     -42.530  58.935 -51.039  1.00  0.00    -0.177 NA
HETATM    4  N   UNL     1     -42.948  57.685 -50.787  1.00  0.00    -0.262 N 
HETATM    5  H   UNL     1     -43.033  57.397 -49.816  1.00  0.00     0.191 HD
HETATM    6  C   UNL     1     -43.261  56.961 -51.907  1.00  0.00     0.137 A 
HETATM    7  C   UNL     1     -43.010  57.812 -52.968  1.00  0.00     0.046 A 
ENDROOT
BRANCH   6   8
HETATM    8  N   UNL     1     -43.790  55.686 -51.918  1.00  0.00    -0.309 N 
HETATM    9  C   UNL     1     -43.348  54.568 -51.261  1.00  0.00     0.247 C 
HETATM   10  O   UNL     1     -44.107  53.600 -51.164  1.00  0.00    -0.271 OA
HETATM   11  H   UNL     1     -44.641  55.539 -52.450  1.00  0.00     0.170 HD
BRANCH   9  12
HETATM   12  C   UNL     1     -41.882  54.462 -50.840  1.00  0.00     0.278 C 
BRANCH  12  13
HETATM   13  O   UNL     1     -40.958  54.549 -51.912  1.00  0.00    -0.342 OA
BRANCH  13  14
HETATM   14  C   UNL     1     -40.547  53.349 -52.441  1.00  0.00     0.069 A 
HETATM   15  C   UNL     1     -40.877  53.155 -53.786  1.00  0.00     0.040 A 
HETATM   16  C   UNL     1     -40.530  51.969 -54.437  1.00  0.00     0.045 A 
HETATM   17  C   UNL     1     -39.846  50.981 -53.741  1.00  0.00     0.116 A 
HETATM   18  F   UNL     1     -39.509  49.844 -54.361  1.00  0.00    -0.206 F 
HETATM   19  C   UNL     1     -39.506  51.159 -52.406  1.00  0.00     0.045 A 
HETATM   20  C   UNL     1     -39.855  52.345 -51.753  1.00  0.00     0.040 A 
ENDBRANCH  13  14
ENDBRANCH  12  13
ENDBRANCH   9  12
ENDBRANCH   6   8
BRANCH   7  21
HETATM   21  C   UNL     1     -43.044  57.410 -54.360  1.00  0.00    -0.020 A 
HETATM   22  C   UNL     1     -44.055  57.854 -55.220  1.00  0.00     0.014 A 
HETATM   23  C   UNL     1     -44.098  57.398 -56.541  1.00  0.00     0.020 A 
HETATM   24  C   UNL     1     -43.128  56.507 -57.000  1.00  0.00     0.011 A 
HETATM   25 BR   UNL     1     -43.200  55.874 -58.781  1.00  0.00    -0.051 Br
HETATM   26  C   UNL     1     -42.109  56.072 -56.156  1.00  0.00     0.020 A 
HETATM   27  C   UNL     1     -42.068  56.525 -54.836  1.00  0.00     0.014 A 
ENDBRANCH   7  21
TORSDOF 5
ENDMDL
MODEL 4
REMARK VINA RESULT:      -7.6      3.953      6.621
REMARK  5 active torsions:
REMARK  status: ('A' for Active; 'I' for Inactive)
REMARK    1  A    between atoms: C_6  and  N_7 
REMARK       I    between atoms: N_7  and  C_8 
REMARK    2  A    between atoms: C_8  and  C_9 
REMARK    3  A    between atoms: C_9  and  O_10 
REMARK    4  A    between atoms: O_10  and  C_11 
REMARK    5  A    between atoms: C_19  and  C_20 
ROOT
HETATM    1  C   UNL     1     -43.000  56.849 -55.883  1.00  0.00     0.073 C 
HETATM    2  C   UNL     1     -43.062  55.853 -54.785  1.00  0.00     0.065 A 
HETATM    3  N   UNL     1     -43.202  54.552 -55.069  1.00  0.00    -0.177 NA
HETATM    4  N   UNL     1     -43.247  53.960 -53.865  1.00  0.00    -0.262 N 
HETATM    5  H   UNL     1     -43.327  52.948 -53.833  1.00  0.00     0.191 HD
HETATM    6  C   UNL     1     -43.125  54.825 -52.810  1.00  0.00     0.137 A 
HETATM    7  C   UNL     1     -43.006  56.079 -53.383  1.00  0.00     0.046 A 
ENDROOT
BRANCH   6   8
HETATM    8  N   UNL     1     -43.057  54.466 -51.479  1.00  0.00    -0.309 N 
HETATM    9  C   UNL     1     -41.960  54.412 -50.661  1.00  0.00     0.247 C 
HETATM   10  O   UNL     1     -42.134  54.348 -49.441  1.00  0.00    -0.271 OA
HETATM   11  H   UNL     1     -43.928  54.239 -51.012  1.00  0.00     0.170 HD
BRANCH   9  12
HETATM   12  C   UNL     1     -40.567  54.234 -51.265  1.00  0.00     0.278 C 
BRANCH  12  13
HETATM   13  O   UNL     1     -39.922  53.025 -50.901  1.00  0.00    -0.342 OA
BRANCH  13  14
HETATM   14  C   UNL     1     -39.877  52.058 -51.876  1.00  0.00     0.069 A 
HETATM   15  C   UNL     1     -40.154  52.514 -53.170  1.00  0.00     0.040 A 
HETATM   16  C   UNL     1     -40.156  51.626 -54.248  1.00  0.00     0.045 A 
HETATM   17  C   UNL     1     -39.874  50.284 -54.030  1.00  0.00     0.116 A 
HETATM   18  F   UNL     1     -39.874  49.430 -55.062  1.00  0.00    -0.206 F 
HETATM   19  C   UNL     1     -39.592  49.816 -52.754  1.00  0.00     0.045 A 
HETATM   20  C   UNL     1     -39.592  50.703 -51.673  1.00  0.00     0.040 A 
ENDBRANCH  13  14
ENDBRANCH  12  13
ENDBRANCH   9  12
ENDBRANCH   6   8
BRANCH   7  21
HETATM   21  C   UNL     1     -43.020  57.321 -52.637  1.00  0.00    -0.020 A 
HETATM   22  C   UNL     1     -44.211  57.851 -52.129  1.00  0.00     0.014 A 
HETATM   23  C   UNL     1     -44.202  59.083 -51.470  1.00  0.00     0.020 A 
HETATM   24  C   UNL     1     -43.004  59.779 -51.313  1.00  0.00     0.011 A 
HETATM   25 BR   UNL     1     -42.996  61.456 -50.441  1.00  0.00    -0.051 Br
HETATM   26  C   UNL     1     -41.811  59.252 -51.802  1.00  0.00     0.020 A 
HETATM   27  C   UNL     1     -41.820  58.023 -52.463  1.00  0.00     0.014 A 
ENDBRANCH   7  21
TORSDOF 5
ENDMDL
MODEL 5
REMARK VINA RESULT:      -7.5      3.234      5.911
REMARK  5 active torsions:
REMARK  status: ('A' for Active; 'I' for Inactive)
REMARK    1  A    between atoms: C_6  and  N_7 
REMARK       I    between atoms: N_7  and  C_8 
REMARK    2  A    between atoms: C_8  and  C_9 
REMARK    3  A    between atoms: C_9  and  O_10 
REMARK    4  A    between atoms: O_10  and  C_11 
REMARK    5  A    between atoms: C_19  and  C_20 
ROOT
HETATM    1  C   UNL     1     -42.590  57.881 -57.407  1.00  0.00     0.073 C 
HETATM    2  C   UNL     1     -43.306  57.916 -56.107  1.00  0.00     0.065 A 
HETATM    3  N   UNL     1     -44.026  58.993 -55.769  1.00  0.00    -0.177 NA
HETATM    4  N   UNL     1     -44.500  58.696 -54.548  1.00  0.00    -0.262 N 
HETATM    5  H   UNL     1     -45.108  59.372 -54.095  1.00  0.00     0.191 HD
HETATM    6  C   UNL     1     -44.129  57.461 -54.088  1.00  0.00     0.137 A 
HETATM    7  C   UNL     1     -43.340  56.924 -55.089  1.00  0.00     0.046 A 
ENDROOT
BRANCH   6   8
HETATM    8  N   UNL     1     -44.549  56.884 -52.906  1.00  0.00    -0.309 N 
HETATM    9  C   UNL     1     -43.923  56.873 -51.688  1.00  0.00     0.247 C 
HETATM   10  O   UNL     1     -44.577  56.560 -50.690  1.00  0.00    -0.271 OA
HETATM   11  H   UNL     1     -45.456  56.430 -52.905  1.00  0.00     0.170 HD
BRANCH   9  12
HETATM   12  C   UNL     1     -42.406  57.049 -51.609  1.00  0.00     0.278 C 
BRANCH  12  13
HETATM   13  O   UNL     1     -41.857  56.822 -50.322  1.00  0.00    -0.342 OA
BRANCH  13  14
HETATM   14  C   UNL     1     -41.427  55.540 -50.077  1.00  0.00     0.069 A 
HETATM   15  C   UNL     1     -41.417  54.699 -51.195  1.00  0.00     0.040 A 
HETATM   16  C   UNL     1     -41.016  53.366 -51.075  1.00  0.00     0.045 A 
HETATM   17  C   UNL     1     -40.619  52.880 -49.836  1.00  0.00     0.116 A 
HETATM   18  F   UNL     1     -40.232  51.604 -49.717  1.00  0.00    -0.206 F 
HETATM   19  C   UNL     1     -40.618  53.702 -48.718  1.00  0.00     0.045 A 
HETATM   20  C   UNL     1     -41.022  55.036 -48.836  1.00  0.00     0.040 A 
ENDBRANCH  13  14
ENDBRANCH  12  13
ENDBRANCH   9  12
ENDBRANCH   6   8
BRANCH   7  21
HETATM   21  C   UNL     1     -42.589  55.691 -54.963  1.00  0.00    -0.020 A 
HETATM   22  C   UNL     1     -43.235  54.453 -54.876  1.00  0.00     0.014 A 
HETATM   23  C   UNL     1     -42.487  53.287 -54.689  1.00  0.00     0.020 A 
HETATM   24  C   UNL     1     -41.097  53.360 -54.598  1.00  0.00     0.011 A 
HETATM   25 BR   UNL     1     -40.088  51.785 -54.324  1.00  0.00    -0.051 Br
HETATM   26  C   UNL     1     -40.445  54.586 -54.700  1.00  0.00     0.020 A 
HETATM   27  C   UNL     1     -41.192  55.751 -54.883  1.00  0.00     0.014 A 
ENDBRANCH   7  21
TORSDOF 5
ENDMDL
MODEL 6
REMARK VINA RESULT:      -7.4      3.881      6.674
REMARK  5 active torsions:
REMARK  status: ('A' for Active; 'I' for Inactive)
REMARK    1  A    between atoms: C_6  and  N_7 
REMARK       I    between atoms: N_7  and  C_8 
REMARK    2  A    between atoms: C_8  and  C_9 
REMARK    3  A    between atoms: C_9  and  O_10 
REMARK    4  A    between atoms: O_10  and  C_11 
REMARK    5  A    between atoms: C_19  and  C_20 
ROOT
HETATM    1  C   UNL     1     -42.482  57.298 -57.377  1.00  0.00     0.073 C 
HETATM    2  C   UNL     1     -42.885  56.394 -56.272  1.00  0.00     0.065 A 
HETATM    3  N   UNL     1     -43.076  55.090 -56.510  1.00  0.00    -0.177 NA
HETATM    4  N   UNL     1     -43.450  54.594 -55.319  1.00  0.00    -0.262 N 
HETATM    5  H   UNL     1     -43.627  53.596 -55.252  1.00  0.00     0.191 HD
HETATM    6  C   UNL     1     -43.492  55.523 -54.314  1.00  0.00     0.137 A 
HETATM    7  C   UNL     1     -43.130  56.718 -54.910  1.00  0.00     0.046 A 
ENDROOT
BRANCH   6   8
HETATM    8  N   UNL     1     -43.763  55.258 -52.986  1.00  0.00    -0.309 N 
HETATM    9  C   UNL     1     -42.925  55.346 -51.906  1.00  0.00     0.247 C 
HETATM   10  O   UNL     1     -43.417  55.349 -50.774  1.00  0.00    -0.271 OA
HETATM   11  H   UNL     1     -44.713  54.994 -52.747  1.00  0.00     0.170 HD
BRANCH   9  12
HETATM   12  C   UNL     1     -41.413  55.241 -52.105  1.00  0.00     0.278 C 
BRANCH  12  13
HETATM   13  O   UNL     1     -40.815  54.131 -51.456  1.00  0.00    -0.342 OA
BRANCH  13  14
HETATM   14  C   UNL     1     -40.478  53.077 -52.271  1.00  0.00     0.069 A 
HETATM   15  C   UNL     1     -39.835  52.016 -51.625  1.00  0.00     0.040 A 
HETATM   16  C   UNL     1     -39.427  50.891 -52.346  1.00  0.00     0.045 A 
HETATM   17  C   UNL     1     -39.668  50.828 -53.712  1.00  0.00     0.116 A 
HETATM   18  F   UNL     1     -39.280  49.751 -54.406  1.00  0.00    -0.206 F 
HETATM   19  C   UNL     1     -40.310  51.870 -54.368  1.00  0.00     0.045 A 
HETATM   20  C   UNL     1     -40.717  52.998 -53.648  1.00  0.00     0.040 A 
ENDBRANCH  13  14
ENDBRANCH  12  13
ENDBRANCH   9  12
ENDBRANCH   6   8
BRANCH   7  21
HETATM   21  C   UNL     1     -43.200  58.008 -54.256  1.00  0.00    -0.020 A 
HETATM   22  C   UNL     1     -42.054  58.624 -53.740  1.00  0.00     0.014 A 
HETATM   23  C   UNL     1     -42.162  59.840 -53.057  1.00  0.00     0.020 A 
HETATM   24  C   UNL     1     -43.411  60.439 -52.897  1.00  0.00     0.011 A 
HETATM   25 BR   UNL     1     -43.559  62.071 -51.954  1.00  0.00    -0.051 Br
HETATM   26  C   UNL     1     -44.555  59.841 -53.421  1.00  0.00     0.020 A 
HETATM   27  C   UNL     1     -44.448  58.626 -54.100  1.00  0.00     0.014 A 
ENDBRANCH   7  21
TORSDOF 5
ENDMDL
MODEL 7
REMARK VINA RESULT:      -7.3     15.529     17.388
REMARK  5 active torsions:
REMARK  status: ('A' for Active; 'I' for Inactive)
REMARK    1  A    between atoms: C_6  and  N_7 
REMARK       I    between atoms: N_7  and  C_8 
REMARK    2  A    between atoms: C_8  and  C_9 
REMARK    3  A    between atoms: C_9  and  O_10 
REMARK    4  A    between atoms: O_10  and  C_11 
REMARK    5  A    between atoms: C_19  and  C_20 
ROOT
HETATM    1  C   UNL     1     -31.488  38.653 -55.419  1.00  0.00     0.073 C 
HETATM    2  C   UNL     1     -32.509  39.728 -55.360  1.00  0.00     0.065 A 
HETATM    3  N   UNL     1     -32.867  40.374 -56.477  1.00  0.00    -0.177 NA
HETATM    4  N   UNL     1     -33.768  41.276 -56.057  1.00  0.00    -0.262 N 
HETATM    5  H   UNL     1     -34.205  41.875 -56.752  1.00  0.00     0.191 HD
HETATM    6  C   UNL     1     -34.023  41.229 -54.712  1.00  0.00     0.137 A 
HETATM    7  C   UNL     1     -33.206  40.223 -54.225  1.00  0.00     0.046 A 
ENDROOT
BRANCH   6   8
HETATM    8  N   UNL     1     -34.964  41.987 -54.044  1.00  0.00    -0.309 N 
HETATM    9  C   UNL     1     -36.237  41.643 -53.676  1.00  0.00     0.247 C 
HETATM   10  O   UNL     1     -36.821  42.342 -52.843  1.00  0.00    -0.271 OA
HETATM   11  H   UNL     1     -34.687  42.916 -53.745  1.00  0.00     0.170 HD
BRANCH   9  12
HETATM   12  C   UNL     1     -36.977  40.540 -54.433  1.00  0.00     0.278 C 
BRANCH  12  13
HETATM   13  O   UNL     1     -38.076  40.996 -55.204  1.00  0.00    -0.342 OA
BRANCH  13  14
HETATM   14  C   UNL     1     -37.848  41.110 -56.555  1.00  0.00     0.069 A 
HETATM   15  C   UNL     1     -38.358  40.062 -57.328  1.00  0.00     0.040 A 
HETATM   16  C   UNL     1     -38.179  40.051 -58.713  1.00  0.00     0.045 A 
HETATM   17  C   UNL     1     -37.494  41.094 -59.323  1.00  0.00     0.116 A 
HETATM   18  F   UNL     1     -37.321  41.088 -60.650  1.00  0.00    -0.206 F 
HETATM   19  C   UNL     1     -36.985  42.144 -58.571  1.00  0.00     0.045 A 
HETATM   20  C   UNL     1     -37.162  42.155 -57.184  1.00  0.00     0.040 A 
ENDBRANCH  13  14
ENDBRANCH  12  13
ENDBRANCH   9  12
ENDBRANCH   6   8
BRANCH   7  21
HETATM   21  C   UNL     1     -33.021  39.934 -52.817  1.00  0.00    -0.020 A 
HETATM   22  C   UNL     1     -31.951  40.477 -52.098  1.00  0.00     0.014 A 
HETATM   23  C   UNL     1     -31.762  40.128 -50.757  1.00  0.00     0.020 A 
HETATM   24  C   UNL     1     -32.644  39.243 -50.138  1.00  0.00     0.011 A 
HETATM   25 BR   UNL     1     -32.375  38.754 -48.332  1.00  0.00    -0.051 Br
HETATM   26  C   UNL     1     -33.721  38.709 -50.842  1.00  0.00     0.020 A 
HETATM   27  C   UNL     1     -33.909  39.055 -52.181  1.00  0.00     0.014 A 
ENDBRANCH   7  21
TORSDOF 5
ENDMDL
MODEL 8
REMARK VINA RESULT:      -7.3      3.599      4.843
REMARK  5 active torsions:
REMARK  status: ('A' for Active; 'I' for Inactive)
REMARK    1  A    between atoms: C_6  and  N_7 
REMARK       I    between atoms: N_7  and  C_8 
REMARK    2  A    between atoms: C_8  and  C_9 
REMARK    3  A    between atoms: C_9  and  O_10 
REMARK    4  A    between atoms: O_10  and  C_11 
REMARK    5  A    between atoms: C_19  and  C_20 
ROOT
HETATM    1  C   UNL     1     -39.447  54.661 -49.327  1.00  0.00     0.073 C 
HETATM    2  C   UNL     1     -40.675  55.068 -50.054  1.00  0.00     0.065 A 
HETATM    3  N   UNL     1     -41.485  55.998 -49.532  1.00  0.00    -0.177 NA
HETATM    4  N   UNL     1     -42.485  56.094 -50.423  1.00  0.00    -0.262 N 
HETATM    5  H   UNL     1     -43.220  56.773 -50.245  1.00  0.00     0.191 HD
HETATM    6  C   UNL     1     -42.347  55.275 -51.512  1.00  0.00     0.137 A 
HETATM    7  C   UNL     1     -41.168  54.583 -51.296  1.00  0.00     0.046 A 
ENDROOT
BRANCH   6   8
HETATM    8  N   UNL     1     -43.188  55.242 -52.606  1.00  0.00    -0.309 N 
HETATM    9  C   UNL     1     -43.686  56.288 -53.336  1.00  0.00     0.247 C 
HETATM   10  O   UNL     1     -44.184  56.055 -54.441  1.00  0.00    -0.271 OA
HETATM   11  H   UNL     1     -43.463  54.331 -52.956  1.00  0.00     0.170 HD
BRANCH   9  12
HETATM   12  C   UNL     1     -43.797  57.675 -52.702  1.00  0.00     0.278 C 
BRANCH  12  13
HETATM   13  O   UNL     1     -42.842  58.611 -53.172  1.00  0.00    -0.342 OA
BRANCH  13  14
HETATM   14  C   UNL     1     -41.876  58.981 -52.267  1.00  0.00     0.069 A 
HETATM   15  C   UNL     1     -40.572  58.610 -52.614  1.00  0.00     0.040 A 
HETATM   16  C   UNL     1     -39.502  58.913 -51.769  1.00  0.00     0.045 A 
HETATM   17  C   UNL     1     -39.738  59.592 -50.582  1.00  0.00     0.116 A 
HETATM   18  F   UNL     1     -38.714  59.886 -49.770  1.00  0.00    -0.206 F 
HETATM   19  C   UNL     1     -41.024  59.972 -50.225  1.00  0.00     0.045 A 
HETATM   20  C   UNL     1     -42.097  59.668 -51.068  1.00  0.00     0.040 A 
ENDBRANCH  13  14
ENDBRANCH  12  13
ENDBRANCH   9  12
ENDBRANCH   6   8
BRANCH   7  21
HETATM   21  C   UNL     1     -40.708  53.481 -52.116  1.00  0.00    -0.020 A 
HETATM   22  C   UNL     1     -40.815  53.519 -53.511  1.00  0.00     0.014 A 
HETATM   23  C   UNL     1     -40.422  52.413 -54.271  1.00  0.00     0.020 A 
HETATM   24  C   UNL     1     -39.918  51.277 -53.638  1.00  0.00     0.011 A 
HETATM   25 BR   UNL     1     -39.408  49.774 -54.666  1.00  0.00    -0.051 Br
HETATM   26  C   UNL     1     -39.794  51.237 -52.251  1.00  0.00     0.020 A 
HETATM   27  C   UNL     1     -40.189  52.339 -51.492  1.00  0.00     0.014 A 
ENDBRANCH   7  21
TORSDOF 5
ENDMDL
MODEL 9
REMARK VINA RESULT:      -7.2      3.217      4.973
REMARK  5 active torsions:
REMARK  status: ('A' for Active; 'I' for Inactive)
REMARK    1  A    between atoms: C_6  and  N_7 
REMARK       I    between atoms: N_7  and  C_8 
REMARK    2  A    between atoms: C_8  and  C_9 
REMARK    3  A    between atoms: C_9  and  O_10 
REMARK    4  A    between atoms: O_10  and  C_11 
REMARK    5  A    between atoms: C_19  and  C_20 
ROOT
HETATM    1  C   UNL     1     -42.880  60.182 -51.180  1.00  0.00     0.073 C 
HETATM    2  C   UNL     1     -43.512  59.230 -52.126  1.00  0.00     0.065 A 
HETATM    3  N   UNL     1     -44.340  59.681 -53.077  1.00  0.00    -0.177 NA
HETATM    4  N   UNL     1     -44.737  58.569 -53.716  1.00  0.00    -0.262 N 
HETATM    5  H   UNL     1     -45.363  58.671 -54.509  1.00  0.00     0.191 HD
HETATM    6  C   UNL     1     -44.185  57.414 -53.227  1.00  0.00     0.137 A 
HETATM    7  C   UNL     1     -43.378  57.816 -52.178  1.00  0.00     0.046 A 
ENDROOT
BRANCH   6   8
HETATM    8  N   UNL     1     -44.363  56.151 -53.756  1.00  0.00    -0.309 N 
HETATM    9  C   UNL     1     -43.448  55.349 -54.385  1.00  0.00     0.247 C 
HETATM   10  O   UNL     1     -43.713  54.152 -54.530  1.00  0.00    -0.271 OA
HETATM   11  H   UNL     1     -45.276  55.724 -53.646  1.00  0.00     0.170 HD
BRANCH   9  12
HETATM   12  C   UNL     1     -42.227  55.971 -55.061  1.00  0.00     0.278 C 
BRANCH  12  13
HETATM   13  O   UNL     1     -41.015  55.808 -54.344  1.00  0.00    -0.342 OA
BRANCH  13  14
HETATM   14  C   UNL     1     -40.638  54.509 -54.101  1.00  0.00     0.069 A 
HETATM   15  C   UNL     1     -40.635  54.140 -52.751  1.00  0.00     0.040 A 
HETATM   16  C   UNL     1     -40.256  52.851 -52.371  1.00  0.00     0.045 A 
HETATM   17  C   UNL     1     -39.885  51.931 -53.343  1.00  0.00     0.116 A 
HETATM   18  F   UNL     1     -39.522  50.694 -52.982  1.00  0.00    -0.206 F 
HETATM   19  C   UNL     1     -39.887  52.280 -54.686  1.00  0.00     0.045 A 
HETATM   20  C   UNL     1     -40.264  53.570 -55.069  1.00  0.00     0.040 A 
ENDBRANCH  13  14
ENDBRANCH  12  13
ENDBRANCH   9  12
ENDBRANCH   6   8
BRANCH   7  21
HETATM   21  C   UNL     1     -42.723  56.907 -51.259  1.00  0.00    -0.020 A 
HETATM   22  C   UNL     1     -41.401  57.114 -50.849  1.00  0.00     0.014 A 
HETATM   23  C   UNL     1     -40.776  56.184 -50.013  1.00  0.00     0.020 A 
HETATM   24  C   UNL     1     -41.473  55.056 -49.583  1.00  0.00     0.011 A 
HETATM   25 BR   UNL     1     -40.619  53.788 -48.470  1.00  0.00    -0.051 Br
HETATM   26  C   UNL     1     -42.794  54.849 -49.973  1.00  0.00     0.020 A 
HETATM   27  C   UNL     1     -43.419  55.775 -50.811  1.00  0.00     0.014 A 
ENDBRANCH   7  21
TORSDOF 5
ENDMDL
MODEL 10
REMARK VINA RESULT:      -7.2      3.466      4.711
REMARK  5 active torsions:
REMARK  status: ('A' for Active; 'I' for Inactive)
REMARK    1  A    between atoms: C_6  and  N_7 
REMARK       I    between atoms: N_7  and  C_8 
REMARK    2  A    between atoms: C_8  and  C_9 
REMARK    3  A    between atoms: C_9  and  O_10 
REMARK    4  A    between atoms: O_10  and  C_11 
REMARK    5  A    between atoms: C_19  and  C_20 
ROOT
HETATM    1  C   UNL     1     -39.940  54.122 -48.810  1.00  0.00     0.073 C 
HETATM    2  C   UNL     1     -40.701  54.980 -49.752  1.00  0.00     0.065 A 
HETATM    3  N   UNL     1     -41.309  56.087 -49.307  1.00  0.00    -0.177 NA
HETATM    4  N   UNL     1     -41.909  56.589 -50.399  1.00  0.00    -0.262 N 
HETATM    5  H   UNL     1     -42.420  57.461 -50.304  1.00  0.00     0.191 HD
HETATM    6  C   UNL     1     -41.701  55.859 -51.539  1.00  0.00     0.137 A 
HETATM    7  C   UNL     1     -40.913  54.791 -51.145  1.00  0.00     0.046 A 
ENDROOT
BRANCH   6   8
HETATM    8  N   UNL     1     -42.135  56.201 -52.803  1.00  0.00    -0.309 N 
HETATM    9  C   UNL     1     -41.504  56.965 -53.748  1.00  0.00     0.247 C 
HETATM   10  O   UNL     1     -41.913  56.924 -54.912  1.00  0.00    -0.271 OA
HETATM   11  H   UNL     1     -43.023  55.820 -53.111  1.00  0.00     0.170 HD
BRANCH   9  12
HETATM   12  C   UNL     1     -40.453  57.990 -53.322  1.00  0.00     0.278 C 
BRANCH  12  13
HETATM   13  O   UNL     1     -40.811  59.337 -53.580  1.00  0.00    -0.342 OA
BRANCH  13  14
HETATM   14  C   UNL     1     -41.598  59.936 -52.626  1.00  0.00     0.069 A 
HETATM   15  C   UNL     1     -41.141  59.793 -51.312  1.00  0.00     0.040 A 
HETATM   16  C   UNL     1     -41.861  60.342 -50.247  1.00  0.00     0.045 A 
HETATM   17  C   UNL     1     -43.034  61.039 -50.502  1.00  0.00     0.116 A 
HETATM   18  F   UNL     1     -43.726  61.569 -49.485  1.00  0.00    -0.206 F 
HETATM   19  C   UNL     1     -43.500  61.195 -51.801  1.00  0.00     0.045 A 
HETATM   20  C   UNL     1     -42.782  60.644 -52.866  1.00  0.00     0.040 A 
ENDBRANCH  13  14
ENDBRANCH  12  13
ENDBRANCH   9  12
ENDBRANCH   6   8
BRANCH   7  21
HETATM   21  C   UNL     1     -40.582  53.666 -51.995  1.00  0.00    -0.020 A 
HETATM   22  C   UNL     1     -41.091  53.562 -53.295  1.00  0.00     0.014 A 
HETATM   23  C   UNL     1     -40.806  52.432 -54.067  1.00  0.00     0.020 A 
HETATM   24  C   UNL     1     -40.010  51.414 -53.543  1.00  0.00     0.011 A 
HETATM   25 BR   UNL     1     -39.644  49.876 -54.581  1.00  0.00    -0.051 Br
HETATM   26  C   UNL     1     -39.487  51.516 -52.257  1.00  0.00     0.020 A 
HETATM   27  C   UNL     1     -39.773  52.642 -51.483  1.00  0.00     0.014 A 
ENDBRANCH   7  21
TORSDOF 5
ENDMDL
