MODEL 1
REMARK VINA RESULT:      -8.6      0.000      0.000
REMARK  6 active torsions:
REMARK  status: ('A' for Active; 'I' for Inactive)
REMARK    1  A    between atoms: O_2  and  C_3 
REMARK    2  A    between atoms: C_6  and  C_7 
REMARK    3  A    between atoms: C_12  and  C_13 
REMARK       I    between atoms: C_13  and  N_14 
REMARK    4  A    between atoms: N_14  and  C_15 
REMARK    5  A    between atoms: C_15  and  C_16 
REMARK    6  A    between atoms: C_24  and  C_25 
ROOT
HETATM    1  C   UNL     1     -43.574  59.949 -51.343  1.00  0.00     0.118 C 
HETATM    2  N   UNL     1     -42.357  59.264 -50.913  1.00  0.00    -0.366 N 
HETATM    3  C   UNL     1     -42.270  57.923 -50.828  1.00  0.00     0.123 A 
HETATM    4  N   UNL     1     -43.281  57.116 -51.268  1.00  0.00    -0.240 N 
HETATM    5  N   UNL     1     -43.095  55.810 -51.012  1.00  0.00    -0.165 NA
HETATM    6  C   UNL     1     -41.865  55.775 -50.445  1.00  0.00     0.148 A 
HETATM    7  C   UNL     1     -41.312  57.082 -50.330  1.00  0.00     0.088 A 
HETATM    8  C   UNL     1     -44.506  57.625 -51.852  1.00  0.00     0.221 C 
HETATM    9  C   UNL     1     -44.800  59.015 -51.266  1.00  0.00     0.066 C 
HETATM   10  H   UNL     1     -41.588  59.867 -50.622  1.00  0.00     0.161 HD
ENDROOT
BRANCH   6  11
HETATM   11  C   UNL     1     -41.238  54.522 -50.005  1.00  0.00     0.272 C 
HETATM   12  N   UNL     1     -40.457  53.937 -50.971  1.00  0.00    -0.351 N 
HETATM   13  H   UNL     1     -40.450  54.392 -51.879  1.00  0.00     0.163 HD
HETATM   14  O   UNL     1     -41.404  54.055 -48.882  1.00  0.00    -0.266 OA
BRANCH  12  15
HETATM   15  C   UNL     1     -39.765  52.691 -50.772  1.00  0.00     0.161 C 
BRANCH  15  16
HETATM   16  C   UNL     1     -39.875  51.785 -51.972  1.00  0.00    -0.041 A 
HETATM   17  C   UNL     1     -40.259  52.288 -53.226  1.00  0.00     0.009 A 
HETATM   18  C   UNL     1     -40.322  51.451 -54.340  1.00  0.00     0.001 A 
HETATM   19  C   UNL     1     -39.983  50.105 -54.220  1.00  0.00     0.000 A 
HETATM   20  C   UNL     1     -39.581  49.596 -52.986  1.00  0.00     0.001 A 
HETATM   21  C   UNL     1     -39.524  50.432 -51.869  1.00  0.00     0.009 A 
ENDBRANCH  15  16
ENDBRANCH  12  15
ENDBRANCH   6  11
BRANCH   8  22
HETATM   22  C   UNL     1     -44.396  57.638 -53.359  1.00  0.00     0.409 C 
HETATM   23  F   UNL     1     -45.028  58.695 -53.915  1.00  0.00    -0.169 F 
HETATM   24  F   UNL     1     -43.089  57.739 -53.721  1.00  0.00    -0.169 F 
HETATM   25  F   UNL     1     -44.869  56.519 -53.945  1.00  0.00    -0.169 F 
ENDBRANCH   8  22
BRANCH   1  26
HETATM   26  C   UNL     1     -43.780  61.180 -50.477  1.00  0.00    -0.035 A 
HETATM   27  C   UNL     1     -44.676  61.153 -49.399  1.00  0.00     0.012 A 
HETATM   28  C   UNL     1     -44.862  62.284 -48.593  1.00  0.00     0.037 A 
HETATM   29  C   UNL     1     -44.151  63.456 -48.851  1.00  0.00     0.068 A 
HETATM   30  C   UNL     1     -43.266  63.493 -49.927  1.00  0.00     0.037 A 
HETATM   31  C   UNL     1     -43.078  62.369 -50.732  1.00  0.00     0.012 A 
BRANCH  29  32
HETATM   32  O   UNL     1     -44.235  64.623 -48.143  1.00  0.00    -0.356 OA
HETATM   33  C   UNL     1     -44.725  64.534 -46.812  1.00  0.00     0.210 C 
ENDBRANCH  29  32
ENDBRANCH   1  26
TORSDOF 6
ENDMDL
MODEL 2
REMARK VINA RESULT:      -8.6      2.781      3.490
REMARK  6 active torsions:
REMARK  status: ('A' for Active; 'I' for Inactive)
REMARK    1  A    between atoms: O_2  and  C_3 
REMARK    2  A    between atoms: C_6  and  C_7 
REMARK    3  A    between atoms: C_12  and  C_13 
REMARK       I    between atoms: C_13  and  N_14 
REMARK    4  A    between atoms: N_14  and  C_15 
REMARK    5  A    between atoms: C_15  and  C_16 
REMARK    6  A    between atoms: C_24  and  C_25 
ROOT
HETATM    1  C   UNL     1     -43.344  59.926 -50.831  1.00  0.00     0.118 C 
HETATM    2  N   UNL     1     -43.752  58.538 -51.034  1.00  0.00    -0.366 N 
HETATM    3  C   UNL     1     -43.060  57.685 -51.814  1.00  0.00     0.123 A 
HETATM    4  N   UNL     1     -41.857  58.036 -52.358  1.00  0.00    -0.240 N 
HETATM    5  N   UNL     1     -41.346  57.123 -53.201  1.00  0.00    -0.165 NA
HETATM    6  C   UNL     1     -42.235  56.103 -53.133  1.00  0.00     0.148 A 
HETATM    7  C   UNL     1     -43.314  56.416 -52.258  1.00  0.00     0.088 A 
HETATM    8  C   UNL     1     -41.236  59.329 -52.146  1.00  0.00     0.221 C 
HETATM    9  C   UNL     1     -42.335  60.378 -51.907  1.00  0.00     0.066 C 
HETATM   10  H   UNL     1     -44.630  58.264 -50.595  1.00  0.00     0.161 HD
ENDROOT
BRANCH   6  11
HETATM   11  C   UNL     1     -42.068  54.863 -53.902  1.00  0.00     0.272 C 
HETATM   12  N   UNL     1     -40.763  54.442 -53.977  1.00  0.00    -0.351 N 
HETATM   13  H   UNL     1     -40.069  55.054 -53.557  1.00  0.00     0.163 HD
HETATM   14  O   UNL     1     -43.009  54.270 -54.420  1.00  0.00    -0.266 OA
BRANCH  12  15
HETATM   15  C   UNL     1     -40.358  53.266 -54.699  1.00  0.00     0.161 C 
BRANCH  15  16
HETATM   16  C   UNL     1     -40.114  52.095 -53.780  1.00  0.00    -0.041 A 
HETATM   17  C   UNL     1     -39.988  50.792 -54.286  1.00  0.00     0.009 A 
HETATM   18  C   UNL     1     -39.723  49.719 -53.434  1.00  0.00     0.001 A 
HETATM   19  C   UNL     1     -39.562  49.939 -52.068  1.00  0.00     0.000 A 
HETATM   20  C   UNL     1     -39.665  51.230 -51.554  1.00  0.00     0.001 A 
HETATM   21  C   UNL     1     -39.936  52.304 -52.405  1.00  0.00     0.009 A 
ENDBRANCH  15  16
ENDBRANCH  12  15
ENDBRANCH   6  11
BRANCH   8  22
HETATM   22  C   UNL     1     -40.248  59.249 -51.006  1.00  0.00     0.409 C 
HETATM   23  F   UNL     1     -40.434  58.156 -50.234  1.00  0.00    -0.169 F 
HETATM   24  F   UNL     1     -38.985  59.157 -51.502  1.00  0.00    -0.169 F 
HETATM   25  F   UNL     1     -40.264  60.331 -50.200  1.00  0.00    -0.169 F 
ENDBRANCH   8  22
BRANCH   1  26
HETATM   26  C   UNL     1     -44.579  60.810 -50.848  1.00  0.00    -0.035 A 
HETATM   27  C   UNL     1     -45.549  60.664 -51.849  1.00  0.00     0.012 A 
HETATM   28  C   UNL     1     -46.694  61.472 -51.862  1.00  0.00     0.037 A 
HETATM   29  C   UNL     1     -46.887  62.435 -50.872  1.00  0.00     0.068 A 
HETATM   30  C   UNL     1     -45.922  62.593 -49.878  1.00  0.00     0.037 A 
HETATM   31  C   UNL     1     -44.781  61.790 -49.862  1.00  0.00     0.012 A 
BRANCH  29  32
HETATM   32  O   UNL     1     -47.955  63.282 -50.766  1.00  0.00    -0.356 OA
HETATM   33  C   UNL     1     -48.109  63.973 -49.533  1.00  0.00     0.210 C 
ENDBRANCH  29  32
ENDBRANCH   1  26
TORSDOF 6
ENDMDL
MODEL 3
REMARK VINA RESULT:      -8.3      2.235      9.430
REMARK  6 active torsions:
REMARK  status: ('A' for Active; 'I' for Inactive)
REMARK    1  A    between atoms: O_2  and  C_3 
REMARK    2  A    between atoms: C_6  and  C_7 
REMARK    3  A    between atoms: C_12  and  C_13 
REMARK       I    between atoms: C_13  and  N_14 
REMARK    4  A    between atoms: N_14  and  C_15 
REMARK    5  A    between atoms: C_15  and  C_16 
REMARK    6  A    between atoms: C_24  and  C_25 
ROOT
HETATM    1  C   UNL     1     -42.294  55.233 -53.754  1.00  0.00     0.118 C 
HETATM    2  N   UNL     1     -43.391  55.472 -52.819  1.00  0.00    -0.366 N 
HETATM    3  C   UNL     1     -43.826  56.709 -52.512  1.00  0.00     0.123 A 
HETATM    4  N   UNL     1     -43.351  57.812 -53.162  1.00  0.00    -0.240 N 
HETATM    5  N   UNL     1     -43.796  58.979 -52.667  1.00  0.00    -0.165 NA
HETATM    6  C   UNL     1     -44.661  58.596 -51.697  1.00  0.00     0.148 A 
HETATM    7  C   UNL     1     -44.717  57.178 -51.585  1.00  0.00     0.088 A 
HETATM    8  C   UNL     1     -42.357  57.745 -54.216  1.00  0.00     0.221 C 
HETATM    9  C   UNL     1     -41.465  56.514 -53.986  1.00  0.00     0.066 C 
HETATM   10  H   UNL     1     -43.773  54.644 -52.363  1.00  0.00     0.161 HD
ENDROOT
BRANCH   6  11
HETATM   11  C   UNL     1     -45.405  59.565 -50.881  1.00  0.00     0.272 C 
HETATM   12  N   UNL     1     -44.676  60.061 -49.829  1.00  0.00    -0.351 N 
HETATM   13  H   UNL     1     -43.748  59.666 -49.698  1.00  0.00     0.163 HD
HETATM   14  O   UNL     1     -46.562  59.890 -51.127  1.00  0.00    -0.266 OA
BRANCH  12  15
HETATM   15  C   UNL     1     -45.208  61.005 -48.882  1.00  0.00     0.161 C 
BRANCH  15  16
HETATM   16  C   UNL     1     -44.505  62.337 -48.957  1.00  0.00    -0.041 A 
HETATM   17  C   UNL     1     -44.662  63.296 -47.944  1.00  0.00     0.009 A 
HETATM   18  C   UNL     1     -43.979  64.511 -48.001  1.00  0.00     0.001 A 
HETATM   19  C   UNL     1     -43.116  64.776 -49.061  1.00  0.00     0.000 A 
HETATM   20  C   UNL     1     -42.935  63.825 -50.064  1.00  0.00     0.001 A 
HETATM   21  C   UNL     1     -43.623  62.611 -50.011  1.00  0.00     0.009 A 
ENDBRANCH  15  16
ENDBRANCH  12  15
ENDBRANCH   6  11
BRANCH   8  22
HETATM   22  C   UNL     1     -43.034  57.732 -55.567  1.00  0.00     0.409 C 
HETATM   23  F   UNL     1     -44.263  57.173 -55.525  1.00  0.00    -0.169 F 
HETATM   24  F   UNL     1     -43.207  59.008 -56.004  1.00  0.00    -0.169 F 
HETATM   25  F   UNL     1     -42.324  57.094 -56.521  1.00  0.00    -0.169 F 
ENDBRANCH   8  22
BRANCH   1  26
HETATM   26  C   UNL     1     -41.417  54.117 -53.212  1.00  0.00    -0.035 A 
HETATM   27  C   UNL     1     -41.246  53.950 -51.830  1.00  0.00     0.012 A 
HETATM   28  C   UNL     1     -40.446  52.916 -51.327  1.00  0.00     0.037 A 
HETATM   29  C   UNL     1     -39.807  52.032 -52.197  1.00  0.00     0.068 A 
HETATM   30  C   UNL     1     -39.964  52.199 -53.573  1.00  0.00     0.037 A 
HETATM   31  C   UNL     1     -40.761  53.227 -54.078  1.00  0.00     0.012 A 
BRANCH  29  32
HETATM   32  O   UNL     1     -39.006  50.984 -51.839  1.00  0.00    -0.356 OA
HETATM   33  C   UNL     1     -39.558  50.029 -50.943  1.00  0.00     0.210 C 
ENDBRANCH  29  32
ENDBRANCH   1  26
TORSDOF 6
ENDMDL
MODEL 4
REMARK VINA RESULT:      -8.2      5.648      9.987
REMARK  6 active torsions:
REMARK  status: ('A' for Active; 'I' for Inactive)
REMARK    1  A    between atoms: O_2  and  C_3 
REMARK    2  A    between atoms: C_6  and  C_7 
REMARK    3  A    between atoms: C_12  and  C_13 
REMARK       I    between atoms: C_13  and  N_14 
REMARK    4  A    between atoms: N_14  and  C_15 
REMARK    5  A    between atoms: C_15  and  C_16 
REMARK    6  A    between atoms: C_24  and  C_25 
ROOT
HETATM    1  C   UNL     1     -42.075  55.689 -53.586  1.00  0.00     0.118 C 
HETATM    2  N   UNL     1     -41.554  56.406 -54.747  1.00  0.00    -0.366 N 
HETATM    3  C   UNL     1     -42.349  57.082 -55.599  1.00  0.00     0.123 A 
HETATM    4  N   UNL     1     -43.682  57.246 -55.350  1.00  0.00    -0.240 N 
HETATM    5  N   UNL     1     -44.360  57.842 -56.345  1.00  0.00    -0.165 NA
HETATM    6  C   UNL     1     -43.393  58.142 -57.245  1.00  0.00     0.148 A 
HETATM    7  C   UNL     1     -42.116  57.694 -56.801  1.00  0.00     0.088 A 
HETATM    8  C   UNL     1     -44.340  56.717 -54.171  1.00  0.00     0.221 C 
HETATM    9  C   UNL     1     -43.596  55.455 -53.707  1.00  0.00     0.066 C 
HETATM   10  H   UNL     1     -40.552  56.316 -54.911  1.00  0.00     0.161 HD
ENDROOT
BRANCH   6  11
HETATM   11  C   UNL     1     -43.684  58.825 -58.512  1.00  0.00     0.272 C 
HETATM   12  N   UNL     1     -42.714  59.726 -58.879  1.00  0.00    -0.351 N 
HETATM   13  H   UNL     1     -41.954  59.862 -58.218  1.00  0.00     0.163 HD
HETATM   14  O   UNL     1     -44.696  58.604 -59.169  1.00  0.00    -0.266 OA
BRANCH  12  15
HETATM   15  C   UNL     1     -42.799  60.528 -60.070  1.00  0.00     0.161 C 
BRANCH  15  16
HETATM   16  C   UNL     1     -41.606  61.438 -60.225  1.00  0.00    -0.041 A 
HETATM   17  C   UNL     1     -41.241  61.946 -61.481  1.00  0.00     0.009 A 
HETATM   18  C   UNL     1     -40.159  62.817 -61.611  1.00  0.00     0.001 A 
HETATM   19  C   UNL     1     -39.441  63.208 -60.483  1.00  0.00     0.000 A 
HETATM   20  C   UNL     1     -39.804  62.728 -59.226  1.00  0.00     0.001 A 
HETATM   21  C   UNL     1     -40.883  61.850 -59.096  1.00  0.00     0.009 A 
ENDBRANCH  15  16
ENDBRANCH  12  15
ENDBRANCH   6  11
BRANCH   8  22
HETATM   22  C   UNL     1     -44.414  57.779 -53.099  1.00  0.00     0.409 C 
HETATM   23  F   UNL     1     -43.280  58.508 -53.012  1.00  0.00    -0.169 F 
HETATM   24  F   UNL     1     -45.413  58.655 -53.392  1.00  0.00    -0.169 F 
HETATM   25  F   UNL     1     -44.684  57.289 -51.871  1.00  0.00    -0.169 F 
ENDBRANCH   8  22
BRANCH   1  26
HETATM   26  C   UNL     1     -41.337  54.368 -53.449  1.00  0.00    -0.035 A 
HETATM   27  C   UNL     1     -40.880  53.931 -52.198  1.00  0.00     0.012 A 
HETATM   28  C   UNL     1     -40.207  52.709 -52.067  1.00  0.00     0.037 A 
HETATM   29  C   UNL     1     -39.985  51.905 -53.185  1.00  0.00     0.068 A 
HETATM   30  C   UNL     1     -40.429  52.337 -54.434  1.00  0.00     0.037 A 
HETATM   31  C   UNL     1     -41.100  53.553 -54.568  1.00  0.00     0.012 A 
BRANCH  29  32
HETATM   32  O   UNL     1     -39.349  50.694 -53.196  1.00  0.00    -0.356 OA
HETATM   33  C   UNL     1     -39.553  49.870 -54.336  1.00  0.00     0.210 C 
ENDBRANCH  29  32
ENDBRANCH   1  26
TORSDOF 6
ENDMDL
MODEL 5
REMARK VINA RESULT:      -8.1      4.916     10.005
REMARK  6 active torsions:
REMARK  status: ('A' for Active; 'I' for Inactive)
REMARK    1  A    between atoms: O_2  and  C_3 
REMARK    2  A    between atoms: C_6  and  C_7 
REMARK    3  A    between atoms: C_12  and  C_13 
REMARK       I    between atoms: C_13  and  N_14 
REMARK    4  A    between atoms: N_14  and  C_15 
REMARK    5  A    between atoms: C_15  and  C_16 
REMARK    6  A    between atoms: C_24  and  C_25 
ROOT
HETATM    1  C   UNL     1     -41.009  55.226 -53.707  1.00  0.00     0.118 C 
HETATM    2  N   UNL     1     -41.025  55.383 -55.160  1.00  0.00    -0.366 N 
HETATM    3  C   UNL     1     -41.979  56.083 -55.803  1.00  0.00     0.123 A 
HETATM    4  N   UNL     1     -42.918  56.801 -55.118  1.00  0.00    -0.240 N 
HETATM    5  N   UNL     1     -43.866  57.351 -55.895  1.00  0.00    -0.165 NA
HETATM    6  C   UNL     1     -43.467  57.028 -57.149  1.00  0.00     0.148 A 
HETATM    7  C   UNL     1     -42.277  56.248 -57.129  1.00  0.00     0.088 A 
HETATM    8  C   UNL     1     -42.965  56.868 -53.671  1.00  0.00     0.221 C 
HETATM    9  C   UNL     1     -42.380  55.571 -53.090  1.00  0.00     0.066 C 
HETATM   10  H   UNL     1     -40.299  54.879 -55.669  1.00  0.00     0.161 HD
ENDROOT
BRANCH   6  11
HETATM   11  C   UNL     1     -44.218  57.441 -58.342  1.00  0.00     0.272 C 
HETATM   12  N   UNL     1     -45.456  56.854 -58.436  1.00  0.00    -0.351 N 
HETATM   13  H   UNL     1     -45.683  56.169 -57.720  1.00  0.00     0.163 HD
HETATM   14  O   UNL     1     -43.772  58.234 -59.166  1.00  0.00    -0.266 OA
BRANCH  12  15
HETATM   15  C   UNL     1     -46.356  57.091 -59.532  1.00  0.00     0.161 C 
BRANCH  15  16
HETATM   16  C   UNL     1     -47.123  58.378 -59.365  1.00  0.00    -0.041 A 
HETATM   17  C   UNL     1     -47.577  59.100 -60.480  1.00  0.00     0.009 A 
HETATM   18  C   UNL     1     -48.320  60.270 -60.318  1.00  0.00     0.001 A 
HETATM   19  C   UNL     1     -48.634  60.722 -59.038  1.00  0.00     0.000 A 
HETATM   20  C   UNL     1     -48.208  60.005 -57.922  1.00  0.00     0.001 A 
HETATM   21  C   UNL     1     -47.459  58.838 -58.084  1.00  0.00     0.009 A 
ENDBRANCH  15  16
ENDBRANCH  12  15
ENDBRANCH   6  11
BRANCH   8  22
HETATM   22  C   UNL     1     -42.243  58.103 -53.185  1.00  0.00     0.409 C 
HETATM   23  F   UNL     1     -43.070  59.162 -53.035  1.00  0.00    -0.169 F 
HETATM   24  F   UNL     1     -41.701  57.864 -51.961  1.00  0.00    -0.169 F 
HETATM   25  F   UNL     1     -41.227  58.485 -53.986  1.00  0.00    -0.169 F 
ENDBRANCH   8  22
BRANCH   1  26
HETATM   26  C   UNL     1     -40.611  53.799 -53.369  1.00  0.00    -0.035 A 
HETATM   27  C   UNL     1     -40.576  52.812 -54.365  1.00  0.00     0.012 A 
HETATM   28  C   UNL     1     -40.200  51.497 -54.058  1.00  0.00     0.037 A 
HETATM   29  C   UNL     1     -39.852  51.151 -52.752  1.00  0.00     0.068 A 
HETATM   30  C   UNL     1     -39.894  52.125 -51.755  1.00  0.00     0.037 A 
HETATM   31  C   UNL     1     -40.267  53.436 -52.057  1.00  0.00     0.012 A 
BRANCH  29  32
HETATM   32  O   UNL     1     -39.465  49.913 -52.321  1.00  0.00    -0.356 OA
HETATM   33  C   UNL     1     -39.453  49.695 -50.917  1.00  0.00     0.210 C 
ENDBRANCH  29  32
ENDBRANCH   1  26
TORSDOF 6
ENDMDL
MODEL 6
REMARK VINA RESULT:      -8.1      4.770      9.487
REMARK  6 active torsions:
REMARK  status: ('A' for Active; 'I' for Inactive)
REMARK    1  A    between atoms: O_2  and  C_3 
REMARK    2  A    between atoms: C_6  and  C_7 
REMARK    3  A    between atoms: C_12  and  C_13 
REMARK       I    between atoms: C_13  and  N_14 
REMARK    4  A    between atoms: N_14  and  C_15 
REMARK    5  A    between atoms: C_15  and  C_16 
REMARK    6  A    between atoms: C_24  and  C_25 
ROOT
HETATM    1  C   UNL     1     -41.460  55.667 -52.922  1.00  0.00     0.118 C 
HETATM    2  N   UNL     1     -41.465  56.249 -54.262  1.00  0.00    -0.366 N 
HETATM    3  C   UNL     1     -42.482  57.003 -54.722  1.00  0.00     0.123 A 
HETATM    4  N   UNL     1     -43.514  57.377 -53.909  1.00  0.00    -0.240 N 
HETATM    5  N   UNL     1     -44.505  58.028 -54.540  1.00  0.00    -0.165 NA
HETATM    6  C   UNL     1     -44.045  58.141 -55.809  1.00  0.00     0.148 A 
HETATM    7  C   UNL     1     -42.770  57.523 -55.954  1.00  0.00     0.088 A 
HETATM    8  C   UNL     1     -43.600  57.002 -52.511  1.00  0.00     0.221 C 
HETATM    9  C   UNL     1     -42.876  55.661 -52.307  1.00  0.00     0.066 C 
HETATM   10  H   UNL     1     -40.674  56.002 -54.856  1.00  0.00     0.161 HD
ENDROOT
BRANCH   6  11
HETATM   11  C   UNL     1     -44.815  58.809 -56.868  1.00  0.00     0.272 C 
HETATM   12  N   UNL     1     -44.268  58.653 -58.118  1.00  0.00    -0.351 N 
HETATM   13  H   UNL     1     -43.381  58.159 -58.162  1.00  0.00     0.163 HD
HETATM   14  O   UNL     1     -45.843  59.439 -56.644  1.00  0.00    -0.266 OA
BRANCH  12  15
HETATM   15  C   UNL     1     -44.837  59.240 -59.301  1.00  0.00     0.161 C 
BRANCH  15  16
HETATM   16  C   UNL     1     -45.773  58.292 -60.008  1.00  0.00    -0.041 A 
HETATM   17  C   UNL     1     -45.597  56.902 -59.921  1.00  0.00     0.009 A 
HETATM   18  C   UNL     1     -46.489  56.031 -60.546  1.00  0.00     0.001 A 
HETATM   19  C   UNL     1     -47.579  56.537 -61.251  1.00  0.00     0.000 A 
HETATM   20  C   UNL     1     -47.778  57.915 -61.329  1.00  0.00     0.001 A 
HETATM   21  C   UNL     1     -46.882  58.788 -60.709  1.00  0.00     0.009 A 
ENDBRANCH  15  16
ENDBRANCH  12  15
ENDBRANCH   6  11
BRANCH   8  22
HETATM   22  C   UNL     1     -43.041  58.105 -51.644  1.00  0.00     0.409 C 
HETATM   23  F   UNL     1     -42.304  58.993 -52.345  1.00  0.00    -0.169 F 
HETATM   24  F   UNL     1     -44.062  58.810 -51.086  1.00  0.00    -0.169 F 
HETATM   25  F   UNL     1     -42.283  57.657 -50.621  1.00  0.00    -0.169 F 
ENDBRANCH   8  22
BRANCH   1  26
HETATM   26  C   UNL     1     -40.902  54.256 -52.998  1.00  0.00    -0.035 A 
HETATM   27  C   UNL     1     -40.458  53.600 -51.842  1.00  0.00     0.012 A 
HETATM   28  C   UNL     1     -39.951  52.295 -51.908  1.00  0.00     0.037 A 
HETATM   29  C   UNL     1     -39.884  51.627 -53.130  1.00  0.00     0.068 A 
HETATM   30  C   UNL     1     -40.314  52.277 -54.286  1.00  0.00     0.037 A 
HETATM   31  C   UNL     1     -40.820  53.577 -54.224  1.00  0.00     0.012 A 
BRANCH  29  32
HETATM   32  O   UNL     1     -39.417  50.358 -53.333  1.00  0.00    -0.356 OA
HETATM   33  C   UNL     1     -39.737  49.745 -54.575  1.00  0.00     0.210 C 
ENDBRANCH  29  32
ENDBRANCH   1  26
TORSDOF 6
ENDMDL
MODEL 7
REMARK VINA RESULT:      -8.1      2.293      9.378
REMARK  6 active torsions:
REMARK  status: ('A' for Active; 'I' for Inactive)
REMARK    1  A    between atoms: O_2  and  C_3 
REMARK    2  A    between atoms: C_6  and  C_7 
REMARK    3  A    between atoms: C_12  and  C_13 
REMARK       I    between atoms: C_13  and  N_14 
REMARK    4  A    between atoms: N_14  and  C_15 
REMARK    5  A    between atoms: C_15  and  C_16 
REMARK    6  A    between atoms: C_24  and  C_25 
ROOT
HETATM    1  C   UNL     1     -42.240  55.005 -53.617  1.00  0.00     0.118 C 
HETATM    2  N   UNL     1     -42.735  55.700 -52.430  1.00  0.00    -0.366 N 
HETATM    3  C   UNL     1     -42.798  57.043 -52.350  1.00  0.00     0.123 A 
HETATM    4  N   UNL     1     -42.525  57.834 -53.429  1.00  0.00    -0.240 N 
HETATM    5  N   UNL     1     -42.521  59.151 -53.162  1.00  0.00    -0.165 NA
HETATM    6  C   UNL     1     -42.884  59.204 -51.858  1.00  0.00     0.148 A 
HETATM    7  C   UNL     1     -43.083  57.901 -51.322  1.00  0.00     0.088 A 
HETATM    8  C   UNL     1     -42.152  57.305 -54.727  1.00  0.00     0.221 C 
HETATM    9  C   UNL     1     -41.439  55.957 -54.531  1.00  0.00     0.066 C 
HETATM   10  H   UNL     1     -42.977  55.107 -51.637  1.00  0.00     0.161 HD
ENDROOT
BRANCH   6  11
HETATM   11  C   UNL     1     -43.021  60.475 -51.133  1.00  0.00     0.272 C 
HETATM   12  N   UNL     1     -44.321  60.908 -51.036  1.00  0.00    -0.351 N 
HETATM   13  H   UNL     1     -45.018  60.348 -51.519  1.00  0.00     0.163 HD
HETATM   14  O   UNL     1     -42.062  61.079 -50.664  1.00  0.00    -0.266 OA
BRANCH  12  15
HETATM   15  C   UNL     1     -44.692  62.139 -50.390  1.00  0.00     0.161 C 
BRANCH  15  16
HETATM   16  C   UNL     1     -44.977  61.943 -48.922  1.00  0.00    -0.041 A 
HETATM   17  C   UNL     1     -44.813  62.994 -48.006  1.00  0.00     0.009 A 
HETATM   18  C   UNL     1     -45.115  62.816 -46.656  1.00  0.00     0.001 A 
HETATM   19  C   UNL     1     -45.605  61.592 -46.208  1.00  0.00     0.000 A 
HETATM   20  C   UNL     1     -45.792  60.545 -47.109  1.00  0.00     0.001 A 
HETATM   21  C   UNL     1     -45.483  60.720 -48.459  1.00  0.00     0.009 A 
ENDBRANCH  15  16
ENDBRANCH  12  15
ENDBRANCH   6  11
BRANCH   8  22
HETATM   22  C   UNL     1     -43.369  57.199 -55.614  1.00  0.00     0.409 C 
HETATM   23  F   UNL     1     -43.565  58.308 -56.360  1.00  0.00    -0.169 F 
HETATM   24  F   UNL     1     -43.209  56.171 -56.490  1.00  0.00    -0.169 F 
HETATM   25  F   UNL     1     -44.510  56.951 -54.938  1.00  0.00    -0.169 F 
ENDBRANCH   8  22
BRANCH   1  26
HETATM   26  C   UNL     1     -41.380  53.832 -53.179  1.00  0.00    -0.035 A 
HETATM   27  C   UNL     1     -40.942  52.880 -54.111  1.00  0.00     0.012 A 
HETATM   28  C   UNL     1     -40.141  51.802 -53.711  1.00  0.00     0.037 A 
HETATM   29  C   UNL     1     -39.765  51.661 -52.376  1.00  0.00     0.068 A 
HETATM   30  C   UNL     1     -40.206  52.598 -51.442  1.00  0.00     0.037 A 
HETATM   31  C   UNL     1     -41.003  53.674 -51.836  1.00  0.00     0.012 A 
BRANCH  29  32
HETATM   32  O   UNL     1     -38.988  50.663 -51.856  1.00  0.00    -0.356 OA
HETATM   33  C   UNL     1     -39.582  49.834 -50.866  1.00  0.00     0.210 C 
ENDBRANCH  29  32
ENDBRANCH   1  26
TORSDOF 6
ENDMDL
MODEL 8
REMARK VINA RESULT:      -7.9      2.846      3.467
REMARK  6 active torsions:
REMARK  status: ('A' for Active; 'I' for Inactive)
REMARK    1  A    between atoms: O_2  and  C_3 
REMARK    2  A    between atoms: C_6  and  C_7 
REMARK    3  A    between atoms: C_12  and  C_13 
REMARK       I    between atoms: C_13  and  N_14 
REMARK    4  A    between atoms: N_14  and  C_15 
REMARK    5  A    between atoms: C_15  and  C_16 
REMARK    6  A    between atoms: C_24  and  C_25 
ROOT
HETATM    1  C   UNL     1     -44.406  59.331 -54.143  1.00  0.00     0.118 C 
HETATM    2  N   UNL     1     -43.407  59.157 -53.091  1.00  0.00    -0.366 N 
HETATM    3  C   UNL     1     -42.874  57.958 -52.788  1.00  0.00     0.123 A 
HETATM    4  N   UNL     1     -43.142  56.850 -53.540  1.00  0.00    -0.240 N 
HETATM    5  N   UNL     1     -42.630  55.710 -53.046  1.00  0.00    -0.165 NA
HETATM    6  C   UNL     1     -41.934  56.127 -51.961  1.00  0.00     0.148 A 
HETATM    7  C   UNL     1     -42.052  57.534 -51.779  1.00  0.00     0.088 A 
HETATM    8  C   UNL     1     -44.006  56.871 -54.705  1.00  0.00     0.221 C 
HETATM    9  C   UNL     1     -45.052  57.984 -54.533  1.00  0.00     0.066 C 
HETATM   10  H   UNL     1     -43.177  59.993 -52.555  1.00  0.00     0.161 HD
ENDROOT
BRANCH   6  11
HETATM   11  C   UNL     1     -41.187  55.197 -51.103  1.00  0.00     0.272 C 
HETATM   12  N   UNL     1     -40.609  54.162 -51.797  1.00  0.00    -0.351 N 
HETATM   13  H   UNL     1     -40.810  54.122 -52.793  1.00  0.00     0.163 HD
HETATM   14  O   UNL     1     -41.096  55.342 -49.888  1.00  0.00    -0.266 OA
BRANCH  12  15
HETATM   15  C   UNL     1     -39.850  53.119 -51.161  1.00  0.00     0.161 C 
BRANCH  15  16
HETATM   16  C   UNL     1     -39.759  51.883 -52.021  1.00  0.00    -0.041 A 
HETATM   17  C   UNL     1     -39.588  50.613 -51.447  1.00  0.00     0.009 A 
HETATM   18  C   UNL     1     -39.542  49.471 -52.246  1.00  0.00     0.001 A 
HETATM   19  C   UNL     1     -39.687  49.581 -53.627  1.00  0.00     0.000 A 
HETATM   20  C   UNL     1     -39.877  50.833 -54.209  1.00  0.00     0.001 A 
HETATM   21  C   UNL     1     -39.916  51.978 -53.411  1.00  0.00     0.009 A 
ENDBRANCH  15  16
ENDBRANCH  12  15
ENDBRANCH   6  11
BRANCH   8  22
HETATM   22  C   UNL     1     -43.180  57.034 -55.959  1.00  0.00     0.409 C 
HETATM   23  F   UNL     1     -42.005  57.660 -55.729  1.00  0.00    -0.169 F 
HETATM   24  F   UNL     1     -42.871  55.811 -56.466  1.00  0.00    -0.169 F 
HETATM   25  F   UNL     1     -43.817  57.704 -56.942  1.00  0.00    -0.169 F 
ENDBRANCH   8  22
BRANCH   1  26
HETATM   26  C   UNL     1     -45.461  60.314 -53.665  1.00  0.00    -0.035 A 
HETATM   27  C   UNL     1     -45.938  61.321 -54.515  1.00  0.00     0.012 A 
HETATM   28  C   UNL     1     -46.918  62.223 -54.080  1.00  0.00     0.037 A 
HETATM   29  C   UNL     1     -47.437  62.129 -52.789  1.00  0.00     0.068 A 
HETATM   30  C   UNL     1     -46.961  61.135 -51.934  1.00  0.00     0.037 A 
HETATM   31  C   UNL     1     -45.986  60.235 -52.364  1.00  0.00     0.012 A 
BRANCH  29  32
HETATM   32  O   UNL     1     -48.394  62.938 -52.242  1.00  0.00    -0.356 OA
HETATM   33  C   UNL     1     -49.678  62.919 -52.853  1.00  0.00     0.210 C 
ENDBRANCH  29  32
ENDBRANCH   1  26
TORSDOF 6
ENDMDL
MODEL 9
REMARK VINA RESULT:      -7.9      4.922      9.403
REMARK  6 active torsions:
REMARK  status: ('A' for Active; 'I' for Inactive)
REMARK    1  A    between atoms: O_2  and  C_3 
REMARK    2  A    between atoms: C_6  and  C_7 
REMARK    3  A    between atoms: C_12  and  C_13 
REMARK       I    between atoms: C_13  and  N_14 
REMARK    4  A    between atoms: N_14  and  C_15 
REMARK    5  A    between atoms: C_15  and  C_16 
REMARK    6  A    between atoms: C_24  and  C_25 
ROOT
HETATM    1  C   UNL     1     -41.437  55.559 -52.718  1.00  0.00     0.118 C 
HETATM    2  N   UNL     1     -41.377  55.905 -54.136  1.00  0.00    -0.366 N 
HETATM    3  C   UNL     1     -42.375  56.554 -54.767  1.00  0.00     0.123 A 
HETATM    4  N   UNL     1     -43.450  57.043 -54.081  1.00  0.00    -0.240 N 
HETATM    5  N   UNL     1     -44.412  57.563 -54.862  1.00  0.00    -0.165 NA
HETATM    6  C   UNL     1     -43.888  57.466 -56.108  1.00  0.00     0.148 A 
HETATM    7  C   UNL     1     -42.603  56.853 -56.083  1.00  0.00     0.088 A 
HETATM    8  C   UNL     1     -43.604  56.910 -52.646  1.00  0.00     0.221 C 
HETATM    9  C   UNL     1     -42.882  55.635 -52.181  1.00  0.00     0.066 C 
HETATM   10  H   UNL     1     -40.555  55.573 -54.639  1.00  0.00     0.161 HD
ENDROOT
BRANCH   6  11
HETATM   11  C   UNL     1     -44.607  57.933 -57.300  1.00  0.00     0.272 C 
HETATM   12  N   UNL     1     -44.215  57.300 -58.454  1.00  0.00    -0.351 N 
HETATM   13  H   UNL     1     -43.446  56.641 -58.365  1.00  0.00     0.163 HD
HETATM   14  O   UNL     1     -45.472  58.803 -57.257  1.00  0.00    -0.266 OA
BRANCH  12  15
HETATM   15  C   UNL     1     -44.765  57.612 -59.746  1.00  0.00     0.161 C 
BRANCH  15  16
HETATM   16  C   UNL     1     -43.979  58.689 -60.450  1.00  0.00    -0.041 A 
HETATM   17  C   UNL     1     -44.621  59.802 -61.015  1.00  0.00     0.009 A 
HETATM   18  C   UNL     1     -43.884  60.813 -61.631  1.00  0.00     0.001 A 
HETATM   19  C   UNL     1     -42.493  60.735 -61.673  1.00  0.00     0.000 A 
HETATM   20  C   UNL     1     -41.841  59.646 -61.099  1.00  0.00     0.001 A 
HETATM   21  C   UNL     1     -42.578  58.630 -60.488  1.00  0.00     0.009 A 
ENDBRANCH  15  16
ENDBRANCH  12  15
ENDBRANCH   6  11
BRANCH   8  22
HETATM   22  C   UNL     1     -43.098  58.153 -51.952  1.00  0.00     0.409 C 
HETATM   23  F   UNL     1     -42.374  57.871 -50.846  1.00  0.00    -0.169 F 
HETATM   24  F   UNL     1     -42.272  58.839 -52.787  1.00  0.00    -0.169 F 
HETATM   25  F   UNL     1     -44.078  59.009 -51.596  1.00  0.00    -0.169 F 
ENDBRANCH   8  22
BRANCH   1  26
HETATM   26  C   UNL     1     -40.865  54.164 -52.526  1.00  0.00    -0.035 A 
HETATM   27  C   UNL     1     -40.588  53.676 -51.241  1.00  0.00     0.012 A 
HETATM   28  C   UNL     1     -40.069  52.387 -51.060  1.00  0.00     0.037 A 
HETATM   29  C   UNL     1     -39.824  51.566 -52.161  1.00  0.00     0.068 A 
HETATM   30  C   UNL     1     -40.088  52.048 -53.442  1.00  0.00     0.037 A 
HETATM   31  C   UNL     1     -40.605  53.332 -53.626  1.00  0.00     0.012 A 
BRANCH  29  32
HETATM   32  O   UNL     1     -39.326  50.293 -52.124  1.00  0.00    -0.356 OA
HETATM   33  C   UNL     1     -39.629  49.517 -50.973  1.00  0.00     0.210 C 
ENDBRANCH  29  32
ENDBRANCH   1  26
TORSDOF 6
ENDMDL
MODEL 10
REMARK VINA RESULT:      -7.9     17.804     19.433
REMARK  6 active torsions:
REMARK  status: ('A' for Active; 'I' for Inactive)
REMARK    1  A    between atoms: O_2  and  C_3 
REMARK    2  A    between atoms: C_6  and  C_7 
REMARK    3  A    between atoms: C_12  and  C_13 
REMARK       I    between atoms: C_13  and  N_14 
REMARK    4  A    between atoms: N_14  and  C_15 
REMARK    5  A    between atoms: C_15  and  C_16 
REMARK    6  A    between atoms: C_24  and  C_25 
ROOT
HETATM    1  C   UNL     1     -35.683  41.564 -53.573  1.00  0.00     0.118 C 
HETATM    2  N   UNL     1     -36.943  41.321 -52.875  1.00  0.00    -0.366 N 
HETATM    3  C   UNL     1     -37.063  40.412 -51.889  1.00  0.00     0.123 A 
HETATM    4  N   UNL     1     -35.975  39.753 -51.392  1.00  0.00    -0.240 N 
HETATM    5  N   UNL     1     -36.269  38.799 -50.494  1.00  0.00    -0.165 NA
HETATM    6  C   UNL     1     -37.612  38.906 -50.356  1.00  0.00     0.148 A 
HETATM    7  C   UNL     1     -38.141  39.919 -51.204  1.00  0.00     0.088 A 
HETATM    8  C   UNL     1     -34.625  39.974 -51.875  1.00  0.00     0.221 C 
HETATM    9  C   UNL     1     -34.685  40.408 -53.349  1.00  0.00     0.066 C 
HETATM   10  H   UNL     1     -37.749  41.842 -53.220  1.00  0.00     0.161 HD
ENDROOT
BRANCH   6  11
HETATM   11  C   UNL     1     -38.379  38.044 -49.446  1.00  0.00     0.272 C 
HETATM   12  N   UNL     1     -39.672  38.467 -49.257  1.00  0.00    -0.351 N 
HETATM   13  H   UNL     1     -39.928  39.342 -49.706  1.00  0.00     0.163 HD
HETATM   14  O   UNL     1     -37.900  37.047 -48.914  1.00  0.00    -0.266 OA
BRANCH  12  15
HETATM   15  C   UNL     1     -40.599  37.793 -48.388  1.00  0.00     0.161 C 
BRANCH  15  16
HETATM   16  C   UNL     1     -40.709  38.469 -47.044  1.00  0.00    -0.041 A 
HETATM   17  C   UNL     1     -41.438  39.658 -46.889  1.00  0.00     0.009 A 
HETATM   18  C   UNL     1     -41.567  40.256 -45.636  1.00  0.00     0.001 A 
HETATM   19  C   UNL     1     -40.984  39.663 -44.518  1.00  0.00     0.000 A 
HETATM   20  C   UNL     1     -40.274  38.472 -44.653  1.00  0.00     0.001 A 
HETATM   21  C   UNL     1     -40.139  37.876 -45.908  1.00  0.00     0.009 A 
ENDBRANCH  15  16
ENDBRANCH  12  15
ENDBRANCH   6  11
BRANCH   8  22
HETATM   22  C   UNL     1     -33.919  40.982 -50.998  1.00  0.00     0.409 C 
HETATM   23  F   UNL     1     -33.392  40.423 -49.887  1.00  0.00    -0.169 F 
HETATM   24  F   UNL     1     -32.880  41.533 -51.681  1.00  0.00    -0.169 F 
HETATM   25  F   UNL     1     -34.707  42.006 -50.610  1.00  0.00    -0.169 F 
ENDBRANCH   8  22
BRANCH   1  26
HETATM   26  C   UNL     1     -35.966  41.750 -55.054  1.00  0.00    -0.035 A 
HETATM   27  C   UNL     1     -34.915  41.928 -55.965  1.00  0.00     0.012 A 
HETATM   28  C   UNL     1     -35.173  42.090 -57.333  1.00  0.00     0.037 A 
HETATM   29  C   UNL     1     -36.484  42.074 -57.809  1.00  0.00     0.068 A 
HETATM   30  C   UNL     1     -37.534  41.907 -56.907  1.00  0.00     0.037 A 
HETATM   31  C   UNL     1     -37.281  41.745 -55.545  1.00  0.00     0.012 A 
BRANCH  29  32
HETATM   32  O   UNL     1     -36.871  42.216 -59.113  1.00  0.00    -0.356 OA
HETATM   33  C   UNL     1     -37.235  41.031 -59.809  1.00  0.00     0.210 C 
ENDBRANCH  29  32
ENDBRANCH   1  26
TORSDOF 6
ENDMDL
