MODEL 1
REMARK VINA RESULT:      -8.3      0.000      0.000
REMARK  5 active torsions:
REMARK  status: ('A' for Active; 'I' for Inactive)
REMARK    1  A    between atoms: C_2  and  C_3 
REMARK    2  A    between atoms: C_3  and  C_4 
REMARK    3  A    between atoms: C_8  and  N_9 
REMARK       I    between atoms: N_9  and  C_10 
REMARK    4  A    between atoms: C_10  and  C_11 
REMARK    5  A    between atoms: N_13  and  C_14 
ROOT
HETATM    1  C   UNL     1     -42.468  58.352 -52.586  1.00  0.00     0.106 C 
HETATM    2  C   UNL     1     -41.261  57.543 -52.131  1.00  0.00     0.148 C 
HETATM    3  N   UNL     1     -41.802  56.306 -51.639  1.00  0.00    -0.299 N 
HETATM    4  C   UNL     1     -43.152  56.454 -51.300  1.00  0.00     0.226 C 
HETATM    5  O   UNL     1     -43.925  55.675 -50.764  1.00  0.00    -0.273 OA
HETATM    6  C   UNL     1     -43.564  57.864 -51.652  1.00  0.00     0.119 C 
ENDROOT
BRANCH   1   7
HETATM    7  C   UNL     1     -42.216  59.843 -52.463  1.00  0.00     0.242 C 
HETATM    8  N   UNL     1     -42.370  60.685 -53.525  1.00  0.00    -0.156 N 
HETATM    9  H   UNL     1     -42.244  61.662 -53.295  1.00  0.00     0.187 HD
HETATM   10  O   UNL     1     -41.884  60.354 -51.388  1.00  0.00    -0.272 OA
BRANCH   8  11
HETATM   11  C   UNL     1     -42.565  60.322 -54.830  1.00  0.00     0.725 A 
HETATM   12  N   UNL     1     -43.783  60.439 -55.445  1.00  0.00    -0.106 N 
HETATM   13  N   UNL     1     -43.738  60.016 -56.717  1.00  0.00    -0.144 NA
HETATM   14  H   UNL     1     -44.660  60.773 -55.066  1.00  0.00     0.208 HD
HETATM   15  C   UNL     1     -42.451  59.669 -56.835  1.00  0.00     0.166 A 
HETATM   16  N   UNL     1     -41.706  59.847 -55.698  1.00  0.00    -0.046 NA
BRANCH  15  17
HETATM   17  C   UNL     1     -41.868  59.117 -58.088  1.00  0.00     0.087 C 
BRANCH  17  18
HETATM   18  C   UNL     1     -42.643  57.906 -58.640  1.00  0.00    -0.016 C 
HETATM   19  C   UNL     1     -42.715  56.760 -57.627  1.00  0.00     0.010 C 
HETATM   20  C   UNL     1     -41.985  57.410 -59.929  1.00  0.00     0.010 C 
ENDBRANCH  17  18
ENDBRANCH  15  17
ENDBRANCH   8  11
ENDBRANCH   1   7
BRANCH   3  21
HETATM   21  C   UNL     1     -41.084  55.131 -51.418  1.00  0.00     0.165 A 
HETATM   22  N   UNL     1     -40.491  54.864 -50.250  1.00  0.00    -0.155 NA
HETATM   23  N   UNL     1     -39.936  53.662 -50.403  1.00  0.00    -0.275 N 
HETATM   24  H   UNL     1     -39.427  53.271 -49.619  1.00  0.00     0.189 HD
HETATM   25  C   UNL     1     -40.135  53.104 -51.632  1.00  0.00     0.065 A 
HETATM   26  C   UNL     1     -40.882  54.044 -52.340  1.00  0.00     0.040 A 
HETATM   27  C   UNL     1     -39.720  51.877 -52.164  1.00  0.00     0.051 A 
HETATM   28  C   UNL     1     -41.218  53.742 -53.678  1.00  0.00     0.019 A 
HETATM   29  C   UNL     1     -40.814  52.519 -54.238  1.00  0.00     0.020 A 
HETATM   30  C   UNL     1     -40.080  51.608 -53.486  1.00  0.00     0.013 A 
HETATM   31 BR   UNL     1     -39.551  49.967 -54.269  1.00  0.00    -0.051 Br
ENDBRANCH   3  21
TORSDOF 5
ENDMDL
MODEL 2
REMARK VINA RESULT:      -8.1      3.566      6.244
REMARK  5 active torsions:
REMARK  status: ('A' for Active; 'I' for Inactive)
REMARK    1  A    between atoms: C_2  and  C_3 
REMARK    2  A    between atoms: C_3  and  C_4 
REMARK    3  A    between atoms: C_8  and  N_9 
REMARK       I    between atoms: N_9  and  C_10 
REMARK    4  A    between atoms: C_10  and  C_11 
REMARK    5  A    between atoms: N_13  and  C_14 
ROOT
HETATM    1  C   UNL     1     -43.487  57.951 -51.149  1.00  0.00     0.106 C 
HETATM    2  C   UNL     1     -43.122  56.522 -51.527  1.00  0.00     0.148 C 
HETATM    3  N   UNL     1     -41.723  56.399 -51.219  1.00  0.00    -0.299 N 
HETATM    4  C   UNL     1     -41.113  57.658 -51.168  1.00  0.00     0.226 C 
HETATM    5  O   UNL     1     -39.939  57.965 -51.035  1.00  0.00    -0.273 OA
HETATM    6  C   UNL     1     -42.185  58.699 -51.387  1.00  0.00     0.119 C 
ENDROOT
BRANCH   1   7
HETATM    7  C   UNL     1     -44.627  58.476 -52.003  1.00  0.00     0.242 C 
HETATM    8  N   UNL     1     -45.353  59.570 -51.633  1.00  0.00    -0.156 N 
HETATM    9  H   UNL     1     -46.034  59.861 -52.322  1.00  0.00     0.187 HD
HETATM   10  O   UNL     1     -44.924  57.945 -53.079  1.00  0.00    -0.272 OA
BRANCH   8  11
HETATM   11  C   UNL     1     -45.310  60.204 -50.422  1.00  0.00     0.725 A 
HETATM   12  N   UNL     1     -44.571  61.339 -50.219  1.00  0.00    -0.106 N 
HETATM   13  N   UNL     1     -44.673  61.777 -48.956  1.00  0.00    -0.144 NA
HETATM   14  H   UNL     1     -43.983  61.842 -50.871  1.00  0.00     0.208 HD
HETATM   15  C   UNL     1     -45.512  60.878 -48.430  1.00  0.00     0.166 A 
HETATM   16  N   UNL     1     -45.922  59.902 -49.303  1.00  0.00    -0.046 NA
BRANCH  15  17
HETATM   17  C   UNL     1     -45.957  60.910 -47.011  1.00  0.00     0.087 C 
BRANCH  17  18
HETATM   18  C   UNL     1     -45.028  61.733 -46.098  1.00  0.00    -0.016 C 
HETATM   19  C   UNL     1     -44.493  60.904 -44.927  1.00  0.00     0.010 C 
HETATM   20  C   UNL     1     -45.775  62.956 -45.561  1.00  0.00     0.010 C 
ENDBRANCH  17  18
ENDBRANCH  15  17
ENDBRANCH   8  11
ENDBRANCH   1   7
BRANCH   3  21
HETATM   21  C   UNL     1     -41.018  55.204 -51.088  1.00  0.00     0.165 A 
HETATM   22  N   UNL     1     -40.393  54.861 -49.957  1.00  0.00    -0.155 NA
HETATM   23  N   UNL     1     -39.862  53.662 -50.197  1.00  0.00    -0.275 N 
HETATM   24  H   UNL     1     -39.335  53.219 -49.452  1.00  0.00     0.189 HD
HETATM   25  C   UNL     1     -40.108  53.179 -51.448  1.00  0.00     0.065 A 
HETATM   26  C   UNL     1     -40.862  54.169 -52.076  1.00  0.00     0.040 A 
HETATM   27  C   UNL     1     -39.729  51.979 -52.062  1.00  0.00     0.051 A 
HETATM   28  C   UNL     1     -41.244  53.949 -53.419  1.00  0.00     0.019 A 
HETATM   29  C   UNL     1     -40.877  52.755 -54.060  1.00  0.00     0.020 A 
HETATM   30  C   UNL     1     -40.135  51.791 -53.385  1.00  0.00     0.013 A 
HETATM   31 BR   UNL     1     -39.657  50.192 -54.278  1.00  0.00    -0.051 Br
ENDBRANCH   3  21
TORSDOF 5
ENDMDL
MODEL 3
REMARK VINA RESULT:      -8.0      2.625      6.898
REMARK  5 active torsions:
REMARK  status: ('A' for Active; 'I' for Inactive)
REMARK    1  A    between atoms: C_2  and  C_3 
REMARK    2  A    between atoms: C_3  and  C_4 
REMARK    3  A    between atoms: C_8  and  N_9 
REMARK       I    between atoms: N_9  and  C_10 
REMARK    4  A    between atoms: C_10  and  C_11 
REMARK    5  A    between atoms: N_13  and  C_14 
ROOT
HETATM    1  C   UNL     1     -42.119  58.230 -53.027  1.00  0.00     0.106 C 
HETATM    2  C   UNL     1     -43.481  58.150 -53.702  1.00  0.00     0.148 C 
HETATM    3  N   UNL     1     -43.291  58.737 -55.001  1.00  0.00    -0.299 N 
HETATM    4  C   UNL     1     -42.165  59.567 -55.010  1.00  0.00     0.226 C 
HETATM    5  O   UNL     1     -41.733  60.308 -55.880  1.00  0.00    -0.273 OA
HETATM    6  C   UNL     1     -41.514  59.478 -53.650  1.00  0.00     0.119 C 
ENDROOT
BRANCH   1   7
HETATM    7  C   UNL     1     -42.253  58.335 -51.519  1.00  0.00     0.242 C 
HETATM    8  N   UNL     1     -42.091  57.249 -50.709  1.00  0.00    -0.156 N 
HETATM    9  H   UNL     1     -42.132  57.466 -49.722  1.00  0.00     0.187 HD
HETATM   10  O   UNL     1     -42.488  59.415 -50.966  1.00  0.00    -0.272 OA
BRANCH   8  11
HETATM   11  C   UNL     1     -41.992  55.944 -51.107  1.00  0.00     0.725 A 
HETATM   12  N   UNL     1     -43.087  55.125 -51.197  1.00  0.00    -0.106 N 
HETATM   13  N   UNL     1     -42.749  53.891 -51.598  1.00  0.00    -0.144 NA
HETATM   14  H   UNL     1     -44.056  55.331 -50.993  1.00  0.00     0.208 HD
HETATM   15  C   UNL     1     -41.427  54.017 -51.762  1.00  0.00     0.166 A 
HETATM   16  N   UNL     1     -40.934  55.264 -51.471  1.00  0.00    -0.046 NA
BRANCH  15  17
HETATM   17  C   UNL     1     -40.550  52.900 -52.205  1.00  0.00     0.087 C 
BRANCH  17  18
HETATM   18  C   UNL     1     -40.753  52.512 -53.682  1.00  0.00    -0.016 C 
HETATM   19  C   UNL     1     -39.966  51.255 -54.058  1.00  0.00     0.010 C 
HETATM   20  C   UNL     1     -40.332  53.671 -54.587  1.00  0.00     0.010 C 
ENDBRANCH  17  18
ENDBRANCH  15  17
ENDBRANCH   8  11
ENDBRANCH   1   7
BRANCH   3  21
HETATM   21  C   UNL     1     -44.150  58.604 -56.091  1.00  0.00     0.165 A 
HETATM   22  N   UNL     1     -45.175  59.436 -56.301  1.00  0.00    -0.155 NA
HETATM   23  N   UNL     1     -45.741  59.020 -57.433  1.00  0.00    -0.275 N 
HETATM   24  H   UNL     1     -46.552  59.526 -57.772  1.00  0.00     0.189 HD
HETATM   25  C   UNL     1     -45.136  57.937 -57.999  1.00  0.00     0.065 A 
HETATM   26  C   UNL     1     -44.083  57.622 -57.141  1.00  0.00     0.040 A 
HETATM   27  C   UNL     1     -45.429  57.224 -59.168  1.00  0.00     0.051 A 
HETATM   28  C   UNL     1     -43.283  56.503 -57.467  1.00  0.00     0.019 A 
HETATM   29  C   UNL     1     -43.556  55.770 -58.633  1.00  0.00     0.020 A 
HETATM   30  C   UNL     1     -44.610  56.133 -59.465  1.00  0.00     0.013 A 
HETATM   31 BR   UNL     1     -44.950  55.123 -61.030  1.00  0.00    -0.051 Br
ENDBRANCH   3  21
TORSDOF 5
ENDMDL
MODEL 4
REMARK VINA RESULT:      -7.9      3.867      7.628
REMARK  5 active torsions:
REMARK  status: ('A' for Active; 'I' for Inactive)
REMARK    1  A    between atoms: C_2  and  C_3 
REMARK    2  A    between atoms: C_3  and  C_4 
REMARK    3  A    between atoms: C_8  and  N_9 
REMARK       I    between atoms: N_9  and  C_10 
REMARK    4  A    between atoms: C_10  and  C_11 
REMARK    5  A    between atoms: N_13  and  C_14 
ROOT
HETATM    1  C   UNL     1     -42.589  57.836 -54.671  1.00  0.00     0.106 C 
HETATM    2  C   UNL     1     -43.627  57.142 -55.542  1.00  0.00     0.148 C 
HETATM    3  N   UNL     1     -43.230  57.423 -56.895  1.00  0.00    -0.299 N 
HETATM    4  C   UNL     1     -42.406  58.554 -56.946  1.00  0.00     0.226 C 
HETATM    5  O   UNL     1     -41.951  59.161 -57.903  1.00  0.00    -0.273 OA
HETATM    6  C   UNL     1     -42.178  59.023 -55.529  1.00  0.00     0.119 C 
ENDROOT
BRANCH   1   7
HETATM    7  C   UNL     1     -43.176  58.255 -53.336  1.00  0.00     0.242 C 
HETATM    8  N   UNL     1     -43.115  57.444 -52.241  1.00  0.00    -0.156 N 
HETATM    9  H   UNL     1     -43.476  57.869 -51.397  1.00  0.00     0.187 HD
HETATM   10  O   UNL     1     -43.709  59.360 -53.184  1.00  0.00    -0.272 OA
BRANCH   8  11
HETATM   11  C   UNL     1     -42.726  56.132 -52.221  1.00  0.00     0.725 A 
HETATM   12  N   UNL     1     -43.630  55.106 -52.145  1.00  0.00    -0.106 N 
HETATM   13  N   UNL     1     -43.021  53.911 -52.131  1.00  0.00    -0.144 NA
HETATM   14  H   UNL     1     -44.639  55.147 -52.088  1.00  0.00     0.208 HD
HETATM   15  C   UNL     1     -41.735  54.267 -52.223  1.00  0.00     0.166 A 
HETATM   16  N   UNL     1     -41.522  55.622 -52.282  1.00  0.00    -0.046 NA
BRANCH  15  17
HETATM   17  C   UNL     1     -40.616  53.287 -52.241  1.00  0.00     0.087 C 
BRANCH  17  18
HETATM   18  C   UNL     1     -40.549  52.461 -53.540  1.00  0.00    -0.016 C 
HETATM   19  C   UNL     1     -39.486  51.362 -53.467  1.00  0.00     0.010 C 
HETATM   20  C   UNL     1     -40.254  53.381 -54.727  1.00  0.00     0.010 C 
ENDBRANCH  17  18
ENDBRANCH  15  17
ENDBRANCH   8  11
ENDBRANCH   1   7
BRANCH   3  21
HETATM   21  C   UNL     1     -43.670  56.748 -58.033  1.00  0.00     0.165 A 
HETATM   22  N   UNL     1     -43.001  55.717 -58.558  1.00  0.00    -0.155 NA
HETATM   23  N   UNL     1     -43.728  55.319 -59.602  1.00  0.00    -0.275 N 
HETATM   24  H   UNL     1     -43.386  54.536 -60.147  1.00  0.00     0.189 HD
HETATM   25  C   UNL     1     -44.867  56.042 -59.801  1.00  0.00     0.065 A 
HETATM   26  C   UNL     1     -44.867  57.004 -58.791  1.00  0.00     0.040 A 
HETATM   27  C   UNL     1     -45.871  55.930 -60.770  1.00  0.00     0.051 A 
HETATM   28  C   UNL     1     -45.934  57.928 -58.766  1.00  0.00     0.019 A 
HETATM   29  C   UNL     1     -46.954  57.840 -59.727  1.00  0.00     0.020 A 
HETATM   30  C   UNL     1     -46.916  56.854 -60.707  1.00  0.00     0.013 A 
HETATM   31 BR   UNL     1     -48.307  56.761 -61.988  1.00  0.00    -0.051 Br
ENDBRANCH   3  21
TORSDOF 5
ENDMDL
MODEL 5
REMARK VINA RESULT:      -7.8      2.286      2.809
REMARK  5 active torsions:
REMARK  status: ('A' for Active; 'I' for Inactive)
REMARK    1  A    between atoms: C_2  and  C_3 
REMARK    2  A    between atoms: C_3  and  C_4 
REMARK    3  A    between atoms: C_8  and  N_9 
REMARK       I    between atoms: N_9  and  C_10 
REMARK    4  A    between atoms: C_10  and  C_11 
REMARK    5  A    between atoms: N_13  and  C_14 
ROOT
HETATM    1  C   UNL     1     -42.526  57.755 -54.904  1.00  0.00     0.106 C 
HETATM    2  C   UNL     1     -41.346  57.063 -54.236  1.00  0.00     0.148 C 
HETATM    3  N   UNL     1     -41.920  56.287 -53.171  1.00  0.00    -0.299 N 
HETATM    4  C   UNL     1     -43.179  56.784 -52.818  1.00  0.00     0.226 C 
HETATM    5  O   UNL     1     -43.930  56.466 -51.908  1.00  0.00    -0.273 OA
HETATM    6  C   UNL     1     -43.504  57.924 -53.752  1.00  0.00     0.119 C 
ENDROOT
BRANCH   1   7
HETATM    7  C   UNL     1     -42.115  59.078 -55.523  1.00  0.00     0.242 C 
HETATM    8  N   UNL     1     -42.301  59.337 -56.849  1.00  0.00    -0.156 N 
HETATM    9  H   UNL     1     -42.054  60.279 -57.121  1.00  0.00     0.187 HD
HETATM   10  O   UNL     1     -41.620  59.982 -54.841  1.00  0.00    -0.272 OA
BRANCH   8  11
HETATM   11  C   UNL     1     -42.671  58.436 -57.810  1.00  0.00     0.725 A 
HETATM   12  N   UNL     1     -41.753  57.697 -58.509  1.00  0.00    -0.106 N 
HETATM   13  N   UNL     1     -42.345  56.889 -59.401  1.00  0.00    -0.144 NA
HETATM   14  H   UNL     1     -40.744  57.704 -58.441  1.00  0.00     0.208 HD
HETATM   15  C   UNL     1     -43.637  57.160 -59.188  1.00  0.00     0.166 A 
HETATM   16  N   UNL     1     -43.870  58.102 -58.218  1.00  0.00    -0.046 NA
BRANCH  15  17
HETATM   17  C   UNL     1     -44.742  56.514 -59.948  1.00  0.00     0.087 C 
BRANCH  17  18
HETATM   18  C   UNL     1     -46.107  57.194 -59.738  1.00  0.00    -0.016 C 
HETATM   19  C   UNL     1     -47.264  56.325 -60.237  1.00  0.00     0.010 C 
HETATM   20  C   UNL     1     -46.133  58.544 -60.457  1.00  0.00     0.010 C 
ENDBRANCH  17  18
ENDBRANCH  15  17
ENDBRANCH   8  11
ENDBRANCH   1   7
BRANCH   3  21
HETATM   21  C   UNL     1     -41.292  55.244 -52.490  1.00  0.00     0.165 A 
HETATM   22  N   UNL     1     -40.973  55.325 -51.195  1.00  0.00    -0.155 NA
HETATM   23  N   UNL     1     -40.424  54.149 -50.892  1.00  0.00    -0.275 N 
HETATM   24  H   UNL     1     -40.105  54.005 -49.941  1.00  0.00     0.189 HD
HETATM   25  C   UNL     1     -40.362  53.274 -51.936  1.00  0.00     0.065 A 
HETATM   26  C   UNL     1     -40.918  53.958 -53.016  1.00  0.00     0.040 A 
HETATM   27  C   UNL     1     -39.867  51.966 -52.013  1.00  0.00     0.051 A 
HETATM   28  C   UNL     1     -40.961  53.293 -54.262  1.00  0.00     0.019 A 
HETATM   29  C   UNL     1     -40.470  51.982 -54.368  1.00  0.00     0.020 A 
HETATM   30  C   UNL     1     -39.938  51.336 -53.257  1.00  0.00     0.013 A 
HETATM   31 BR   UNL     1     -39.286  49.567 -53.432  1.00  0.00    -0.051 Br
ENDBRANCH   3  21
TORSDOF 5
ENDMDL
MODEL 6
REMARK VINA RESULT:      -7.6      2.609      7.447
REMARK  5 active torsions:
REMARK  status: ('A' for Active; 'I' for Inactive)
REMARK    1  A    between atoms: C_2  and  C_3 
REMARK    2  A    between atoms: C_3  and  C_4 
REMARK    3  A    between atoms: C_8  and  N_9 
REMARK       I    between atoms: N_9  and  C_10 
REMARK    4  A    between atoms: C_10  and  C_11 
REMARK    5  A    between atoms: N_13  and  C_14 
ROOT
HETATM    1  C   UNL     1     -42.266  56.781 -52.353  1.00  0.00     0.106 C 
HETATM    2  C   UNL     1     -43.034  57.807 -53.174  1.00  0.00     0.148 C 
HETATM    3  N   UNL     1     -42.028  58.672 -53.729  1.00  0.00    -0.299 N 
HETATM    4  C   UNL     1     -40.845  58.599 -52.984  1.00  0.00     0.226 C 
HETATM    5  O   UNL     1     -39.811  59.243 -53.073  1.00  0.00    -0.273 OA
HETATM    6  C   UNL     1     -41.045  57.566 -51.901  1.00  0.00     0.119 C 
ENDROOT
BRANCH   1   7
HETATM    7  C   UNL     1     -43.095  56.269 -51.190  1.00  0.00     0.242 C 
HETATM    8  N   UNL     1     -42.699  55.196 -50.445  1.00  0.00    -0.156 N 
HETATM    9  H   UNL     1     -43.301  55.002 -49.656  1.00  0.00     0.187 HD
HETATM   10  O   UNL     1     -44.150  56.821 -50.858  1.00  0.00    -0.272 OA
BRANCH   8  11
HETATM   11  C   UNL     1     -41.669  54.343 -50.732  1.00  0.00     0.725 A 
HETATM   12  N   UNL     1     -40.396  54.559 -50.275  1.00  0.00    -0.106 N 
HETATM   13  N   UNL     1     -39.553  53.600 -50.687  1.00  0.00    -0.144 NA
HETATM   14  H   UNL     1     -40.041  55.320 -49.711  1.00  0.00     0.208 HD
HETATM   15  C   UNL     1     -40.375  52.804 -51.379  1.00  0.00     0.166 A 
HETATM   16  N   UNL     1     -41.679  53.231 -51.424  1.00  0.00    -0.046 NA
BRANCH  15  17
HETATM   17  C   UNL     1     -39.923  51.564 -52.066  1.00  0.00     0.087 C 
BRANCH  17  18
HETATM   18  C   UNL     1     -39.593  51.777 -53.556  1.00  0.00    -0.016 C 
HETATM   19  C   UNL     1     -40.364  52.959 -54.151  1.00  0.00     0.010 C 
HETATM   20  C   UNL     1     -39.912  50.507 -54.347  1.00  0.00     0.010 C 
ENDBRANCH  17  18
ENDBRANCH  15  17
ENDBRANCH   8  11
ENDBRANCH   1   7
BRANCH   3  21
HETATM   21  C   UNL     1     -42.206  59.554 -54.794  1.00  0.00     0.165 A 
HETATM   22  N   UNL     1     -42.410  60.862 -54.614  1.00  0.00    -0.155 NA
HETATM   23  N   UNL     1     -42.506  61.377 -55.840  1.00  0.00    -0.275 N 
HETATM   24  H   UNL     1     -42.666  62.374 -55.925  1.00  0.00     0.189 HD
HETATM   25  C   UNL     1     -42.371  60.464 -56.844  1.00  0.00     0.065 A 
HETATM   26  C   UNL     1     -42.179  59.243 -56.199  1.00  0.00     0.040 A 
HETATM   27  C   UNL     1     -42.407  60.613 -58.236  1.00  0.00     0.051 A 
HETATM   28  C   UNL     1     -42.035  58.091 -57.005  1.00  0.00     0.019 A 
HETATM   29  C   UNL     1     -42.069  58.212 -58.403  1.00  0.00     0.020 A 
HETATM   30  C   UNL     1     -42.250  59.455 -59.000  1.00  0.00     0.013 A 
HETATM   31 BR   UNL     1     -42.289  59.585 -60.888  1.00  0.00    -0.051 Br
ENDBRANCH   3  21
TORSDOF 5
ENDMDL
MODEL 7
REMARK VINA RESULT:      -7.4      1.480      2.034
REMARK  5 active torsions:
REMARK  status: ('A' for Active; 'I' for Inactive)
REMARK    1  A    between atoms: C_2  and  C_3 
REMARK    2  A    between atoms: C_3  and  C_4 
REMARK    3  A    between atoms: C_8  and  N_9 
REMARK       I    between atoms: N_9  and  C_10 
REMARK    4  A    between atoms: C_10  and  C_11 
REMARK    5  A    between atoms: N_13  and  C_14 
ROOT
HETATM    1  C   UNL     1     -42.656  58.191 -51.989  1.00  0.00     0.106 C 
HETATM    2  C   UNL     1     -41.416  57.415 -51.570  1.00  0.00     0.148 C 
HETATM    3  N   UNL     1     -41.883  56.084 -51.287  1.00  0.00    -0.299 N 
HETATM    4  C   UNL     1     -43.257  56.087 -51.021  1.00  0.00     0.226 C 
HETATM    5  O   UNL     1     -43.994  55.188 -50.648  1.00  0.00    -0.273 OA
HETATM    6  C   UNL     1     -43.760  57.499 -51.204  1.00  0.00     0.119 C 
ENDROOT
BRANCH   1   7
HETATM    7  C   UNL     1     -42.530  59.664 -51.647  1.00  0.00     0.242 C 
HETATM    8  N   UNL     1     -42.683  60.634 -52.594  1.00  0.00    -0.156 N 
HETATM    9  H   UNL     1     -42.648  61.575 -52.225  1.00  0.00     0.187 HD
HETATM   10  O   UNL     1     -42.310  60.041 -50.491  1.00  0.00    -0.272 OA
BRANCH   8  11
HETATM   11  C   UNL     1     -42.765  60.445 -53.947  1.00  0.00     0.725 A 
HETATM   12  N   UNL     1     -41.654  60.244 -54.723  1.00  0.00    -0.106 N 
HETATM   13  N   UNL     1     -41.975  60.092 -56.016  1.00  0.00    -0.144 NA
HETATM   14  H   UNL     1     -40.681  60.215 -54.448  1.00  0.00     0.208 HD
HETATM   15  C   UNL     1     -43.309  60.187 -55.971  1.00  0.00     0.166 A 
HETATM   16  N   UNL     1     -43.823  60.401 -54.717  1.00  0.00    -0.046 NA
BRANCH  15  17
HETATM   17  C   UNL     1     -44.174  60.089 -57.177  1.00  0.00     0.087 C 
BRANCH  17  18
HETATM   18  C   UNL     1     -45.519  60.824 -57.025  1.00  0.00    -0.016 C 
HETATM   19  C   UNL     1     -46.658  60.091 -57.740  1.00  0.00     0.010 C 
HETATM   20  C   UNL     1     -45.401  62.247 -57.576  1.00  0.00     0.010 C 
ENDBRANCH  17  18
ENDBRANCH  15  17
ENDBRANCH   8  11
ENDBRANCH   1   7
BRANCH   3  21
HETATM   21  C   UNL     1     -41.088  54.945 -51.181  1.00  0.00     0.165 A 
HETATM   22  N   UNL     1     -40.374  54.669 -50.085  1.00  0.00    -0.155 NA
HETATM   23  N   UNL     1     -39.774  53.505 -50.338  1.00  0.00    -0.275 N 
HETATM   24  H   UNL     1     -39.174  53.115 -49.620  1.00  0.00     0.189 HD
HETATM   25  C   UNL     1     -40.058  52.982 -51.565  1.00  0.00     0.065 A 
HETATM   26  C   UNL     1     -40.917  53.904 -52.162  1.00  0.00     0.040 A 
HETATM   27  C   UNL     1     -39.632  51.800 -52.183  1.00  0.00     0.051 A 
HETATM   28  C   UNL     1     -41.362  53.632 -53.475  1.00  0.00     0.019 A 
HETATM   29  C   UNL     1     -40.948  52.455 -54.119  1.00  0.00     0.020 A 
HETATM   30  C   UNL     1     -40.101  51.559 -53.476  1.00  0.00     0.013 A 
HETATM   31 BR   UNL     1     -39.564  49.980 -54.371  1.00  0.00    -0.051 Br
ENDBRANCH   3  21
TORSDOF 5
ENDMDL
MODEL 8
REMARK VINA RESULT:      -7.4      1.885      2.545
REMARK  5 active torsions:
REMARK  status: ('A' for Active; 'I' for Inactive)
REMARK    1  A    between atoms: C_2  and  C_3 
REMARK    2  A    between atoms: C_3  and  C_4 
REMARK    3  A    between atoms: C_8  and  N_9 
REMARK       I    between atoms: N_9  and  C_10 
REMARK    4  A    between atoms: C_10  and  C_11 
REMARK    5  A    between atoms: N_13  and  C_14 
ROOT
HETATM    1  C   UNL     1     -43.518  57.663 -51.323  1.00  0.00     0.106 C 
HETATM    2  C   UNL     1     -43.233  56.169 -51.363  1.00  0.00     0.148 C 
HETATM    3  N   UNL     1     -41.828  56.062 -51.649  1.00  0.00    -0.299 N 
HETATM    4  C   UNL     1     -41.352  57.236 -52.245  1.00  0.00     0.226 C 
HETATM    5  O   UNL     1     -40.257  57.498 -52.718  1.00  0.00    -0.273 OA
HETATM    6  C   UNL     1     -42.495  58.222 -52.300  1.00  0.00     0.119 C 
ENDROOT
BRANCH   1   7
HETATM    7  C   UNL     1     -44.947  57.967 -51.735  1.00  0.00     0.242 C 
HETATM    8  N   UNL     1     -45.415  57.656 -52.978  1.00  0.00    -0.156 N 
HETATM    9  H   UNL     1     -46.401  57.842 -53.101  1.00  0.00     0.187 HD
HETATM   10  O   UNL     1     -45.748  58.484 -50.949  1.00  0.00    -0.272 OA
BRANCH   8  11
HETATM   11  C   UNL     1     -44.670  57.238 -54.047  1.00  0.00     0.725 A 
HETATM   12  N   UNL     1     -44.431  55.912 -54.294  1.00  0.00    -0.106 N 
HETATM   13  N   UNL     1     -43.673  55.743 -55.388  1.00  0.00    -0.144 NA
HETATM   14  H   UNL     1     -44.730  55.101 -53.769  1.00  0.00     0.208 HD
HETATM   15  C   UNL     1     -43.495  57.007 -55.786  1.00  0.00     0.166 A 
HETATM   16  N   UNL     1     -44.095  57.947 -54.987  1.00  0.00    -0.046 NA
BRANCH  15  17
HETATM   17  C   UNL     1     -42.696  57.379 -56.986  1.00  0.00     0.087 C 
BRANCH  17  18
HETATM   18  C   UNL     1     -43.256  56.794 -58.296  1.00  0.00    -0.016 C 
HETATM   19  C   UNL     1     -42.354  57.105 -59.494  1.00  0.00     0.010 C 
HETATM   20  C   UNL     1     -44.660  57.345 -58.556  1.00  0.00     0.010 C 
ENDBRANCH  17  18
ENDBRANCH  15  17
ENDBRANCH   8  11
ENDBRANCH   1   7
BRANCH   3  21
HETATM   21  C   UNL     1     -41.041  54.926 -51.469  1.00  0.00     0.165 A 
HETATM   22  N   UNL     1     -40.354  54.701 -50.344  1.00  0.00    -0.155 NA
HETATM   23  N   UNL     1     -39.755  53.524 -50.526  1.00  0.00    -0.275 N 
HETATM   24  H   UNL     1     -39.174  53.167 -49.776  1.00  0.00     0.189 HD
HETATM   25  C   UNL     1     -40.014  52.943 -51.732  1.00  0.00     0.065 A 
HETATM   26  C   UNL     1     -40.853  53.838 -52.393  1.00  0.00     0.040 A 
HETATM   27  C   UNL     1     -39.580  51.730 -52.281  1.00  0.00     0.051 A 
HETATM   28  C   UNL     1     -41.269  53.503 -53.701  1.00  0.00     0.019 A 
HETATM   29  C   UNL     1     -40.847  52.295 -54.277  1.00  0.00     0.020 A 
HETATM   30  C   UNL     1     -40.020  51.427 -53.571  1.00  0.00     0.013 A 
HETATM   31 BR   UNL     1     -39.470  49.804 -54.375  1.00  0.00    -0.051 Br
ENDBRANCH   3  21
TORSDOF 5
ENDMDL
MODEL 9
REMARK VINA RESULT:      -7.4     16.238     18.713
REMARK  5 active torsions:
REMARK  status: ('A' for Active; 'I' for Inactive)
REMARK    1  A    between atoms: C_2  and  C_3 
REMARK    2  A    between atoms: C_3  and  C_4 
REMARK    3  A    between atoms: C_8  and  N_9 
REMARK       I    between atoms: N_9  and  C_10 
REMARK    4  A    between atoms: C_10  and  C_11 
REMARK    5  A    between atoms: N_13  and  C_14 
ROOT
HETATM    1  C   UNL     1     -37.296  40.758 -53.720  1.00  0.00     0.106 C 
HETATM    2  C   UNL     1     -38.010  40.933 -55.053  1.00  0.00     0.148 C 
HETATM    3  N   UNL     1     -37.014  41.460 -55.946  1.00  0.00    -0.299 N 
HETATM    4  C   UNL     1     -35.973  42.061 -55.228  1.00  0.00     0.226 C 
HETATM    5  O   UNL     1     -35.006  42.698 -55.618  1.00  0.00    -0.273 OA
HETATM    6  C   UNL     1     -36.251  41.863 -53.757  1.00  0.00     0.119 C 
ENDROOT
BRANCH   1   7
HETATM    7  C   UNL     1     -38.257  40.901 -52.554  1.00  0.00     0.242 C 
HETATM    8  N   UNL     1     -37.951  40.425 -51.312  1.00  0.00    -0.156 N 
HETATM    9  H   UNL     1     -38.642  40.648 -50.607  1.00  0.00     0.187 HD
HETATM   10  O   UNL     1     -39.342  41.479 -52.679  1.00  0.00    -0.272 OA
BRANCH   8  11
HETATM   11  C   UNL     1     -36.896  39.618 -50.987  1.00  0.00     0.725 A 
HETATM   12  N   UNL     1     -36.920  38.265 -51.202  1.00  0.00    -0.106 N 
HETATM   13  N   UNL     1     -35.782  37.680 -50.799  1.00  0.00    -0.144 NA
HETATM   14  H   UNL     1     -37.659  37.694 -51.591  1.00  0.00     0.208 HD
HETATM   15  C   UNL     1     -35.082  38.733 -50.364  1.00  0.00     0.166 A 
HETATM   16  N   UNL     1     -35.736  39.935 -50.467  1.00  0.00    -0.046 NA
BRANCH  15  17
HETATM   17  C   UNL     1     -33.712  38.622 -49.793  1.00  0.00     0.087 C 
BRANCH  17  18
HETATM   18  C   UNL     1     -32.916  39.939 -49.856  1.00  0.00    -0.016 C 
HETATM   19  C   UNL     1     -32.199  40.113 -51.198  1.00  0.00     0.010 C 
HETATM   20  C   UNL     1     -31.893  39.985 -48.719  1.00  0.00     0.010 C 
ENDBRANCH  17  18
ENDBRANCH  15  17
ENDBRANCH   8  11
ENDBRANCH   1   7
BRANCH   3  21
HETATM   21  C   UNL     1     -37.094  41.482 -57.337  1.00  0.00     0.165 A 
HETATM   22  N   UNL     1     -36.748  42.554 -58.057  1.00  0.00    -0.155 NA
HETATM   23  N   UNL     1     -36.929  42.198 -59.329  1.00  0.00    -0.275 N 
HETATM   24  H   UNL     1     -36.721  42.883 -60.047  1.00  0.00     0.189 HD
HETATM   25  C   UNL     1     -37.381  40.923 -59.496  1.00  0.00     0.065 A 
HETATM   26  C   UNL     1     -37.513  40.413 -58.205  1.00  0.00     0.040 A 
HETATM   27  C   UNL     1     -37.683  40.197 -60.655  1.00  0.00     0.051 A 
HETATM   28  C   UNL     1     -38.000  39.094 -58.067  1.00  0.00     0.019 A 
HETATM   29  C   UNL     1     -38.312  38.344 -59.212  1.00  0.00     0.020 A 
HETATM   30  C   UNL     1     -38.150  38.893 -60.480  1.00  0.00     0.013 A 
HETATM   31 BR   UNL     1     -38.578  37.855 -62.005  1.00  0.00    -0.051 Br
ENDBRANCH   3  21
TORSDOF 5
ENDMDL
MODEL 10
REMARK VINA RESULT:      -7.2      3.856      6.566
REMARK  5 active torsions:
REMARK  status: ('A' for Active; 'I' for Inactive)
REMARK    1  A    between atoms: C_2  and  C_3 
REMARK    2  A    between atoms: C_3  and  C_4 
REMARK    3  A    between atoms: C_8  and  N_9 
REMARK       I    between atoms: N_9  and  C_10 
REMARK    4  A    between atoms: C_10  and  C_11 
REMARK    5  A    between atoms: N_13  and  C_14 
ROOT
HETATM    1  C   UNL     1     -43.937  59.625 -52.779  1.00  0.00     0.106 C 
HETATM    2  C   UNL     1     -43.891  58.423 -53.711  1.00  0.00     0.148 C 
HETATM    3  N   UNL     1     -42.497  58.089 -53.823  1.00  0.00    -0.299 N 
HETATM    4  C   UNL     1     -41.695  59.186 -53.487  1.00  0.00     0.226 C 
HETATM    5  O   UNL     1     -40.484  59.332 -53.551  1.00  0.00    -0.273 OA
HETATM    6  C   UNL     1     -42.607  60.309 -53.054  1.00  0.00     0.119 C 
ENDROOT
BRANCH   1   7
HETATM    7  C   UNL     1     -45.127  60.517 -53.083  1.00  0.00     0.242 C 
HETATM    8  N   UNL     1     -45.673  61.331 -52.133  1.00  0.00    -0.156 N 
HETATM    9  H   UNL     1     -46.412  61.927 -52.482  1.00  0.00     0.187 HD
HETATM   10  O   UNL     1     -45.630  60.559 -54.211  1.00  0.00    -0.272 OA
BRANCH   8  11
HETATM   11  C   UNL     1     -45.389  61.324 -50.795  1.00  0.00     0.725 A 
HETATM   12  N   UNL     1     -44.331  62.019 -50.271  1.00  0.00    -0.106 N 
HETATM   13  N   UNL     1     -44.243  61.859 -48.942  1.00  0.00    -0.144 NA
HETATM   14  H   UNL     1     -43.645  62.591 -50.747  1.00  0.00     0.208 HD
HETATM   15  C   UNL     1     -45.294  61.067 -48.701  1.00  0.00     0.166 A 
HETATM   16  N   UNL     1     -46.017  60.723 -49.815  1.00  0.00    -0.046 NA
BRANCH  15  17
HETATM   17  C   UNL     1     -45.649  60.576 -47.342  1.00  0.00     0.087 C 
BRANCH  17  18
HETATM   18  C   UNL     1     -46.349  61.638 -46.472  1.00  0.00    -0.016 C 
HETATM   19  C   UNL     1     -47.183  62.608 -47.313  1.00  0.00     0.010 C 
HETATM   20  C   UNL     1     -45.308  62.420 -45.668  1.00  0.00     0.010 C 
ENDBRANCH  17  18
ENDBRANCH  15  17
ENDBRANCH   8  11
ENDBRANCH   1   7
BRANCH   3  21
HETATM   21  C   UNL     1     -41.981  56.884 -54.299  1.00  0.00     0.165 A 
HETATM   22  N   UNL     1     -41.863  56.622 -55.605  1.00  0.00    -0.155 NA
HETATM   23  N   UNL     1     -41.315  55.409 -55.673  1.00  0.00    -0.275 N 
HETATM   24  H   UNL     1     -41.141  55.018 -56.592  1.00  0.00     0.189 HD
HETATM   25  C   UNL     1     -41.056  54.841 -54.460  1.00  0.00     0.065 A 
HETATM   26  C   UNL     1     -41.488  55.778 -53.522  1.00  0.00     0.040 A 
HETATM   27  C   UNL     1     -40.493  53.604 -54.124  1.00  0.00     0.051 A 
HETATM   28  C   UNL     1     -41.366  55.441 -52.155  1.00  0.00     0.019 A 
HETATM   29  C   UNL     1     -40.808  54.206 -51.790  1.00  0.00     0.020 A 
HETATM   30  C   UNL     1     -40.378  53.310 -52.764  1.00  0.00     0.013 A 
HETATM   31 BR   UNL     1     -39.627  51.654 -52.239  1.00  0.00    -0.051 Br
ENDBRANCH   3  21
TORSDOF 5
ENDMDL
