MODEL 1
REMARK VINA RESULT:      -8.0      0.000      0.000
REMARK  8 active torsions:
REMARK  status: ('A' for Active; 'I' for Inactive)
REMARK    1  A    between atoms: O_2  and  C_3 
REMARK    2  A    between atoms: C_3  and  C_4 
REMARK    3  A    between atoms: C_4  and  N_5 
REMARK    4  A    between atoms: N_5  and  C_6 
REMARK       I    between atoms: N_5  and  C_15 
REMARK    5  A    between atoms: C_6  and  C_7 
REMARK    6  A    between atoms: C_11  and  O_12 
REMARK    7  A    between atoms: C_15  and  C_17 
REMARK    8  A    between atoms: C_22  and  C_26 
ROOT
HETATM    1  N   UNL     1     -42.046  54.982 -51.499  1.00  0.00    -0.340 N 
HETATM    2  C   UNL     1     -43.063  55.783 -52.066  1.00  0.00     0.279 C 
HETATM    3  O   UNL     1     -43.998  56.173 -51.362  1.00  0.00    -0.265 OA
ENDROOT
BRANCH   2   4
HETATM    4  C   UNL     1     -42.997  56.147 -53.490  1.00  0.00     0.166 A 
HETATM    5  N   UNL     1     -43.231  55.334 -54.501  1.00  0.00    -0.235 NA
HETATM    6  C   UNL     1     -43.031  55.995 -55.700  1.00  0.00     0.075 A 
HETATM    7  C   UNL     1     -43.150  55.434 -56.985  1.00  0.00     0.034 A 
HETATM    8  C   UNL     1     -42.664  57.335 -55.588  1.00  0.00     0.036 A 
HETATM    9  C   UNL     1     -42.884  56.221 -58.116  1.00  0.00     0.014 A 
HETATM   10  C   UNL     1     -42.507  57.562 -57.992  1.00  0.00    -0.022 A 
HETATM   11  C   UNL     1     -42.401  58.135 -56.714  1.00  0.00     0.033 A 
HETATM   12  S   UNL     1     -42.602  57.762 -53.925  1.00  0.00    -0.063 SA
BRANCH  10  13
HETATM   13  C   UNL     1     -42.203  58.369 -59.162  1.00  0.00     0.010 A 
HETATM   14  C   UNL     1     -42.147  59.774 -59.326  1.00  0.00     0.152 A 
HETATM   15  N   UNL     1     -41.843  60.139 -60.574  1.00  0.00    -0.187 NA
HETATM   16  N   UNL     1     -41.707  58.970 -61.217  1.00  0.00    -0.289 N 
HETATM   17  H   UNL     1     -41.476  58.989 -62.206  1.00  0.00     0.188 HD
HETATM   18  C   UNL     1     -41.911  57.882 -60.417  1.00  0.00     0.123 A 
ENDBRANCH  10  13
ENDBRANCH   2   4
BRANCH   1  19
HETATM   19  C   UNL     1     -42.075  54.620 -50.072  1.00  0.00     0.152 C 
BRANCH  19  20
HETATM   20  C   UNL     1     -41.310  55.484 -49.061  1.00  0.00     0.187 C 
BRANCH  20  21
HETATM   21  O   UNL     1     -40.927  54.658 -47.953  1.00  0.00    -0.394 OA
HETATM   22  C   UNL     1     -40.511  53.369 -48.388  1.00  0.00     0.201 C 
ENDBRANCH  20  21
ENDBRANCH  19  20
ENDBRANCH   1  19
BRANCH   1  23
HETATM   23  C   UNL     1     -40.733  54.825 -52.138  1.00  0.00     0.164 C 
BRANCH  23  24
HETATM   24  C   UNL     1     -40.443  53.458 -52.718  1.00  0.00    -0.038 A 
HETATM   25  C   UNL     1     -40.604  53.150 -54.074  1.00  0.00     0.009 A 
HETATM   26  C   UNL     1     -40.303  51.874 -54.552  1.00  0.00     0.003 A 
HETATM   27  C   UNL     1     -39.825  50.897 -53.679  1.00  0.00     0.037 A 
HETATM   28  C   UNL     1     -39.637  51.184 -52.328  1.00  0.00     0.068 A 
HETATM   29  C   UNL     1     -39.947  52.460 -51.854  1.00  0.00     0.045 A 
BRANCH  28  30
HETATM   30  O   UNL     1     -39.152  50.144 -51.582  1.00  0.00    -0.356 OA
HETATM   31  C   UNL     1     -39.884  49.791 -50.415  1.00  0.00     0.210 C 
ENDBRANCH  28  30
ENDBRANCH  23  24
ENDBRANCH   1  23
TORSDOF 8
ENDMDL
MODEL 2
REMARK VINA RESULT:      -7.7      3.507      8.098
REMARK  8 active torsions:
REMARK  status: ('A' for Active; 'I' for Inactive)
REMARK    1  A    between atoms: O_2  and  C_3 
REMARK    2  A    between atoms: C_3  and  C_4 
REMARK    3  A    between atoms: C_4  and  N_5 
REMARK    4  A    between atoms: N_5  and  C_6 
REMARK       I    between atoms: N_5  and  C_15 
REMARK    5  A    between atoms: C_6  and  C_7 
REMARK    6  A    between atoms: C_11  and  O_12 
REMARK    7  A    between atoms: C_15  and  C_17 
REMARK    8  A    between atoms: C_22  and  C_26 
ROOT
HETATM    1  N   UNL     1     -43.671  58.744 -53.587  1.00  0.00    -0.340 N 
HETATM    2  C   UNL     1     -42.478  58.419 -52.903  1.00  0.00     0.279 C 
HETATM    3  O   UNL     1     -41.952  59.254 -52.162  1.00  0.00    -0.265 OA
ENDROOT
BRANCH   2   4
HETATM    4  C   UNL     1     -41.875  57.089 -53.077  1.00  0.00     0.166 A 
HETATM    5  N   UNL     1     -41.306  56.643 -54.180  1.00  0.00    -0.235 NA
HETATM    6  C   UNL     1     -40.891  55.335 -54.007  1.00  0.00     0.075 A 
HETATM    7  C   UNL     1     -40.279  54.524 -54.980  1.00  0.00     0.034 A 
HETATM    8  C   UNL     1     -41.130  54.796 -52.743  1.00  0.00     0.036 A 
HETATM    9  C   UNL     1     -39.939  53.198 -54.670  1.00  0.00     0.014 A 
HETATM   10  C   UNL     1     -40.192  52.665 -53.401  1.00  0.00    -0.022 A 
HETATM   11  C   UNL     1     -40.789  53.471 -52.419  1.00  0.00     0.033 A 
HETATM   12  S   UNL     1     -41.872  55.991 -51.755  1.00  0.00    -0.063 SA
BRANCH  10  13
HETATM   13  C   UNL     1     -39.868  51.283 -53.088  1.00  0.00     0.010 A 
HETATM   14  C   UNL     1     -39.778  50.143 -53.923  1.00  0.00     0.152 A 
HETATM   15  N   UNL     1     -39.464  49.033 -53.252  1.00  0.00    -0.187 NA
HETATM   16  N   UNL     1     -39.355  49.453 -51.983  1.00  0.00    -0.289 N 
HETATM   17  H   UNL     1     -39.122  48.771 -51.269  1.00  0.00     0.188 HD
HETATM   18  C   UNL     1     -39.586  50.791 -51.832  1.00  0.00     0.123 A 
ENDBRANCH  10  13
ENDBRANCH   2   4
BRANCH   1  19
HETATM   19  C   UNL     1     -44.309  60.061 -53.415  1.00  0.00     0.152 C 
BRANCH  19  20
HETATM   20  C   UNL     1     -44.153  61.120 -54.514  1.00  0.00     0.187 C 
BRANCH  20  21
HETATM   21  O   UNL     1     -42.935  60.863 -55.226  1.00  0.00    -0.394 OA
HETATM   22  C   UNL     1     -43.125  60.976 -56.632  1.00  0.00     0.201 C 
ENDBRANCH  20  21
ENDBRANCH  19  20
ENDBRANCH   1  19
BRANCH   1  23
HETATM   23  C   UNL     1     -44.555  57.711 -54.143  1.00  0.00     0.164 C 
BRANCH  23  24
HETATM   24  C   UNL     1     -44.731  57.734 -55.646  1.00  0.00    -0.038 A 
HETATM   25  C   UNL     1     -45.860  58.268 -56.278  1.00  0.00     0.009 A 
HETATM   26  C   UNL     1     -45.956  58.276 -57.669  1.00  0.00     0.003 A 
HETATM   27  C   UNL     1     -44.916  57.763 -58.444  1.00  0.00     0.037 A 
HETATM   28  C   UNL     1     -43.772  57.243 -57.839  1.00  0.00     0.068 A 
HETATM   29  C   UNL     1     -43.685  57.231 -56.446  1.00  0.00     0.045 A 
BRANCH  28  30
HETATM   30  O   UNL     1     -42.822  56.783 -58.710  1.00  0.00    -0.356 OA
HETATM   31  C   UNL     1     -43.207  55.732 -59.588  1.00  0.00     0.210 C 
ENDBRANCH  28  30
ENDBRANCH  23  24
ENDBRANCH   1  23
TORSDOF 8
ENDMDL
MODEL 3
REMARK VINA RESULT:      -7.7      3.513      8.034
REMARK  8 active torsions:
REMARK  status: ('A' for Active; 'I' for Inactive)
REMARK    1  A    between atoms: O_2  and  C_3 
REMARK    2  A    between atoms: C_3  and  C_4 
REMARK    3  A    between atoms: C_4  and  N_5 
REMARK    4  A    between atoms: N_5  and  C_6 
REMARK       I    between atoms: N_5  and  C_15 
REMARK    5  A    between atoms: C_6  and  C_7 
REMARK    6  A    between atoms: C_11  and  O_12 
REMARK    7  A    between atoms: C_15  and  C_17 
REMARK    8  A    between atoms: C_22  and  C_26 
ROOT
HETATM    1  N   UNL     1     -43.651  58.767 -53.765  1.00  0.00    -0.340 N 
HETATM    2  C   UNL     1     -42.465  58.453 -53.064  1.00  0.00     0.279 C 
HETATM    3  O   UNL     1     -41.939  59.302 -52.340  1.00  0.00    -0.265 OA
ENDROOT
BRANCH   2   4
HETATM    4  C   UNL     1     -41.868  57.115 -53.201  1.00  0.00     0.166 A 
HETATM    5  N   UNL     1     -41.328  56.626 -54.299  1.00  0.00    -0.235 NA
HETATM    6  C   UNL     1     -40.911  55.324 -54.086  1.00  0.00     0.075 A 
HETATM    7  C   UNL     1     -40.323  54.474 -55.042  1.00  0.00     0.034 A 
HETATM    8  C   UNL     1     -41.119  54.835 -52.797  1.00  0.00     0.036 A 
HETATM    9  C   UNL     1     -39.978  53.161 -54.689  1.00  0.00     0.014 A 
HETATM   10  C   UNL     1     -40.201  52.677 -53.395  1.00  0.00    -0.022 A 
HETATM   11  C   UNL     1     -40.772  53.522 -52.430  1.00  0.00     0.033 A 
HETATM   12  S   UNL     1     -41.834  56.069 -51.838  1.00  0.00    -0.063 SA
BRANCH  10  13
HETATM   13  C   UNL     1     -39.871  51.308 -53.037  1.00  0.00     0.010 A 
HETATM   14  C   UNL     1     -39.777  50.142 -53.834  1.00  0.00     0.152 A 
HETATM   15  N   UNL     1     -39.458  49.055 -53.127  1.00  0.00    -0.187 NA
HETATM   16  N   UNL     1     -39.352  49.517 -51.873  1.00  0.00    -0.289 N 
HETATM   17  H   UNL     1     -39.117  48.860 -51.136  1.00  0.00     0.188 HD
HETATM   18  C   UNL     1     -39.588  50.859 -51.766  1.00  0.00     0.123 A 
ENDBRANCH  10  13
ENDBRANCH   2   4
BRANCH   1  19
HETATM   19  C   UNL     1     -44.282  60.091 -53.630  1.00  0.00     0.152 C 
BRANCH  19  20
HETATM   20  C   UNL     1     -45.559  60.234 -52.792  1.00  0.00     0.187 C 
BRANCH  20  21
HETATM   21  O   UNL     1     -45.188  60.387 -51.416  1.00  0.00    -0.394 OA
HETATM   22  C   UNL     1     -45.581  59.258 -50.644  1.00  0.00     0.201 C 
ENDBRANCH  20  21
ENDBRANCH  19  20
ENDBRANCH   1  19
BRANCH   1  23
HETATM   23  C   UNL     1     -44.537  57.726 -54.301  1.00  0.00     0.164 C 
BRANCH  23  24
HETATM   24  C   UNL     1     -44.829  57.811 -55.784  1.00  0.00    -0.038 A 
HETATM   25  C   UNL     1     -46.066  58.217 -56.300  1.00  0.00     0.009 A 
HETATM   26  C   UNL     1     -46.269  58.291 -57.678  1.00  0.00     0.003 A 
HETATM   27  C   UNL     1     -45.231  57.974 -58.555  1.00  0.00     0.037 A 
HETATM   28  C   UNL     1     -43.984  57.586 -58.066  1.00  0.00     0.068 A 
HETATM   29  C   UNL     1     -43.789  57.506 -56.686  1.00  0.00     0.045 A 
BRANCH  28  30
HETATM   30  O   UNL     1     -43.050  57.315 -59.029  1.00  0.00    -0.356 OA
HETATM   31  C   UNL     1     -43.531  57.092 -60.349  1.00  0.00     0.210 C 
ENDBRANCH  28  30
ENDBRANCH  23  24
ENDBRANCH   1  23
TORSDOF 8
ENDMDL
MODEL 4
REMARK VINA RESULT:      -7.3      3.149      3.789
REMARK  8 active torsions:
REMARK  status: ('A' for Active; 'I' for Inactive)
REMARK    1  A    between atoms: O_2  and  C_3 
REMARK    2  A    between atoms: C_3  and  C_4 
REMARK    3  A    between atoms: C_4  and  N_5 
REMARK    4  A    between atoms: N_5  and  C_6 
REMARK       I    between atoms: N_5  and  C_15 
REMARK    5  A    between atoms: C_6  and  C_7 
REMARK    6  A    between atoms: C_11  and  O_12 
REMARK    7  A    between atoms: C_15  and  C_17 
REMARK    8  A    between atoms: C_22  and  C_26 
ROOT
HETATM    1  N   UNL     1     -41.791  57.599 -52.621  1.00  0.00    -0.340 N 
HETATM    2  C   UNL     1     -41.534  58.207 -53.870  1.00  0.00     0.279 C 
HETATM    3  O   UNL     1     -40.635  59.047 -53.968  1.00  0.00    -0.265 OA
ENDROOT
BRANCH   2   4
HETATM    4  C   UNL     1     -42.336  57.832 -55.044  1.00  0.00     0.166 A 
HETATM    5  N   UNL     1     -42.065  56.845 -55.875  1.00  0.00    -0.235 NA
HETATM    6  C   UNL     1     -43.001  56.808 -56.892  1.00  0.00     0.075 A 
HETATM    7  C   UNL     1     -43.010  55.912 -57.979  1.00  0.00     0.034 A 
HETATM    8  C   UNL     1     -44.008  57.770 -56.813  1.00  0.00     0.036 A 
HETATM    9  C   UNL     1     -44.010  56.014 -58.958  1.00  0.00     0.014 A 
HETATM   10  C   UNL     1     -45.009  56.990 -58.873  1.00  0.00    -0.022 A 
HETATM   11  C   UNL     1     -45.018  57.877 -57.785  1.00  0.00     0.033 A 
HETATM   12  S   UNL     1     -43.767  58.716 -55.399  1.00  0.00    -0.063 SA
BRANCH  10  13
HETATM   13  C   UNL     1     -46.028  57.114 -59.902  1.00  0.00     0.010 A 
HETATM   14  C   UNL     1     -46.719  56.125 -60.642  1.00  0.00     0.152 A 
HETATM   15  N   UNL     1     -47.582  56.643 -61.519  1.00  0.00    -0.187 NA
HETATM   16  N   UNL     1     -47.446  57.966 -61.350  1.00  0.00    -0.289 N 
HETATM   17  H   UNL     1     -48.009  58.586 -61.924  1.00  0.00     0.188 HD
HETATM   18  C   UNL     1     -46.529  58.300 -60.393  1.00  0.00     0.123 A 
ENDBRANCH  10  13
ENDBRANCH   2   4
BRANCH   1  19
HETATM   19  C   UNL     1     -40.990  57.940 -51.433  1.00  0.00     0.152 C 
BRANCH  19  20
HETATM   20  C   UNL     1     -41.425  59.112 -50.544  1.00  0.00     0.187 C 
BRANCH  20  21
HETATM   21  O   UNL     1     -40.259  59.676 -49.929  1.00  0.00    -0.394 OA
HETATM   22  C   UNL     1     -39.100  59.469 -50.729  1.00  0.00     0.201 C 
ENDBRANCH  20  21
ENDBRANCH  19  20
ENDBRANCH   1  19
BRANCH   1  23
HETATM   23  C   UNL     1     -42.535  56.338 -52.509  1.00  0.00     0.164 C 
BRANCH  23  24
HETATM   24  C   UNL     1     -41.694  55.092 -52.333  1.00  0.00    -0.038 A 
HETATM   25  C   UNL     1     -41.294  54.606 -51.082  1.00  0.00     0.009 A 
HETATM   26  C   UNL     1     -40.532  53.442 -50.985  1.00  0.00     0.003 A 
HETATM   27  C   UNL     1     -40.176  52.741 -52.137  1.00  0.00     0.037 A 
HETATM   28  C   UNL     1     -40.579  53.193 -53.393  1.00  0.00     0.068 A 
HETATM   29  C   UNL     1     -41.334  54.364 -53.486  1.00  0.00     0.045 A 
BRANCH  28  30
HETATM   30  O   UNL     1     -40.174  52.411 -54.441  1.00  0.00    -0.356 OA
HETATM   31  C   UNL     1     -39.844  51.059 -54.146  1.00  0.00     0.210 C 
ENDBRANCH  28  30
ENDBRANCH  23  24
ENDBRANCH   1  23
TORSDOF 8
ENDMDL
MODEL 5
REMARK VINA RESULT:      -7.3      3.273      3.767
REMARK  8 active torsions:
REMARK  status: ('A' for Active; 'I' for Inactive)
REMARK    1  A    between atoms: O_2  and  C_3 
REMARK    2  A    between atoms: C_3  and  C_4 
REMARK    3  A    between atoms: C_4  and  N_5 
REMARK    4  A    between atoms: N_5  and  C_6 
REMARK       I    between atoms: N_5  and  C_15 
REMARK    5  A    between atoms: C_6  and  C_7 
REMARK    6  A    between atoms: C_11  and  O_12 
REMARK    7  A    between atoms: C_15  and  C_17 
REMARK    8  A    between atoms: C_22  and  C_26 
ROOT
HETATM    1  N   UNL     1     -41.927  57.609 -53.209  1.00  0.00    -0.340 N 
HETATM    2  C   UNL     1     -41.976  58.550 -54.262  1.00  0.00     0.279 C 
HETATM    3  O   UNL     1     -41.149  59.465 -54.303  1.00  0.00    -0.265 OA
ENDROOT
BRANCH   2   4
HETATM    4  C   UNL     1     -43.009  58.429 -55.302  1.00  0.00     0.166 A 
HETATM    5  N   UNL     1     -44.289  58.704 -55.147  1.00  0.00    -0.235 NA
HETATM    6  C   UNL     1     -44.979  58.431 -56.314  1.00  0.00     0.075 A 
HETATM    7  C   UNL     1     -46.367  58.567 -56.508  1.00  0.00     0.034 A 
HETATM    8  C   UNL     1     -44.201  57.966 -57.373  1.00  0.00     0.036 A 
HETATM    9  C   UNL     1     -46.936  58.221 -57.742  1.00  0.00     0.014 A 
HETATM   10  C   UNL     1     -46.146  57.746 -58.795  1.00  0.00    -0.022 A 
HETATM   11  C   UNL     1     -44.759  57.622 -58.617  1.00  0.00     0.033 A 
HETATM   12  S   UNL     1     -42.557  57.905 -56.875  1.00  0.00    -0.063 SA
BRANCH  10  13
HETATM   13  C   UNL     1     -46.738  57.359 -60.065  1.00  0.00     0.010 A 
HETATM   14  C   UNL     1     -46.761  56.111 -60.732  1.00  0.00     0.152 A 
HETATM   15  N   UNL     1     -47.402  56.160 -61.902  1.00  0.00    -0.187 NA
HETATM   16  N   UNL     1     -47.790  57.440 -61.993  1.00  0.00    -0.289 N 
HETATM   17  H   UNL     1     -48.304  57.730 -62.820  1.00  0.00     0.188 HD
HETATM   18  C   UNL     1     -47.419  58.199 -60.919  1.00  0.00     0.123 A 
ENDBRANCH  10  13
ENDBRANCH   2   4
BRANCH   1  19
HETATM   19  C   UNL     1     -40.890  57.694 -52.165  1.00  0.00     0.152 C 
BRANCH  19  20
HETATM   20  C   UNL     1     -41.283  57.486 -50.697  1.00  0.00     0.187 C 
BRANCH  20  21
HETATM   21  O   UNL     1     -40.578  56.344 -50.193  1.00  0.00    -0.394 OA
HETATM   22  C   UNL     1     -41.426  55.520 -49.401  1.00  0.00     0.201 C 
ENDBRANCH  20  21
ENDBRANCH  19  20
ENDBRANCH   1  19
BRANCH   1  23
HETATM   23  C   UNL     1     -42.586  56.300 -53.305  1.00  0.00     0.164 C 
BRANCH  23  24
HETATM   24  C   UNL     1     -41.695  55.143 -53.703  1.00  0.00    -0.038 A 
HETATM   25  C   UNL     1     -41.066  55.054 -54.951  1.00  0.00     0.009 A 
HETATM   26  C   UNL     1     -40.243  53.969 -55.254  1.00  0.00     0.003 A 
HETATM   27  C   UNL     1     -40.028  52.969 -54.305  1.00  0.00     0.037 A 
HETATM   28  C   UNL     1     -40.627  53.046 -53.048  1.00  0.00     0.068 A 
HETATM   29  C   UNL     1     -41.456  54.129 -52.753  1.00  0.00     0.045 A 
BRANCH  28  30
HETATM   30  O   UNL     1     -40.326  52.009 -52.206  1.00  0.00    -0.356 OA
HETATM   31  C   UNL     1     -39.466  50.996 -52.713  1.00  0.00     0.210 C 
ENDBRANCH  28  30
ENDBRANCH  23  24
ENDBRANCH   1  23
TORSDOF 8
ENDMDL
MODEL 6
REMARK VINA RESULT:      -7.2      3.314      8.251
REMARK  8 active torsions:
REMARK  status: ('A' for Active; 'I' for Inactive)
REMARK    1  A    between atoms: O_2  and  C_3 
REMARK    2  A    between atoms: C_3  and  C_4 
REMARK    3  A    between atoms: C_4  and  N_5 
REMARK    4  A    between atoms: N_5  and  C_6 
REMARK       I    between atoms: N_5  and  C_15 
REMARK    5  A    between atoms: C_6  and  C_7 
REMARK    6  A    between atoms: C_11  and  O_12 
REMARK    7  A    between atoms: C_15  and  C_17 
REMARK    8  A    between atoms: C_22  and  C_26 
ROOT
HETATM    1  N   UNL     1     -43.479  58.693 -55.427  1.00  0.00    -0.340 N 
HETATM    2  C   UNL     1     -44.105  57.666 -54.685  1.00  0.00     0.279 C 
HETATM    3  O   UNL     1     -45.306  57.750 -54.418  1.00  0.00    -0.265 OA
ENDROOT
BRANCH   2   4
HETATM    4  C   UNL     1     -43.320  56.505 -54.240  1.00  0.00     0.166 A 
HETATM    5  N   UNL     1     -42.523  56.475 -53.190  1.00  0.00    -0.235 NA
HETATM    6  C   UNL     1     -41.906  55.240 -53.095  1.00  0.00     0.075 A 
HETATM    7  C   UNL     1     -40.963  54.857 -52.124  1.00  0.00     0.034 A 
HETATM    8  C   UNL     1     -42.264  54.318 -54.078  1.00  0.00     0.036 A 
HETATM    9  C   UNL     1     -40.394  53.575 -52.171  1.00  0.00     0.014 A 
HETATM   10  C   UNL     1     -40.753  52.661 -53.168  1.00  0.00    -0.022 A 
HETATM   11  C   UNL     1     -41.705  53.029 -54.132  1.00  0.00     0.033 A 
HETATM   12  S   UNL     1     -43.428  55.033 -55.120  1.00  0.00    -0.063 SA
BRANCH  10  13
HETATM   13  C   UNL     1     -40.143  51.344 -53.235  1.00  0.00     0.010 A 
HETATM   14  C   UNL     1     -39.941  50.474 -54.333  1.00  0.00     0.152 A 
HETATM   15  N   UNL     1     -39.349  49.329 -53.986  1.00  0.00    -0.187 NA
HETATM   16  N   UNL     1     -39.172  49.456 -52.663  1.00  0.00    -0.289 N 
HETATM   17  H   UNL     1     -38.735  48.691 -52.160  1.00  0.00     0.188 HD
HETATM   18  C   UNL     1     -39.629  50.644 -52.165  1.00  0.00     0.123 A 
ENDBRANCH  10  13
ENDBRANCH   2   4
BRANCH   1  19
HETATM   19  C   UNL     1     -44.245  59.858 -55.904  1.00  0.00     0.152 C 
BRANCH  19  20
HETATM   20  C   UNL     1     -43.706  61.270 -55.642  1.00  0.00     0.187 C 
BRANCH  20  21
HETATM   21  O   UNL     1     -44.126  61.684 -54.336  1.00  0.00    -0.394 OA
HETATM   22  C   UNL     1     -43.011  61.907 -53.480  1.00  0.00     0.201 C 
ENDBRANCH  20  21
ENDBRANCH  19  20
ENDBRANCH   1  19
BRANCH   1  23
HETATM   23  C   UNL     1     -42.200  58.485 -56.118  1.00  0.00     0.164 C 
BRANCH  23  24
HETATM   24  C   UNL     1     -42.283  58.324 -57.621  1.00  0.00    -0.038 A 
HETATM   25  C   UNL     1     -41.924  59.334 -58.522  1.00  0.00     0.009 A 
HETATM   26  C   UNL     1     -42.007  59.118 -59.897  1.00  0.00     0.003 A 
HETATM   27  C   UNL     1     -42.437  57.885 -60.387  1.00  0.00     0.037 A 
HETATM   28  C   UNL     1     -42.782  56.857 -59.510  1.00  0.00     0.068 A 
HETATM   29  C   UNL     1     -42.704  57.080 -58.134  1.00  0.00     0.045 A 
BRANCH  28  30
HETATM   30  O   UNL     1     -43.175  55.694 -60.117  1.00  0.00    -0.356 OA
HETATM   31  C   UNL     1     -44.486  55.667 -60.669  1.00  0.00     0.210 C 
ENDBRANCH  28  30
ENDBRANCH  23  24
ENDBRANCH   1  23
TORSDOF 8
ENDMDL
MODEL 7
REMARK VINA RESULT:      -7.0      3.596      8.154
REMARK  8 active torsions:
REMARK  status: ('A' for Active; 'I' for Inactive)
REMARK    1  A    between atoms: O_2  and  C_3 
REMARK    2  A    between atoms: C_3  and  C_4 
REMARK    3  A    between atoms: C_4  and  N_5 
REMARK    4  A    between atoms: N_5  and  C_6 
REMARK       I    between atoms: N_5  and  C_15 
REMARK    5  A    between atoms: C_6  and  C_7 
REMARK    6  A    between atoms: C_11  and  O_12 
REMARK    7  A    between atoms: C_15  and  C_17 
REMARK    8  A    between atoms: C_22  and  C_26 
ROOT
HETATM    1  N   UNL     1     -43.195  59.091 -54.787  1.00  0.00    -0.340 N 
HETATM    2  C   UNL     1     -43.633  57.798 -55.150  1.00  0.00     0.279 C 
HETATM    3  O   UNL     1     -44.698  57.660 -55.756  1.00  0.00    -0.265 OA
ENDROOT
BRANCH   2   4
HETATM    4  C   UNL     1     -42.814  56.626 -54.805  1.00  0.00     0.166 A 
HETATM    5  N   UNL     1     -41.890  56.083 -55.572  1.00  0.00    -0.235 NA
HETATM    6  C   UNL     1     -41.352  54.968 -54.955  1.00  0.00     0.075 A 
HETATM    7  C   UNL     1     -40.369  54.115 -55.492  1.00  0.00     0.034 A 
HETATM    8  C   UNL     1     -41.864  54.681 -53.690  1.00  0.00     0.036 A 
HETATM    9  C   UNL     1     -39.941  52.997 -54.761  1.00  0.00     0.014 A 
HETATM   10  C   UNL     1     -40.469  52.714 -53.497  1.00  0.00    -0.022 A 
HETATM   11  C   UNL     1     -41.438  53.567 -52.946  1.00  0.00     0.033 A 
HETATM   12  S   UNL     1     -43.030  55.874 -53.275  1.00  0.00    -0.063 SA
BRANCH  10  13
HETATM   13  C   UNL     1     -40.046  51.540 -52.752  1.00  0.00     0.010 A 
HETATM   14  C   UNL     1     -39.791  50.216 -53.181  1.00  0.00     0.152 A 
HETATM   15  N   UNL     1     -39.430  49.407 -52.182  1.00  0.00    -0.187 NA
HETATM   16  N   UNL     1     -39.458  50.207 -51.106  1.00  0.00    -0.289 N 
HETATM   17  H   UNL     1     -39.221  49.807 -50.203  1.00  0.00     0.188 HD
HETATM   18  C   UNL     1     -39.819  51.493 -51.393  1.00  0.00     0.123 A 
ENDBRANCH  10  13
ENDBRANCH   2   4
BRANCH   1  19
HETATM   19  C   UNL     1     -43.985  60.284 -55.139  1.00  0.00     0.152 C 
BRANCH  19  20
HETATM   20  C   UNL     1     -43.709  61.004 -56.465  1.00  0.00     0.187 C 
BRANCH  20  21
HETATM   21  O   UNL     1     -44.678  60.571 -57.429  1.00  0.00    -0.394 OA
HETATM   22  C   UNL     1     -44.063  60.257 -58.674  1.00  0.00     0.201 C 
ENDBRANCH  20  21
ENDBRANCH  19  20
ENDBRANCH   1  19
BRANCH   1  23
HETATM   23  C   UNL     1     -41.795  59.371 -54.445  1.00  0.00     0.164 C 
BRANCH  23  24
HETATM   24  C   UNL     1     -41.494  59.508 -52.967  1.00  0.00    -0.038 A 
HETATM   25  C   UNL     1     -42.451  59.900 -52.023  1.00  0.00     0.009 A 
HETATM   26  C   UNL     1     -42.116  59.992 -50.672  1.00  0.00     0.003 A 
HETATM   27  C   UNL     1     -40.824  59.678 -50.249  1.00  0.00     0.037 A 
HETATM   28  C   UNL     1     -39.859  59.267 -51.168  1.00  0.00     0.068 A 
HETATM   29  C   UNL     1     -40.197  59.184 -52.520  1.00  0.00     0.045 A 
BRANCH  28  30
HETATM   30  O   UNL     1     -38.636  58.978 -50.624  1.00  0.00    -0.356 OA
HETATM   31  C   UNL     1     -38.009  60.005 -49.866  1.00  0.00     0.210 C 
ENDBRANCH  28  30
ENDBRANCH  23  24
ENDBRANCH   1  23
TORSDOF 8
ENDMDL
MODEL 8
REMARK VINA RESULT:      -7.0      3.311      7.907
REMARK  8 active torsions:
REMARK  status: ('A' for Active; 'I' for Inactive)
REMARK    1  A    between atoms: O_2  and  C_3 
REMARK    2  A    between atoms: C_3  and  C_4 
REMARK    3  A    between atoms: C_4  and  N_5 
REMARK    4  A    between atoms: N_5  and  C_6 
REMARK       I    between atoms: N_5  and  C_15 
REMARK    5  A    between atoms: C_6  and  C_7 
REMARK    6  A    between atoms: C_11  and  O_12 
REMARK    7  A    between atoms: C_15  and  C_17 
REMARK    8  A    between atoms: C_22  and  C_26 
ROOT
HETATM    1  N   UNL     1     -42.897  59.000 -53.190  1.00  0.00    -0.340 N 
HETATM    2  C   UNL     1     -43.495  57.927 -52.490  1.00  0.00     0.279 C 
HETATM    3  O   UNL     1     -44.624  58.063 -52.011  1.00  0.00    -0.265 OA
ENDROOT
BRANCH   2   4
HETATM    4  C   UNL     1     -42.768  56.657 -52.341  1.00  0.00     0.166 A 
HETATM    5  N   UNL     1     -41.862  56.396 -51.420  1.00  0.00    -0.235 NA
HETATM    6  C   UNL     1     -41.348  55.125 -51.605  1.00  0.00     0.075 A 
HETATM    7  C   UNL     1     -40.335  54.520 -50.836  1.00  0.00     0.034 A 
HETATM    8  C   UNL     1     -41.895  54.409 -52.669  1.00  0.00     0.036 A 
HETATM    9  C   UNL     1     -39.889  53.231 -51.161  1.00  0.00     0.014 A 
HETATM   10  C   UNL     1     -40.439  52.525 -52.237  1.00  0.00    -0.022 A 
HETATM   11  C   UNL     1     -41.460  53.113 -53.000  1.00  0.00     0.033 A 
HETATM   12  S   UNL     1     -43.104  55.367 -53.425  1.00  0.00    -0.063 SA
BRANCH  10  13
HETATM   13  C   UNL     1     -39.957  51.201 -52.592  1.00  0.00     0.010 A 
HETATM   14  C   UNL     1     -39.797  50.584 -53.856  1.00  0.00     0.152 A 
HETATM   15  N   UNL     1     -39.333  49.335 -53.769  1.00  0.00    -0.187 NA
HETATM   16  N   UNL     1     -39.199  49.142 -52.448  1.00  0.00    -0.289 N 
HETATM   17  H   UNL     1     -38.859  48.242 -52.126  1.00  0.00     0.188 HD
HETATM   18  C   UNL     1     -39.558  50.228 -51.701  1.00  0.00     0.123 A 
ENDBRANCH  10  13
ENDBRANCH   2   4
BRANCH   1  19
HETATM   19  C   UNL     1     -43.611  60.276 -53.372  1.00  0.00     0.152 C 
BRANCH  19  20
HETATM   20  C   UNL     1     -43.245  61.474 -52.487  1.00  0.00     0.187 C 
BRANCH  20  21
HETATM   21  O   UNL     1     -42.537  60.993 -51.337  1.00  0.00    -0.394 OA
HETATM   22  C   UNL     1     -43.323  61.116 -50.157  1.00  0.00     0.201 C 
ENDBRANCH  20  21
ENDBRANCH  19  20
ENDBRANCH   1  19
BRANCH   1  23
HETATM   23  C   UNL     1     -41.773  58.796 -54.112  1.00  0.00     0.164 C 
BRANCH  23  24
HETATM   24  C   UNL     1     -42.122  58.801 -55.585  1.00  0.00    -0.038 A 
HETATM   25  C   UNL     1     -41.945  59.917 -56.412  1.00  0.00     0.009 A 
HETATM   26  C   UNL     1     -42.270  59.853 -57.767  1.00  0.00     0.003 A 
HETATM   27  C   UNL     1     -42.762  58.668 -58.313  1.00  0.00     0.037 A 
HETATM   28  C   UNL     1     -42.929  57.537 -57.514  1.00  0.00     0.068 A 
HETATM   29  C   UNL     1     -42.609  57.608 -56.157  1.00  0.00     0.045 A 
BRANCH  28  30
HETATM   30  O   UNL     1     -43.407  56.436 -58.173  1.00  0.00    -0.356 OA
HETATM   31  C   UNL     1     -42.774  56.094 -59.400  1.00  0.00     0.210 C 
ENDBRANCH  28  30
ENDBRANCH  23  24
ENDBRANCH   1  23
TORSDOF 8
ENDMDL
MODEL 9
REMARK VINA RESULT:      -6.9      3.828      8.175
REMARK  8 active torsions:
REMARK  status: ('A' for Active; 'I' for Inactive)
REMARK    1  A    between atoms: O_2  and  C_3 
REMARK    2  A    between atoms: C_3  and  C_4 
REMARK    3  A    between atoms: C_4  and  N_5 
REMARK    4  A    between atoms: N_5  and  C_6 
REMARK       I    between atoms: N_5  and  C_15 
REMARK    5  A    between atoms: C_6  and  C_7 
REMARK    6  A    between atoms: C_11  and  O_12 
REMARK    7  A    between atoms: C_15  and  C_17 
REMARK    8  A    between atoms: C_22  and  C_26 
ROOT
HETATM    1  N   UNL     1     -43.410  59.131 -54.949  1.00  0.00    -0.340 N 
HETATM    2  C   UNL     1     -43.842  57.816 -55.236  1.00  0.00     0.279 C 
HETATM    3  O   UNL     1     -44.932  57.637 -55.785  1.00  0.00    -0.265 OA
ENDROOT
BRANCH   2   4
HETATM    4  C   UNL     1     -42.987  56.673 -54.882  1.00  0.00     0.166 A 
HETATM    5  N   UNL     1     -42.024  56.174 -55.632  1.00  0.00    -0.235 NA
HETATM    6  C   UNL     1     -41.460  55.073 -55.012  1.00  0.00     0.075 A 
HETATM    7  C   UNL     1     -40.433  54.265 -55.533  1.00  0.00     0.034 A 
HETATM    8  C   UNL     1     -41.992  54.754 -53.763  1.00  0.00     0.036 A 
HETATM    9  C   UNL     1     -39.979  53.156 -54.803  1.00  0.00     0.014 A 
HETATM   10  C   UNL     1     -40.527  52.839 -53.555  1.00  0.00    -0.022 A 
HETATM   11  C   UNL     1     -41.541  53.649 -53.020  1.00  0.00     0.033 A 
HETATM   12  S   UNL     1     -43.212  55.897 -53.365  1.00  0.00    -0.063 SA
BRANCH  10  13
HETATM   13  C   UNL     1     -40.078  51.674 -52.811  1.00  0.00     0.010 A 
HETATM   14  C   UNL     1     -39.893  50.332 -53.219  1.00  0.00     0.152 A 
HETATM   15  N   UNL     1     -39.476  49.541 -52.228  1.00  0.00    -0.187 NA
HETATM   16  N   UNL     1     -39.397  50.370 -51.178  1.00  0.00    -0.289 N 
HETATM   17  H   UNL     1     -39.100  49.989 -50.285  1.00  0.00     0.188 HD
HETATM   18  C   UNL     1     -39.745  51.658 -51.473  1.00  0.00     0.123 A 
ENDBRANCH  10  13
ENDBRANCH   2   4
BRANCH   1  19
HETATM   19  C   UNL     1     -44.236  60.296 -55.311  1.00  0.00     0.152 C 
BRANCH  19  20
HETATM   20  C   UNL     1     -45.359  60.743 -54.367  1.00  0.00     0.187 C 
BRANCH  20  21
HETATM   21  O   UNL     1     -45.354  62.176 -54.299  1.00  0.00    -0.394 OA
HETATM   22  C   UNL     1     -45.673  62.633 -52.990  1.00  0.00     0.201 C 
ENDBRANCH  20  21
ENDBRANCH  19  20
ENDBRANCH   1  19
BRANCH   1  23
HETATM   23  C   UNL     1     -42.000  59.446 -54.686  1.00  0.00     0.164 C 
BRANCH  23  24
HETATM   24  C   UNL     1     -41.583  59.429 -53.231  1.00  0.00    -0.038 A 
HETATM   25  C   UNL     1     -40.459  58.737 -52.763  1.00  0.00     0.009 A 
HETATM   26  C   UNL     1     -40.117  58.773 -51.411  1.00  0.00     0.003 A 
HETATM   27  C   UNL     1     -40.887  59.515 -50.515  1.00  0.00     0.037 A 
HETATM   28  C   UNL     1     -41.999  60.229 -50.960  1.00  0.00     0.068 A 
HETATM   29  C   UNL     1     -42.342  60.182 -52.312  1.00  0.00     0.045 A 
BRANCH  28  30
HETATM   30  O   UNL     1     -42.661  60.924 -49.984  1.00  0.00    -0.356 OA
HETATM   31  C   UNL     1     -43.080  62.245 -50.306  1.00  0.00     0.210 C 
ENDBRANCH  28  30
ENDBRANCH  23  24
ENDBRANCH   1  23
TORSDOF 8
ENDMDL
MODEL 10
REMARK VINA RESULT:      -6.9      3.416      8.873
REMARK  8 active torsions:
REMARK  status: ('A' for Active; 'I' for Inactive)
REMARK    1  A    between atoms: O_2  and  C_3 
REMARK    2  A    between atoms: C_3  and  C_4 
REMARK    3  A    between atoms: C_4  and  N_5 
REMARK    4  A    between atoms: N_5  and  C_6 
REMARK       I    between atoms: N_5  and  C_15 
REMARK    5  A    between atoms: C_6  and  C_7 
REMARK    6  A    between atoms: C_11  and  O_12 
REMARK    7  A    between atoms: C_15  and  C_17 
REMARK    8  A    between atoms: C_22  and  C_26 
ROOT
HETATM    1  N   UNL     1     -42.891  58.879 -55.467  1.00  0.00    -0.340 N 
HETATM    2  C   UNL     1     -41.808  58.696 -54.577  1.00  0.00     0.279 C 
HETATM    3  O   UNL     1     -41.223  59.680 -54.116  1.00  0.00    -0.265 OA
ENDROOT
BRANCH   2   4
HETATM    4  C   UNL     1     -41.390  57.336 -54.206  1.00  0.00     0.166 A 
HETATM    5  N   UNL     1     -41.003  56.397 -55.046  1.00  0.00    -0.235 NA
HETATM    6  C   UNL     1     -40.729  55.227 -54.360  1.00  0.00     0.075 A 
HETATM    7  C   UNL     1     -40.327  54.005 -54.932  1.00  0.00     0.034 A 
HETATM    8  C   UNL     1     -40.890  55.295 -52.977  1.00  0.00     0.036 A 
HETATM    9  C   UNL     1     -40.115  52.888 -54.110  1.00  0.00     0.014 A 
HETATM   10  C   UNL     1     -40.289  52.965 -52.724  1.00  0.00    -0.022 A 
HETATM   11  C   UNL     1     -40.674  54.184 -52.143  1.00  0.00     0.033 A 
HETATM   12  S   UNL     1     -41.371  56.888 -52.547  1.00  0.00    -0.063 SA
BRANCH  10  13
HETATM   13  C   UNL     1     -40.098  51.801 -51.876  1.00  0.00     0.010 A 
HETATM   14  C   UNL     1     -39.593  50.513 -52.176  1.00  0.00     0.152 A 
HETATM   15  N   UNL     1     -39.586  49.700 -51.117  1.00  0.00    -0.187 NA
HETATM   16  N   UNL     1     -40.091  50.459 -50.135  1.00  0.00    -0.289 N 
HETATM   17  H   UNL     1     -40.192  50.048 -49.212  1.00  0.00     0.188 HD
HETATM   18  C   UNL     1     -40.412  51.725 -50.537  1.00  0.00     0.123 A 
ENDBRANCH  10  13
ENDBRANCH   2   4
BRANCH   1  19
HETATM   19  C   UNL     1     -43.345  60.230 -55.839  1.00  0.00     0.152 C 
BRANCH  19  20
HETATM   20  C   UNL     1     -42.545  61.033 -56.873  1.00  0.00     0.187 C 
BRANCH  20  21
HETATM   21  O   UNL     1     -43.186  60.901 -58.149  1.00  0.00    -0.394 OA
HETATM   22  C   UNL     1     -42.371  60.178 -59.065  1.00  0.00     0.201 C 
ENDBRANCH  20  21
ENDBRANCH  19  20
ENDBRANCH   1  19
BRANCH   1  23
HETATM   23  C   UNL     1     -43.870  57.817 -55.728  1.00  0.00     0.164 C 
BRANCH  23  24
HETATM   24  C   UNL     1     -43.922  57.306 -57.152  1.00  0.00    -0.038 A 
HETATM   25  C   UNL     1     -43.071  56.306 -57.639  1.00  0.00     0.009 A 
HETATM   26  C   UNL     1     -43.179  55.865 -58.958  1.00  0.00     0.003 A 
HETATM   27  C   UNL     1     -44.149  56.409 -59.800  1.00  0.00     0.037 A 
HETATM   28  C   UNL     1     -45.020  57.392 -59.333  1.00  0.00     0.068 A 
HETATM   29  C   UNL     1     -44.903  57.836 -58.014  1.00  0.00     0.045 A 
BRANCH  28  30
HETATM   30  O   UNL     1     -45.932  57.834 -60.253  1.00  0.00    -0.356 OA
HETATM   31  C   UNL     1     -46.123  59.241 -60.347  1.00  0.00     0.210 C 
ENDBRANCH  28  30
ENDBRANCH  23  24
ENDBRANCH   1  23
TORSDOF 8
ENDMDL
