MODEL 1
REMARK VINA RESULT:      -8.4      0.000      0.000
REMARK  5 active torsions:
REMARK  status: ('A' for Active; 'I' for Inactive)
REMARK    1  A    between atoms: C_4  and  C_5 
REMARK    2  A    between atoms: C_5  and  O_6 
REMARK    3  A    between atoms: O_6  and  C_7 
REMARK    4  A    between atoms: C_10  and  N_11 
REMARK       I    between atoms: N_11  and  C_12 
REMARK    5  A    between atoms: C_12  and  C_13 
ROOT
HETATM    1  N   UNL     1     -42.022  55.724 -55.227  1.00  0.00    -0.322 N 
HETATM    2  C   UNL     1     -42.742  55.019 -54.286  1.00  0.00     0.277 C 
HETATM    3  O   UNL     1     -43.920  54.703 -54.305  1.00  0.00    -0.266 OA
HETATM    4  H   UNL     1     -41.017  55.731 -55.075  1.00  0.00     0.169 HD
ENDROOT
BRANCH   1   5
HETATM    5  C   UNL     1     -42.515  56.403 -56.353  1.00  0.00     0.035 A 
HETATM    6  C   UNL     1     -42.930  55.763 -57.520  1.00  0.00     0.032 A 
HETATM    7  C   UNL     1     -43.493  56.503 -58.566  1.00  0.00     0.039 A 
HETATM    8  C   UNL     1     -43.655  57.884 -58.455  1.00  0.00     0.069 A 
HETATM    9  C   UNL     1     -43.191  58.535 -57.314  1.00  0.00     0.039 A 
HETATM   10  C   UNL     1     -42.633  57.795 -56.265  1.00  0.00     0.032 A 
BRANCH   8  11
HETATM   11  O   UNL     1     -44.266  58.483 -59.519  1.00  0.00    -0.347 OA
BRANCH  11  12
HETATM   12  C   UNL     1     -45.585  58.987 -59.289  1.00  0.00     0.214 C 
BRANCH  12  13
HETATM   13  C   UNL     1     -46.559  58.330 -60.241  1.00  0.00    -0.034 A 
HETATM   14  C   UNL     1     -47.348  59.120 -61.091  1.00  0.00     0.009 A 
HETATM   15  C   UNL     1     -48.244  58.529 -61.984  1.00  0.00     0.001 A 
HETATM   16  C   UNL     1     -48.354  57.141 -62.045  1.00  0.00     0.000 A 
HETATM   17  C   UNL     1     -47.563  56.345 -61.220  1.00  0.00     0.001 A 
HETATM   18  C   UNL     1     -46.665  56.934 -60.328  1.00  0.00     0.009 A 
ENDBRANCH  12  13
ENDBRANCH  11  12
ENDBRANCH   8  11
ENDBRANCH   1   5
BRANCH   2  19
HETATM   19  C   UNL     1     -41.870  54.618 -53.097  1.00  0.00     0.156 A 
HETATM   20  N   UNL     1     -41.925  55.410 -52.061  1.00  0.00    -0.166 NA
HETATM   21  N   UNL     1     -41.181  55.083 -50.968  1.00  0.00    -0.242 N 
HETATM   22  C   UNL     1     -40.366  53.984 -50.842  1.00  0.00     0.272 A 
HETATM   23  H   UNL     1     -41.213  55.725 -50.181  1.00  0.00     0.192 HD
HETATM   24  O   UNL     1     -39.720  53.761 -49.825  1.00  0.00    -0.266 OA
HETATM   25  C   UNL     1     -40.324  53.071 -51.997  1.00  0.00     0.046 A 
HETATM   26  C   UNL     1     -41.073  53.372 -53.133  1.00  0.00     0.016 A 
HETATM   27  C   UNL     1     -39.548  51.906 -51.942  1.00  0.00     0.018 A 
HETATM   28  C   UNL     1     -41.060  52.487 -54.217  1.00  0.00     0.015 A 
HETATM   29  C   UNL     1     -40.286  51.323 -54.163  1.00  0.00     0.001 A 
HETATM   30  C   UNL     1     -39.530  51.033 -53.029  1.00  0.00     0.001 A 
ENDBRANCH   2  19
TORSDOF 5
ENDMDL
MODEL 2
REMARK VINA RESULT:      -8.4      5.799      9.594
REMARK  5 active torsions:
REMARK  status: ('A' for Active; 'I' for Inactive)
REMARK    1  A    between atoms: C_4  and  C_5 
REMARK    2  A    between atoms: C_5  and  O_6 
REMARK    3  A    between atoms: O_6  and  C_7 
REMARK    4  A    between atoms: C_10  and  N_11 
REMARK       I    between atoms: N_11  and  C_12 
REMARK    5  A    between atoms: C_12  and  C_13 
ROOT
HETATM    1  N   UNL     1     -44.319  58.485 -50.527  1.00  0.00    -0.322 N 
HETATM    2  C   UNL     1     -45.512  59.155 -50.364  1.00  0.00     0.277 C 
HETATM    3  O   UNL     1     -46.607  58.889 -50.830  1.00  0.00    -0.266 OA
HETATM    4  H   UNL     1     -43.569  58.798 -49.917  1.00  0.00     0.169 HD
ENDROOT
BRANCH   1   5
HETATM    5  C   UNL     1     -44.040  57.432 -51.415  1.00  0.00     0.035 A 
HETATM    6  C   UNL     1     -43.971  57.587 -52.799  1.00  0.00     0.032 A 
HETATM    7  C   UNL     1     -43.601  56.508 -53.610  1.00  0.00     0.039 A 
HETATM    8  C   UNL     1     -43.288  55.270 -53.048  1.00  0.00     0.069 A 
HETATM    9  C   UNL     1     -43.409  55.095 -51.671  1.00  0.00     0.039 A 
HETATM   10  C   UNL     1     -43.775  56.175 -50.859  1.00  0.00     0.032 A 
BRANCH   8  11
HETATM   11  O   UNL     1     -42.888  54.314 -53.938  1.00  0.00    -0.347 OA
BRANCH  11  12
HETATM   12  C   UNL     1     -41.502  54.317 -54.288  1.00  0.00     0.214 C 
BRANCH  12  13
HETATM   13  C   UNL     1     -40.806  53.140 -53.640  1.00  0.00    -0.034 A 
HETATM   14  C   UNL     1     -40.572  51.971 -54.381  1.00  0.00     0.009 A 
HETATM   15  C   UNL     1     -39.922  50.880 -53.801  1.00  0.00     0.001 A 
HETATM   16  C   UNL     1     -39.489  50.948 -52.478  1.00  0.00     0.000 A 
HETATM   17  C   UNL     1     -39.700  52.109 -51.737  1.00  0.00     0.001 A 
HETATM   18  C   UNL     1     -40.348  53.202 -52.316  1.00  0.00     0.009 A 
ENDBRANCH  12  13
ENDBRANCH  11  12
ENDBRANCH   8  11
ENDBRANCH   1   5
BRANCH   2  19
HETATM   19  C   UNL     1     -45.349  60.381 -49.466  1.00  0.00     0.156 A 
HETATM   20  N   UNL     1     -45.882  60.288 -48.278  1.00  0.00    -0.166 NA
HETATM   21  N   UNL     1     -45.746  61.347 -47.433  1.00  0.00    -0.242 N 
HETATM   22  C   UNL     1     -45.089  62.523 -47.708  1.00  0.00     0.272 A 
HETATM   23  H   UNL     1     -46.191  61.270 -46.523  1.00  0.00     0.192 HD
HETATM   24  O   UNL     1     -45.016  63.437 -46.894  1.00  0.00    -0.266 OA
HETATM   25  C   UNL     1     -44.461  62.621 -49.035  1.00  0.00     0.046 A 
HETATM   26  C   UNL     1     -44.578  61.556 -49.926  1.00  0.00     0.016 A 
HETATM   27  C   UNL     1     -43.739  63.769 -49.386  1.00  0.00     0.018 A 
HETATM   28  C   UNL     1     -43.950  61.635 -51.175  1.00  0.00     0.015 A 
HETATM   29  C   UNL     1     -43.230  62.781 -51.527  1.00  0.00     0.001 A 
HETATM   30  C   UNL     1     -43.125  63.847 -50.635  1.00  0.00     0.001 A 
ENDBRANCH   2  19
TORSDOF 5
ENDMDL
MODEL 3
REMARK VINA RESULT:      -8.3     15.620     20.707
REMARK  5 active torsions:
REMARK  status: ('A' for Active; 'I' for Inactive)
REMARK    1  A    between atoms: C_4  and  C_5 
REMARK    2  A    between atoms: C_5  and  O_6 
REMARK    3  A    between atoms: O_6  and  C_7 
REMARK    4  A    between atoms: C_10  and  N_11 
REMARK       I    between atoms: N_11  and  C_12 
REMARK    5  A    between atoms: C_12  and  C_13 
ROOT
HETATM    1  N   UNL     1     -34.953  40.462 -52.229  1.00  0.00    -0.322 N 
HETATM    2  C   UNL     1     -35.488  41.695 -52.531  1.00  0.00     0.277 C 
HETATM    3  O   UNL     1     -35.137  42.797 -52.142  1.00  0.00    -0.266 OA
HETATM    4  H   UNL     1     -35.307  39.695 -52.794  1.00  0.00     0.169 HD
ENDROOT
BRANCH   1   5
HETATM    5  C   UNL     1     -33.984  40.162 -51.257  1.00  0.00     0.035 A 
HETATM    6  C   UNL     1     -34.285  39.630 -50.004  1.00  0.00     0.032 A 
HETATM    7  C   UNL     1     -33.257  39.275 -49.124  1.00  0.00     0.039 A 
HETATM    8  C   UNL     1     -31.920  39.438 -49.489  1.00  0.00     0.069 A 
HETATM    9  C   UNL     1     -31.614  40.021 -50.717  1.00  0.00     0.039 A 
HETATM   10  C   UNL     1     -32.643  40.372 -51.599  1.00  0.00     0.032 A 
BRANCH   8  11
HETATM   11  O   UNL     1     -31.011  39.004 -48.566  1.00  0.00    -0.347 OA
BRANCH  11  12
HETATM   12  C   UNL     1     -31.548  38.475 -47.351  1.00  0.00     0.214 C 
BRANCH  12  13
HETATM   13  C   UNL     1     -30.906  39.161 -46.165  1.00  0.00    -0.034 A 
HETATM   14  C   UNL     1     -30.318  40.426 -46.323  1.00  0.00     0.009 A 
HETATM   15  C   UNL     1     -29.731  41.078 -45.236  1.00  0.00     0.001 A 
HETATM   16  C   UNL     1     -29.735  40.478 -43.978  1.00  0.00     0.000 A 
HETATM   17  C   UNL     1     -30.332  39.231 -43.805  1.00  0.00     0.001 A 
HETATM   18  C   UNL     1     -30.920  38.579 -44.890  1.00  0.00     0.009 A 
ENDBRANCH  12  13
ENDBRANCH  11  12
ENDBRANCH   8  11
ENDBRANCH   1   5
BRANCH   2  19
HETATM   19  C   UNL     1     -36.673  41.574 -53.489  1.00  0.00     0.156 A 
HETATM   20  N   UNL     1     -37.838  41.388 -52.929  1.00  0.00    -0.166 NA
HETATM   21  N   UNL     1     -38.928  41.293 -53.740  1.00  0.00    -0.242 N 
HETATM   22  C   UNL     1     -38.926  41.379 -55.112  1.00  0.00     0.272 A 
HETATM   23  H   UNL     1     -39.822  41.120 -53.290  1.00  0.00     0.192 HD
HETATM   24  O   UNL     1     -39.952  41.277 -55.775  1.00  0.00    -0.266 OA
HETATM   25  C   UNL     1     -37.618  41.619 -55.746  1.00  0.00     0.046 A 
HETATM   26  C   UNL     1     -36.481  41.723 -54.947  1.00  0.00     0.016 A 
HETATM   27  C   UNL     1     -37.529  41.757 -57.137  1.00  0.00     0.018 A 
HETATM   28  C   UNL     1     -35.244  41.986 -55.548  1.00  0.00     0.015 A 
HETATM   29  C   UNL     1     -35.154  42.123 -56.937  1.00  0.00     0.001 A 
HETATM   30  C   UNL     1     -36.293  42.008 -57.731  1.00  0.00     0.001 A 
ENDBRANCH   2  19
TORSDOF 5
ENDMDL
MODEL 4
REMARK VINA RESULT:      -8.3      1.208      1.738
REMARK  5 active torsions:
REMARK  status: ('A' for Active; 'I' for Inactive)
REMARK    1  A    between atoms: C_4  and  C_5 
REMARK    2  A    between atoms: C_5  and  O_6 
REMARK    3  A    between atoms: O_6  and  C_7 
REMARK    4  A    between atoms: C_10  and  N_11 
REMARK       I    between atoms: N_11  and  C_12 
REMARK    5  A    between atoms: C_12  and  C_13 
ROOT
HETATM    1  N   UNL     1     -42.702  55.837 -54.061  1.00  0.00    -0.322 N 
HETATM    2  C   UNL     1     -41.498  56.161 -53.477  1.00  0.00     0.277 C 
HETATM    3  O   UNL     1     -40.743  57.082 -53.742  1.00  0.00    -0.266 OA
HETATM    4  H   UNL     1     -43.234  55.122 -53.571  1.00  0.00     0.169 HD
ENDROOT
BRANCH   1   5
HETATM    5  C   UNL     1     -43.267  56.385 -55.225  1.00  0.00     0.035 A 
HETATM    6  C   UNL     1     -44.154  57.461 -55.220  1.00  0.00     0.032 A 
HETATM    7  C   UNL     1     -44.604  58.008 -56.427  1.00  0.00     0.039 A 
HETATM    8  C   UNL     1     -44.169  57.492 -57.648  1.00  0.00     0.069 A 
HETATM    9  C   UNL     1     -43.328  56.382 -57.659  1.00  0.00     0.039 A 
HETATM   10  C   UNL     1     -42.872  55.838 -56.452  1.00  0.00     0.032 A 
BRANCH   8  11
HETATM   11  O   UNL     1     -44.636  58.146 -58.753  1.00  0.00    -0.347 OA
BRANCH  11  12
HETATM   12  C   UNL     1     -45.975  58.643 -58.673  1.00  0.00     0.214 C 
BRANCH  12  13
HETATM   13  C   UNL     1     -46.770  58.170 -59.870  1.00  0.00    -0.034 A 
HETATM   14  C   UNL     1     -46.802  56.804 -60.194  1.00  0.00     0.009 A 
HETATM   15  C   UNL     1     -47.539  56.350 -61.289  1.00  0.00     0.001 A 
HETATM   16  C   UNL     1     -48.262  57.253 -62.066  1.00  0.00     0.000 A 
HETATM   17  C   UNL     1     -48.253  58.609 -61.745  1.00  0.00     0.001 A 
HETATM   18  C   UNL     1     -47.517  59.064 -60.649  1.00  0.00     0.009 A 
ENDBRANCH  12  13
ENDBRANCH  11  12
ENDBRANCH   8  11
ENDBRANCH   1   5
BRANCH   2  19
HETATM   19  C   UNL     1     -41.137  55.187 -52.355  1.00  0.00     0.156 A 
HETATM   20  N   UNL     1     -41.366  55.611 -51.142  1.00  0.00    -0.166 NA
HETATM   21  N   UNL     1     -41.080  54.770 -50.109  1.00  0.00    -0.242 N 
HETATM   22  C   UNL     1     -40.570  53.499 -50.217  1.00  0.00     0.272 A 
HETATM   23  H   UNL     1     -41.237  55.125 -49.170  1.00  0.00     0.192 HD
HETATM   24  O   UNL     1     -40.331  52.804 -49.236  1.00  0.00    -0.266 OA
HETATM   25  C   UNL     1     -40.338  53.006 -51.585  1.00  0.00     0.046 A 
HETATM   26  C   UNL     1     -40.621  53.837 -52.667  1.00  0.00     0.016 A 
HETATM   27  C   UNL     1     -39.855  51.707 -51.790  1.00  0.00     0.018 A 
HETATM   28  C   UNL     1     -40.434  53.356 -53.969  1.00  0.00     0.015 A 
HETATM   29  C   UNL     1     -39.951  52.060 -54.174  1.00  0.00     0.001 A 
HETATM   30  C   UNL     1     -39.661  51.236 -53.088  1.00  0.00     0.001 A 
ENDBRANCH   2  19
TORSDOF 5
ENDMDL
MODEL 5
REMARK VINA RESULT:      -8.2      5.836     10.102
REMARK  5 active torsions:
REMARK  status: ('A' for Active; 'I' for Inactive)
REMARK    1  A    between atoms: C_4  and  C_5 
REMARK    2  A    between atoms: C_5  and  O_6 
REMARK    3  A    between atoms: O_6  and  C_7 
REMARK    4  A    between atoms: C_10  and  N_11 
REMARK       I    between atoms: N_11  and  C_12 
REMARK    5  A    between atoms: C_12  and  C_13 
ROOT
HETATM    1  N   UNL     1     -43.421  58.096 -51.484  1.00  0.00    -0.322 N 
HETATM    2  C   UNL     1     -44.742  58.370 -51.202  1.00  0.00     0.277 C 
HETATM    3  O   UNL     1     -45.545  57.696 -50.579  1.00  0.00    -0.266 OA
HETATM    4  H   UNL     1     -42.900  58.874 -51.879  1.00  0.00     0.169 HD
ENDROOT
BRANCH   1   5
HETATM    5  C   UNL     1     -42.730  56.890 -51.273  1.00  0.00     0.035 A 
HETATM    6  C   UNL     1     -41.583  56.785 -50.487  1.00  0.00     0.032 A 
HETATM    7  C   UNL     1     -41.004  55.533 -50.253  1.00  0.00     0.039 A 
HETATM    8  C   UNL     1     -41.566  54.376 -50.793  1.00  0.00     0.069 A 
HETATM    9  C   UNL     1     -42.679  54.482 -51.624  1.00  0.00     0.039 A 
HETATM   10  C   UNL     1     -43.262  55.734 -51.855  1.00  0.00     0.032 A 
BRANCH   8  11
HETATM   11  O   UNL     1     -40.940  53.212 -50.448  1.00  0.00    -0.347 OA
BRANCH  11  12
HETATM   12  C   UNL     1     -39.663  52.980 -51.047  1.00  0.00     0.214 C 
BRANCH  12  13
HETATM   13  C   UNL     1     -39.774  51.882 -52.082  1.00  0.00    -0.034 A 
HETATM   14  C   UNL     1     -40.083  52.203 -53.413  1.00  0.00     0.009 A 
HETATM   15  C   UNL     1     -40.178  51.203 -54.383  1.00  0.00     0.001 A 
HETATM   16  C   UNL     1     -39.956  49.872 -54.036  1.00  0.00     0.000 A 
HETATM   17  C   UNL     1     -39.630  49.542 -52.722  1.00  0.00     0.001 A 
HETATM   18  C   UNL     1     -39.533  50.540 -51.752  1.00  0.00     0.009 A 
ENDBRANCH  12  13
ENDBRANCH  11  12
ENDBRANCH   8  11
ENDBRANCH   1   5
BRANCH   2  19
HETATM   19  C   UNL     1     -45.172  59.717 -51.783  1.00  0.00     0.156 A 
HETATM   20  N   UNL     1     -45.707  59.676 -52.973  1.00  0.00    -0.166 NA
HETATM   21  N   UNL     1     -46.125  60.849 -53.524  1.00  0.00    -0.242 N 
HETATM   22  C   UNL     1     -46.042  62.092 -52.943  1.00  0.00     0.272 A 
HETATM   23  H   UNL     1     -46.513  60.804 -54.462  1.00  0.00     0.192 HD
HETATM   24  O   UNL     1     -46.435  63.106 -53.509  1.00  0.00    -0.266 OA
HETATM   25  C   UNL     1     -45.466  62.139 -51.589  1.00  0.00     0.046 A 
HETATM   26  C   UNL     1     -45.029  60.958 -50.991  1.00  0.00     0.016 A 
HETATM   27  C   UNL     1     -45.378  63.359 -50.907  1.00  0.00     0.018 A 
HETATM   28  C   UNL     1     -44.514  60.998 -49.690  1.00  0.00     0.015 A 
HETATM   29  C   UNL     1     -44.425  62.216 -49.008  1.00  0.00     0.001 A 
HETATM   30  C   UNL     1     -44.854  63.395 -49.615  1.00  0.00     0.001 A 
ENDBRANCH   2  19
TORSDOF 5
ENDMDL
MODEL 6
REMARK VINA RESULT:      -8.2      1.379      1.945
REMARK  5 active torsions:
REMARK  status: ('A' for Active; 'I' for Inactive)
REMARK    1  A    between atoms: C_4  and  C_5 
REMARK    2  A    between atoms: C_5  and  O_6 
REMARK    3  A    between atoms: O_6  and  C_7 
REMARK    4  A    between atoms: C_10  and  N_11 
REMARK       I    between atoms: N_11  and  C_12 
REMARK    5  A    between atoms: C_12  and  C_13 
ROOT
HETATM    1  N   UNL     1     -42.697  56.464 -54.296  1.00  0.00    -0.322 N 
HETATM    2  C   UNL     1     -43.149  55.232 -53.877  1.00  0.00     0.277 C 
HETATM    3  O   UNL     1     -43.891  54.455 -54.453  1.00  0.00    -0.266 OA
HETATM    4  H   UNL     1     -41.959  56.864 -53.723  1.00  0.00     0.169 HD
ENDROOT
BRANCH   1   5
HETATM    5  C   UNL     1     -43.125  57.202 -55.413  1.00  0.00     0.035 A 
HETATM    6  C   UNL     1     -44.413  57.716 -55.551  1.00  0.00     0.032 A 
HETATM    7  C   UNL     1     -44.738  58.516 -56.652  1.00  0.00     0.039 A 
HETATM    8  C   UNL     1     -43.780  58.816 -57.621  1.00  0.00     0.069 A 
HETATM    9  C   UNL     1     -42.508  58.259 -57.517  1.00  0.00     0.039 A 
HETATM   10  C   UNL     1     -42.181  57.463 -56.413  1.00  0.00     0.032 A 
BRANCH   8  11
HETATM   11  O   UNL     1     -44.204  59.650 -58.616  1.00  0.00    -0.347 OA
BRANCH  11  12
HETATM   12  C   UNL     1     -43.980  59.200 -59.955  1.00  0.00     0.214 C 
BRANCH  12  13
HETATM   13  C   UNL     1     -44.782  57.943 -60.215  1.00  0.00    -0.034 A 
HETATM   14  C   UNL     1     -44.121  56.735 -60.484  1.00  0.00     0.009 A 
HETATM   15  C   UNL     1     -44.846  55.564 -60.715  1.00  0.00     0.001 A 
HETATM   16  C   UNL     1     -46.238  55.585 -60.669  1.00  0.00     0.000 A 
HETATM   17  C   UNL     1     -46.906  56.775 -60.384  1.00  0.00     0.001 A 
HETATM   18  C   UNL     1     -46.183  57.946 -60.151  1.00  0.00     0.009 A 
ENDBRANCH  12  13
ENDBRANCH  11  12
ENDBRANCH   8  11
ENDBRANCH   1   5
BRANCH   2  19
HETATM   19  C   UNL     1     -42.596  54.870 -52.499  1.00  0.00     0.156 A 
HETATM   20  N   UNL     1     -43.140  55.493 -51.489  1.00  0.00    -0.166 NA
HETATM   21  N   UNL     1     -42.694  55.189 -50.238  1.00  0.00    -0.242 N 
HETATM   22  C   UNL     1     -41.716  54.276 -49.927  1.00  0.00     0.272 A 
HETATM   23  H   UNL     1     -43.108  55.703 -49.465  1.00  0.00     0.192 HD
HETATM   24  O   UNL     1     -41.363  54.063 -48.772  1.00  0.00    -0.266 OA
HETATM   25  C   UNL     1     -41.120  53.549 -51.061  1.00  0.00     0.046 A 
HETATM   26  C   UNL     1     -41.552  53.832 -52.355  1.00  0.00     0.016 A 
HETATM   27  C   UNL     1     -40.142  52.573 -50.832  1.00  0.00     0.018 A 
HETATM   28  C   UNL     1     -41.011  53.117 -53.430  1.00  0.00     0.015 A 
HETATM   29  C   UNL     1     -40.034  52.142 -53.203  1.00  0.00     0.001 A 
HETATM   30  C   UNL     1     -39.599  51.871 -51.906  1.00  0.00     0.001 A 
ENDBRANCH   2  19
TORSDOF 5
ENDMDL
MODEL 7
REMARK VINA RESULT:      -8.2      2.641      3.988
REMARK  5 active torsions:
REMARK  status: ('A' for Active; 'I' for Inactive)
REMARK    1  A    between atoms: C_4  and  C_5 
REMARK    2  A    between atoms: C_5  and  O_6 
REMARK    3  A    between atoms: O_6  and  C_7 
REMARK    4  A    between atoms: C_10  and  N_11 
REMARK       I    between atoms: N_11  and  C_12 
REMARK    5  A    between atoms: C_12  and  C_13 
ROOT
HETATM    1  N   UNL     1     -41.901  55.956 -54.813  1.00  0.00    -0.322 N 
HETATM    2  C   UNL     1     -42.695  55.060 -54.131  1.00  0.00     0.277 C 
HETATM    3  O   UNL     1     -43.833  54.702 -54.384  1.00  0.00    -0.266 OA
HETATM    4  H   UNL     1     -40.931  55.980 -54.512  1.00  0.00     0.169 HD
ENDROOT
BRANCH   1   5
HETATM    5  C   UNL     1     -42.277  56.809 -55.865  1.00  0.00     0.035 A 
HETATM    6  C   UNL     1     -42.304  58.199 -55.760  1.00  0.00     0.032 A 
HETATM    7  C   UNL     1     -42.604  58.983 -56.879  1.00  0.00     0.039 A 
HETATM    8  C   UNL     1     -42.872  58.390 -58.113  1.00  0.00     0.069 A 
HETATM    9  C   UNL     1     -42.901  57.001 -58.210  1.00  0.00     0.039 A 
HETATM   10  C   UNL     1     -42.596  56.216 -57.092  1.00  0.00     0.032 A 
BRANCH   8  11
HETATM   11  O   UNL     1     -43.096  59.264 -59.139  1.00  0.00    -0.347 OA
BRANCH  11  12
HETATM   12  C   UNL     1     -43.178  60.647 -58.785  1.00  0.00     0.214 C 
BRANCH  12  13
HETATM   13  C   UNL     1     -42.002  61.397 -59.373  1.00  0.00    -0.034 A 
HETATM   14  C   UNL     1     -41.961  61.665 -60.750  1.00  0.00     0.009 A 
HETATM   15  C   UNL     1     -40.889  62.365 -61.306  1.00  0.00     0.001 A 
HETATM   16  C   UNL     1     -39.852  62.815 -60.492  1.00  0.00     0.000 A 
HETATM   17  C   UNL     1     -39.890  62.571 -59.121  1.00  0.00     0.001 A 
HETATM   18  C   UNL     1     -40.961  61.872 -58.563  1.00  0.00     0.009 A 
ENDBRANCH  12  13
ENDBRANCH  11  12
ENDBRANCH   8  11
ENDBRANCH   1   5
BRANCH   2  19
HETATM   19  C   UNL     1     -41.974  54.486 -52.912  1.00  0.00     0.156 A 
HETATM   20  N   UNL     1     -42.203  55.094 -51.779  1.00  0.00    -0.166 NA
HETATM   21  N   UNL     1     -41.599  54.606 -50.660  1.00  0.00    -0.242 N 
HETATM   22  C   UNL     1     -40.760  53.519 -50.602  1.00  0.00     0.272 A 
HETATM   23  H   UNL     1     -41.765  55.108 -49.792  1.00  0.00     0.192 HD
HETATM   24  O   UNL     1     -40.247  53.145 -49.553  1.00  0.00    -0.266 OA
HETATM   25  C   UNL     1     -40.522  52.813 -51.871  1.00  0.00     0.046 A 
HETATM   26  C   UNL     1     -41.125  53.282 -53.037  1.00  0.00     0.016 A 
HETATM   27  C   UNL     1     -39.709  51.672 -51.897  1.00  0.00     0.018 A 
HETATM   28  C   UNL     1     -40.926  52.589 -54.237  1.00  0.00     0.015 A 
HETATM   29  C   UNL     1     -40.115  51.450 -54.265  1.00  0.00     0.001 A 
HETATM   30  C   UNL     1     -39.506  50.992 -53.097  1.00  0.00     0.001 A 
ENDBRANCH   2  19
TORSDOF 5
ENDMDL
MODEL 8
REMARK VINA RESULT:      -8.2      6.399      9.875
REMARK  5 active torsions:
REMARK  status: ('A' for Active; 'I' for Inactive)
REMARK    1  A    between atoms: C_4  and  C_5 
REMARK    2  A    between atoms: C_5  and  O_6 
REMARK    3  A    between atoms: O_6  and  C_7 
REMARK    4  A    between atoms: C_10  and  N_11 
REMARK       I    between atoms: N_11  and  C_12 
REMARK    5  A    between atoms: C_12  and  C_13 
ROOT
HETATM    1  N   UNL     1     -43.972  59.045 -50.835  1.00  0.00    -0.322 N 
HETATM    2  C   UNL     1     -45.137  59.707 -50.515  1.00  0.00     0.277 C 
HETATM    3  O   UNL     1     -46.290  59.336 -50.656  1.00  0.00    -0.266 OA
HETATM    4  H   UNL     1     -43.124  59.480 -50.482  1.00  0.00     0.169 HD
ENDROOT
BRANCH   1   5
HETATM    5  C   UNL     1     -43.835  57.853 -51.567  1.00  0.00     0.035 A 
HETATM    6  C   UNL     1     -43.738  57.807 -52.957  1.00  0.00     0.032 A 
HETATM    7  C   UNL     1     -43.515  56.589 -53.607  1.00  0.00     0.039 A 
HETATM    8  C   UNL     1     -43.378  55.408 -52.878  1.00  0.00     0.069 A 
HETATM    9  C   UNL     1     -43.529  55.439 -51.493  1.00  0.00     0.039 A 
HETATM   10  C   UNL     1     -43.748  56.659 -50.842  1.00  0.00     0.032 A 
BRANCH   8  11
HETATM   11  O   UNL     1     -43.108  54.294 -53.622  1.00  0.00    -0.347 OA
BRANCH  11  12
HETATM   12  C   UNL     1     -41.813  54.237 -54.226  1.00  0.00     0.214 C 
BRANCH  12  13
HETATM   13  C   UNL     1     -40.981  53.167 -53.555  1.00  0.00    -0.034 A 
HETATM   14  C   UNL     1     -40.598  52.024 -54.275  1.00  0.00     0.009 A 
HETATM   15  C   UNL     1     -39.821  51.032 -53.674  1.00  0.00     0.001 A 
HETATM   16  C   UNL     1     -39.409  51.175 -52.350  1.00  0.00     0.000 A 
HETATM   17  C   UNL     1     -39.767  52.313 -51.630  1.00  0.00     0.001 A 
HETATM   18  C   UNL     1     -40.543  53.306 -52.230  1.00  0.00     0.009 A 
ENDBRANCH  12  13
ENDBRANCH  11  12
ENDBRANCH   8  11
ENDBRANCH   1   5
BRANCH   2  19
HETATM   19  C   UNL     1     -44.853  61.080 -49.906  1.00  0.00     0.156 A 
HETATM   20  N   UNL     1     -44.415  61.988 -50.735  1.00  0.00    -0.166 NA
HETATM   21  N   UNL     1     -44.166  63.234 -50.243  1.00  0.00    -0.242 N 
HETATM   22  C   UNL     1     -44.337  63.639 -48.941  1.00  0.00     0.272 A 
HETATM   23  H   UNL     1     -43.799  63.921 -50.896  1.00  0.00     0.192 HD
HETATM   24  O   UNL     1     -44.083  64.780 -48.573  1.00  0.00    -0.266 OA
HETATM   25  C   UNL     1     -44.859  62.626 -48.009  1.00  0.00     0.046 A 
HETATM   26  C   UNL     1     -45.126  61.341 -48.476  1.00  0.00     0.016 A 
HETATM   27  C   UNL     1     -45.098  62.963 -46.670  1.00  0.00     0.018 A 
HETATM   28  C   UNL     1     -45.656  60.388 -47.598  1.00  0.00     0.015 A 
HETATM   29  C   UNL     1     -45.895  60.723 -46.261  1.00  0.00     0.001 A 
HETATM   30  C   UNL     1     -45.615  62.008 -45.797  1.00  0.00     0.001 A 
ENDBRANCH   2  19
TORSDOF 5
ENDMDL
MODEL 9
REMARK VINA RESULT:      -8.0      1.791      2.317
REMARK  5 active torsions:
REMARK  status: ('A' for Active; 'I' for Inactive)
REMARK    1  A    between atoms: C_4  and  C_5 
REMARK    2  A    between atoms: C_5  and  O_6 
REMARK    3  A    between atoms: O_6  and  C_7 
REMARK    4  A    between atoms: C_10  and  N_11 
REMARK       I    between atoms: N_11  and  C_12 
REMARK    5  A    between atoms: C_12  and  C_13 
ROOT
HETATM    1  N   UNL     1     -42.769  56.181 -53.428  1.00  0.00    -0.322 N 
HETATM    2  C   UNL     1     -41.785  56.456 -52.503  1.00  0.00     0.277 C 
HETATM    3  O   UNL     1     -41.270  57.527 -52.232  1.00  0.00    -0.266 OA
HETATM    4  H   UNL     1     -43.157  55.243 -53.370  1.00  0.00     0.169 HD
ENDROOT
BRANCH   1   5
HETATM    5  C   UNL     1     -43.293  57.043 -54.406  1.00  0.00     0.035 A 
HETATM    6  C   UNL     1     -42.523  57.629 -55.410  1.00  0.00     0.032 A 
HETATM    7  C   UNL     1     -43.132  58.406 -56.401  1.00  0.00     0.039 A 
HETATM    8  C   UNL     1     -44.514  58.598 -56.406  1.00  0.00     0.069 A 
HETATM    9  C   UNL     1     -45.281  58.061 -55.374  1.00  0.00     0.039 A 
HETATM   10  C   UNL     1     -44.672  57.279 -54.385  1.00  0.00     0.032 A 
BRANCH   8  11
HETATM   11  O   UNL     1     -44.994  59.329 -57.456  1.00  0.00    -0.347 OA
BRANCH  11  12
HETATM   12  C   UNL     1     -44.367  59.103 -58.721  1.00  0.00     0.214 C 
BRANCH  12  13
HETATM   13  C   UNL     1     -44.873  57.810 -59.321  1.00  0.00    -0.034 A 
HETATM   14  C   UNL     1     -46.247  57.634 -59.549  1.00  0.00     0.009 A 
HETATM   15  C   UNL     1     -46.728  56.451 -60.112  1.00  0.00     0.001 A 
HETATM   16  C   UNL     1     -45.842  55.435 -60.464  1.00  0.00     0.000 A 
HETATM   17  C   UNL     1     -44.475  55.604 -60.260  1.00  0.00     0.001 A 
HETATM   18  C   UNL     1     -43.991  56.787 -59.698  1.00  0.00     0.009 A 
ENDBRANCH  12  13
ENDBRANCH  11  12
ENDBRANCH   8  11
ENDBRANCH   1   5
BRANCH   2  19
HETATM   19  C   UNL     1     -41.339  55.193 -51.766  1.00  0.00     0.156 A 
HETATM   20  N   UNL     1     -41.535  55.192 -50.475  1.00  0.00    -0.166 NA
HETATM   21  N   UNL     1     -41.172  54.080 -49.777  1.00  0.00    -0.242 N 
HETATM   22  C   UNL     1     -40.616  52.939 -50.303  1.00  0.00     0.272 A 
HETATM   23  H   UNL     1     -41.304  54.106 -48.770  1.00  0.00     0.192 HD
HETATM   24  O   UNL     1     -40.309  51.979 -49.605  1.00  0.00    -0.266 OA
HETATM   25  C   UNL     1     -40.421  52.924 -51.763  1.00  0.00     0.046 A 
HETATM   26  C   UNL     1     -40.782  54.043 -52.511  1.00  0.00     0.016 A 
HETATM   27  C   UNL     1     -39.894  51.786 -52.388  1.00  0.00     0.018 A 
HETATM   28  C   UNL     1     -40.629  54.016 -53.902  1.00  0.00     0.015 A 
HETATM   29  C   UNL     1     -40.103  52.881 -54.528  1.00  0.00     0.001 A 
HETATM   30  C   UNL     1     -39.734  51.769 -53.773  1.00  0.00     0.001 A 
ENDBRANCH   2  19
TORSDOF 5
ENDMDL
MODEL 10
REMARK VINA RESULT:      -7.9      5.097      9.888
REMARK  5 active torsions:
REMARK  status: ('A' for Active; 'I' for Inactive)
REMARK    1  A    between atoms: C_4  and  C_5 
REMARK    2  A    between atoms: C_5  and  O_6 
REMARK    3  A    between atoms: O_6  and  C_7 
REMARK    4  A    between atoms: C_10  and  N_11 
REMARK       I    between atoms: N_11  and  C_12 
REMARK    5  A    between atoms: C_12  and  C_13 
ROOT
HETATM    1  N   UNL     1     -43.577  58.654 -50.974  1.00  0.00    -0.322 N 
HETATM    2  C   UNL     1     -44.950  58.596 -50.875  1.00  0.00     0.277 C 
HETATM    3  O   UNL     1     -45.677  57.617 -50.889  1.00  0.00    -0.266 OA
HETATM    4  H   UNL     1     -43.174  59.566 -50.778  1.00  0.00     0.169 HD
ENDROOT
BRANCH   1   5
HETATM    5  C   UNL     1     -42.695  57.608 -51.295  1.00  0.00     0.035 A 
HETATM    6  C   UNL     1     -41.826  57.021 -50.376  1.00  0.00     0.032 A 
HETATM    7  C   UNL     1     -41.042  55.924 -50.750  1.00  0.00     0.039 A 
HETATM    8  C   UNL     1     -41.123  55.398 -52.040  1.00  0.00     0.069 A 
HETATM    9  C   UNL     1     -41.948  56.015 -52.978  1.00  0.00     0.039 A 
HETATM   10  C   UNL     1     -42.737  57.109 -52.603  1.00  0.00     0.032 A 
BRANCH   8  11
HETATM   11  O   UNL     1     -40.350  54.295 -52.266  1.00  0.00    -0.347 OA
BRANCH  11  12
HETATM   12  C   UNL     1     -40.600  53.587 -53.483  1.00  0.00     0.214 C 
BRANCH  12  13
HETATM   13  C   UNL     1     -40.215  52.133 -53.319  1.00  0.00    -0.034 A 
HETATM   14  C   UNL     1     -39.831  51.648 -52.059  1.00  0.00     0.009 A 
HETATM   15  C   UNL     1     -39.484  50.306 -51.888  1.00  0.00     0.001 A 
HETATM   16  C   UNL     1     -39.527  49.432 -52.972  1.00  0.00     0.000 A 
HETATM   17  C   UNL     1     -39.924  49.896 -54.224  1.00  0.00     0.001 A 
HETATM   18  C   UNL     1     -40.273  51.237 -54.396  1.00  0.00     0.009 A 
ENDBRANCH  12  13
ENDBRANCH  11  12
ENDBRANCH   8  11
ENDBRANCH   1   5
BRANCH   2  19
HETATM   19  C   UNL     1     -45.561  59.990 -50.728  1.00  0.00     0.156 A 
HETATM   20  N   UNL     1     -45.739  60.405 -49.503  1.00  0.00    -0.166 NA
HETATM   21  N   UNL     1     -46.262  61.649 -49.321  1.00  0.00    -0.242 N 
HETATM   22  C   UNL     1     -46.623  62.528 -50.314  1.00  0.00     0.272 A 
HETATM   23  H   UNL     1     -46.421  61.945 -48.363  1.00  0.00     0.192 HD
HETATM   24  O   UNL     1     -47.096  63.633 -50.069  1.00  0.00    -0.266 OA
HETATM   25  C   UNL     1     -46.396  62.076 -51.697  1.00  0.00     0.046 A 
HETATM   26  C   UNL     1     -45.861  60.810 -51.922  1.00  0.00     0.016 A 
HETATM   27  C   UNL     1     -46.701  62.924 -52.770  1.00  0.00     0.018 A 
HETATM   28  C   UNL     1     -45.612  60.394 -53.235  1.00  0.00     0.015 A 
HETATM   29  C   UNL     1     -45.917  61.238 -54.308  1.00  0.00     0.001 A 
HETATM   30  C   UNL     1     -46.462  62.501 -54.077  1.00  0.00     0.001 A 
ENDBRANCH   2  19
TORSDOF 5
ENDMDL
