MODEL 1
REMARK VINA RESULT:      -6.8      0.000      0.000
REMARK  6 active torsions:
REMARK  status: ('A' for Active; 'I' for Inactive)
REMARK    1  A    between atoms: C_2  and  C_3 
REMARK    2  A    between atoms: C_5  and  N_6 
REMARK       I    between atoms: N_6  and  C_7 
REMARK       I    between atoms: C_7  and  N_8 
REMARK    3  A    between atoms: N_8  and  C_9 
REMARK    4  A    between atoms: C_9  and  C_10 
REMARK    5  A    between atoms: C_10  and  N_11 
REMARK    6  A    between atoms: C_18  and  O_19 
ROOT
HETATM    1  N   UNL     1     -41.403  56.499 -50.808  1.00  0.00    -0.306 N 
HETATM    2  C   UNL     1     -42.633  57.086 -50.828  1.00  0.00     0.320 C 
HETATM    3  N   UNL     1     -42.638  58.440 -50.635  1.00  0.00    -0.341 N 
HETATM    4  O   UNL     1     -43.714  56.525 -50.979  1.00  0.00    -0.247 OA
HETATM    5  H   UNL     1     -40.678  56.980 -50.289  1.00  0.00     0.171 HD
HETATM    6  H   UNL     1     -43.591  58.780 -50.692  1.00  0.00     0.164 HD
ENDROOT
BRANCH   1   7
HETATM    7  C   UNL     1     -41.077  55.167 -51.143  1.00  0.00     0.070 A 
HETATM    8  C   UNL     1     -41.112  54.685 -52.457  1.00  0.00     0.040 A 
HETATM    9  C   UNL     1     -40.743  53.360 -52.772  1.00  0.00    -0.048 A 
HETATM   10  C   UNL     1     -40.342  52.536 -51.711  1.00  0.00     0.011 A 
HETATM   11  C   UNL     1     -40.299  53.008 -50.391  1.00  0.00     0.039 A 
HETATM   12  C   UNL     1     -40.658  54.323 -50.100  1.00  0.00     0.095 A 
BRANCH   9  13
HETATM   13  C   UNL     1     -40.770  52.885 -54.236  1.00  0.00    -0.024 C 
HETATM   14  C   UNL     1     -39.926  53.846 -55.101  1.00  0.00     0.019 C 
HETATM   15  C   UNL     1     -42.223  52.871 -54.761  1.00  0.00     0.019 C 
HETATM   16  C   UNL     1     -40.199  51.464 -54.440  1.00  0.00     0.019 C 
ENDBRANCH   9  13
BRANCH  12  17
HETATM   17  O   UNL     1     -40.643  54.888 -48.846  1.00  0.00    -0.354 OA
HETATM   18  C   UNL     1     -40.290  54.040 -47.760  1.00  0.00     0.210 C 
ENDBRANCH  12  17
ENDBRANCH   1   7
BRANCH   3  19
HETATM   19  C   UNL     1     -41.596  59.368 -51.063  1.00  0.00     0.146 C 
BRANCH  19  20
HETATM   20  C   UNL     1     -41.952  60.062 -52.373  1.00  0.00     0.170 C 
BRANCH  20  21
HETATM   21  N   UNL     1     -42.427  59.122 -53.370  1.00  0.00    -0.278 N 
HETATM   22  N   UNL     1     -43.752  58.979 -53.579  1.00  0.00    -0.184 NA
HETATM   23  C   UNL     1     -43.815  58.078 -54.567  1.00  0.00     0.164 A 
HETATM   24  C   UNL     1     -42.542  57.642 -54.973  1.00  0.00     0.070 A 
HETATM   25 CL   UNL     1     -42.198  56.514 -56.183  1.00  0.00    -0.081 Cl
HETATM   26  C   UNL     1     -41.660  58.332 -54.178  1.00  0.00     0.137 A 
ENDBRANCH  20  21
ENDBRANCH  19  20
ENDBRANCH   3  19
TORSDOF 6
ENDMDL
MODEL 2
REMARK VINA RESULT:      -6.8      2.247      2.832
REMARK  6 active torsions:
REMARK  status: ('A' for Active; 'I' for Inactive)
REMARK    1  A    between atoms: C_2  and  C_3 
REMARK    2  A    between atoms: C_5  and  N_6 
REMARK       I    between atoms: N_6  and  C_7 
REMARK       I    between atoms: C_7  and  N_8 
REMARK    3  A    between atoms: N_8  and  C_9 
REMARK    4  A    between atoms: C_9  and  C_10 
REMARK    5  A    between atoms: C_10  and  N_11 
REMARK    6  A    between atoms: C_18  and  O_19 
ROOT
HETATM    1  N   UNL     1     -42.573  56.034 -51.095  1.00  0.00    -0.306 N 
HETATM    2  C   UNL     1     -43.878  56.032 -50.702  1.00  0.00     0.320 C 
HETATM    3  N   UNL     1     -44.492  57.254 -50.706  1.00  0.00    -0.341 N 
HETATM    4  O   UNL     1     -44.534  55.062 -50.334  1.00  0.00    -0.247 OA
HETATM    5  H   UNL     1     -42.064  56.902 -50.977  1.00  0.00     0.171 HD
HETATM    6  H   UNL     1     -45.459  57.141 -50.423  1.00  0.00     0.164 HD
ENDROOT
BRANCH   1   7
HETATM    7  C   UNL     1     -41.747  54.918 -51.351  1.00  0.00     0.070 A 
HETATM    8  C   UNL     1     -41.600  54.360 -52.626  1.00  0.00     0.040 A 
HETATM    9  C   UNL     1     -40.737  53.270 -52.864  1.00  0.00    -0.048 A 
HETATM   10  C   UNL     1     -40.030  52.758 -51.766  1.00  0.00     0.011 A 
HETATM   11  C   UNL     1     -40.166  53.312 -50.485  1.00  0.00     0.039 A 
HETATM   12  C   UNL     1     -41.016  54.396 -50.270  1.00  0.00     0.095 A 
BRANCH   9  13
HETATM   13  C   UNL     1     -40.587  52.708 -54.290  1.00  0.00    -0.024 C 
HETATM   14  C   UNL     1     -41.982  52.348 -54.846  1.00  0.00     0.019 C 
HETATM   15  C   UNL     1     -39.705  51.441 -54.269  1.00  0.00     0.019 C 
HETATM   16  C   UNL     1     -39.940  53.698 -55.284  1.00  0.00     0.019 C 
ENDBRANCH   9  13
BRANCH  12  17
HETATM   17  O   UNL     1     -41.216  55.017 -49.060  1.00  0.00    -0.354 OA
HETATM   18  C   UNL     1     -40.670  54.381 -47.910  1.00  0.00     0.210 C 
ENDBRANCH  12  17
ENDBRANCH   1   7
BRANCH   3  19
HETATM   19  C   UNL     1     -44.216  58.346 -51.634  1.00  0.00     0.146 C 
BRANCH  19  20
HETATM   20  C   UNL     1     -43.499  59.506 -50.953  1.00  0.00     0.170 C 
BRANCH  20  21
HETATM   21  N   UNL     1     -42.058  59.387 -51.059  1.00  0.00    -0.278 N 
HETATM   22  N   UNL     1     -41.511  58.824 -52.155  1.00  0.00    -0.184 NA
HETATM   23  C   UNL     1     -40.195  58.913 -51.927  1.00  0.00     0.164 A 
HETATM   24  C   UNL     1     -39.908  59.517 -50.691  1.00  0.00     0.070 A 
HETATM   25 CL   UNL     1     -38.377  59.809 -50.039  1.00  0.00    -0.081 Cl
HETATM   26  C   UNL     1     -41.134  59.812 -50.146  1.00  0.00     0.137 A 
ENDBRANCH  20  21
ENDBRANCH  19  20
ENDBRANCH   3  19
TORSDOF 6
ENDMDL
MODEL 3
REMARK VINA RESULT:      -6.6      3.670      4.671
REMARK  6 active torsions:
REMARK  status: ('A' for Active; 'I' for Inactive)
REMARK    1  A    between atoms: C_2  and  C_3 
REMARK    2  A    between atoms: C_5  and  N_6 
REMARK       I    between atoms: N_6  and  C_7 
REMARK       I    between atoms: C_7  and  N_8 
REMARK    3  A    between atoms: N_8  and  C_9 
REMARK    4  A    between atoms: C_9  and  C_10 
REMARK    5  A    between atoms: C_10  and  N_11 
REMARK    6  A    between atoms: C_18  and  O_19 
ROOT
HETATM    1  N   UNL     1     -41.888  55.044 -54.472  1.00  0.00    -0.306 N 
HETATM    2  C   UNL     1     -43.189  55.049 -54.877  1.00  0.00     0.320 C 
HETATM    3  N   UNL     1     -43.490  55.940 -55.869  1.00  0.00    -0.341 N 
HETATM    4  O   UNL     1     -44.101  54.358 -54.430  1.00  0.00    -0.247 OA
HETATM    5  H   UNL     1     -41.364  55.899 -54.616  1.00  0.00     0.171 HD
HETATM    6  H   UNL     1     -44.470  55.848 -56.112  1.00  0.00     0.164 HD
ENDROOT
BRANCH   1   7
HETATM    7  C   UNL     1     -41.258  54.129 -53.601  1.00  0.00     0.070 A 
HETATM    8  C   UNL     1     -40.913  52.829 -53.988  1.00  0.00     0.040 A 
HETATM    9  C   UNL     1     -40.247  51.946 -53.112  1.00  0.00    -0.048 A 
HETATM   10  C   UNL     1     -39.947  52.421 -51.827  1.00  0.00     0.011 A 
HETATM   11  C   UNL     1     -40.283  53.722 -51.430  1.00  0.00     0.039 A 
HETATM   12  C   UNL     1     -40.933  54.584 -52.312  1.00  0.00     0.095 A 
BRANCH   9  13
HETATM   13  C   UNL     1     -39.863  50.535 -53.593  1.00  0.00    -0.024 C 
HETATM   14  C   UNL     1     -40.988  49.977 -54.492  1.00  0.00     0.019 C 
HETATM   15  C   UNL     1     -39.668  49.597 -52.381  1.00  0.00     0.019 C 
HETATM   16  C   UNL     1     -38.556  50.492 -54.416  1.00  0.00     0.019 C 
ENDBRANCH   9  13
BRANCH  12  17
HETATM   17  O   UNL     1     -41.299  55.879 -52.027  1.00  0.00    -0.354 OA
HETATM   18  C   UNL     1     -42.195  56.072 -50.939  1.00  0.00     0.210 C 
ENDBRANCH  12  17
ENDBRANCH   1   7
BRANCH   3  19
HETATM   19  C   UNL     1     -42.596  56.356 -56.945  1.00  0.00     0.146 C 
BRANCH  19  20
HETATM   20  C   UNL     1     -43.264  57.343 -57.894  1.00  0.00     0.170 C 
BRANCH  20  21
HETATM   21  N   UNL     1     -44.212  56.688 -58.774  1.00  0.00    -0.278 N 
HETATM   22  N   UNL     1     -44.004  55.410 -59.152  1.00  0.00    -0.184 NA
HETATM   23  C   UNL     1     -45.069  55.133 -59.912  1.00  0.00     0.164 A 
HETATM   24  C   UNL     1     -45.941  56.229 -60.029  1.00  0.00     0.070 A 
HETATM   25 CL   UNL     1     -47.388  56.283 -60.900  1.00  0.00    -0.081 Cl
HETATM   26  C   UNL     1     -45.360  57.226 -59.283  1.00  0.00     0.137 A 
ENDBRANCH  20  21
ENDBRANCH  19  20
ENDBRANCH   3  19
TORSDOF 6
ENDMDL
MODEL 4
REMARK VINA RESULT:      -6.4      2.858      6.706
REMARK  6 active torsions:
REMARK  status: ('A' for Active; 'I' for Inactive)
REMARK    1  A    between atoms: C_2  and  C_3 
REMARK    2  A    between atoms: C_5  and  N_6 
REMARK       I    between atoms: N_6  and  C_7 
REMARK       I    between atoms: C_7  and  N_8 
REMARK    3  A    between atoms: N_8  and  C_9 
REMARK    4  A    between atoms: C_9  and  C_10 
REMARK    5  A    between atoms: C_10  and  N_11 
REMARK    6  A    between atoms: C_18  and  O_19 
ROOT
HETATM    1  N   UNL     1     -42.745  55.455 -52.078  1.00  0.00    -0.306 N 
HETATM    2  C   UNL     1     -43.074  54.760 -50.953  1.00  0.00     0.320 C 
HETATM    3  N   UNL     1     -42.056  54.044 -50.389  1.00  0.00    -0.341 N 
HETATM    4  O   UNL     1     -44.179  54.702 -50.422  1.00  0.00    -0.247 OA
HETATM    5  H   UNL     1     -41.960  55.105 -52.615  1.00  0.00     0.171 HD
HETATM    6  H   UNL     1     -42.395  53.586 -49.551  1.00  0.00     0.164 HD
ENDROOT
BRANCH   1   7
HETATM    7  C   UNL     1     -43.531  56.403 -52.769  1.00  0.00     0.070 A 
HETATM    8  C   UNL     1     -43.942  57.611 -52.193  1.00  0.00     0.040 A 
HETATM    9  C   UNL     1     -44.693  58.560 -52.916  1.00  0.00    -0.048 A 
HETATM   10  C   UNL     1     -45.020  58.245 -54.243  1.00  0.00     0.011 A 
HETATM   11  C   UNL     1     -44.610  57.041 -54.832  1.00  0.00     0.039 A 
HETATM   12  C   UNL     1     -43.860  56.118 -54.105  1.00  0.00     0.095 A 
BRANCH   9  13
HETATM   13  C   UNL     1     -45.098  59.887 -52.248  1.00  0.00    -0.024 C 
HETATM   14  C   UNL     1     -45.986  59.590 -51.019  1.00  0.00     0.019 C 
HETATM   15  C   UNL     1     -45.888  60.763 -53.246  1.00  0.00     0.019 C 
HETATM   16  C   UNL     1     -43.900  60.727 -51.754  1.00  0.00     0.019 C 
ENDBRANCH   9  13
BRANCH  12  17
HETATM   17  O   UNL     1     -43.401  54.915 -54.588  1.00  0.00    -0.354 OA
HETATM   18  C   UNL     1     -42.592  54.956 -55.758  1.00  0.00     0.210 C 
ENDBRANCH  12  17
ENDBRANCH   1   7
BRANCH   3  19
HETATM   19  C   UNL     1     -40.644  54.417 -50.392  1.00  0.00     0.146 C 
BRANCH  19  20
HETATM   20  C   UNL     1     -39.735  53.208 -50.585  1.00  0.00     0.170 C 
BRANCH  20  21
HETATM   21  N   UNL     1     -39.902  52.611 -51.895  1.00  0.00    -0.278 N 
HETATM   22  N   UNL     1     -40.448  53.332 -52.896  1.00  0.00    -0.184 NA
HETATM   23  C   UNL     1     -40.413  52.494 -53.939  1.00  0.00     0.164 A 
HETATM   24  C   UNL     1     -39.861  51.246 -53.600  1.00  0.00     0.070 A 
HETATM   25 CL   UNL     1     -39.646  49.923 -54.630  1.00  0.00    -0.081 Cl
HETATM   26  C   UNL     1     -39.541  51.348 -52.269  1.00  0.00     0.137 A 
ENDBRANCH  20  21
ENDBRANCH  19  20
ENDBRANCH   3  19
TORSDOF 6
ENDMDL
MODEL 5
REMARK VINA RESULT:      -6.3      1.698      1.833
REMARK  6 active torsions:
REMARK  status: ('A' for Active; 'I' for Inactive)
REMARK    1  A    between atoms: C_2  and  C_3 
REMARK    2  A    between atoms: C_5  and  N_6 
REMARK       I    between atoms: N_6  and  C_7 
REMARK       I    between atoms: C_7  and  N_8 
REMARK    3  A    between atoms: N_8  and  C_9 
REMARK    4  A    between atoms: C_9  and  C_10 
REMARK    5  A    between atoms: C_10  and  N_11 
REMARK    6  A    between atoms: C_18  and  O_19 
ROOT
HETATM    1  N   UNL     1     -41.390  56.490 -50.812  1.00  0.00    -0.306 N 
HETATM    2  C   UNL     1     -42.606  57.097 -50.914  1.00  0.00     0.320 C 
HETATM    3  N   UNL     1     -42.606  58.447 -50.697  1.00  0.00    -0.341 N 
HETATM    4  O   UNL     1     -43.681  56.556 -51.156  1.00  0.00    -0.247 OA
HETATM    5  H   UNL     1     -40.700  56.950 -50.231  1.00  0.00     0.171 HD
HETATM    6  H   UNL     1     -43.546  58.804 -50.818  1.00  0.00     0.164 HD
ENDROOT
BRANCH   1   7
HETATM    7  C   UNL     1     -41.060  55.159 -51.146  1.00  0.00     0.070 A 
HETATM    8  C   UNL     1     -41.110  54.672 -52.458  1.00  0.00     0.040 A 
HETATM    9  C   UNL     1     -40.736  53.348 -52.772  1.00  0.00    -0.048 A 
HETATM   10  C   UNL     1     -40.315  52.531 -51.714  1.00  0.00     0.011 A 
HETATM   11  C   UNL     1     -40.256  53.009 -50.397  1.00  0.00     0.039 A 
HETATM   12  C   UNL     1     -40.621  54.323 -50.106  1.00  0.00     0.095 A 
BRANCH   9  13
HETATM   13  C   UNL     1     -40.780  52.867 -54.234  1.00  0.00    -0.024 C 
HETATM   14  C   UNL     1     -39.953  53.829 -55.114  1.00  0.00     0.019 C 
HETATM   15  C   UNL     1     -42.240  52.843 -54.739  1.00  0.00     0.019 C 
HETATM   16  C   UNL     1     -40.204  51.448 -54.440  1.00  0.00     0.019 C 
ENDBRANCH   9  13
BRANCH  12  17
HETATM   17  O   UNL     1     -40.592  54.893 -48.855  1.00  0.00    -0.354 OA
HETATM   18  C   UNL     1     -40.301  54.032 -47.760  1.00  0.00     0.210 C 
ENDBRANCH  12  17
ENDBRANCH   1   7
BRANCH   3  19
HETATM   19  C   UNL     1     -41.521  59.366 -51.028  1.00  0.00     0.146 C 
BRANCH  19  20
HETATM   20  C   UNL     1     -40.961  59.109 -52.422  1.00  0.00     0.170 C 
BRANCH  20  21
HETATM   21  N   UNL     1     -41.673  59.861 -53.437  1.00  0.00    -0.278 N 
HETATM   22  N   UNL     1     -41.483  59.574 -54.741  1.00  0.00    -0.184 NA
HETATM   23  C   UNL     1     -42.307  60.421 -55.369  1.00  0.00     0.164 A 
HETATM   24  C   UNL     1     -43.005  61.248 -54.473  1.00  0.00     0.070 A 
HETATM   25 CL   UNL     1     -44.132  62.444 -54.868  1.00  0.00    -0.081 Cl
HETATM   26  C   UNL     1     -42.573  60.866 -53.226  1.00  0.00     0.137 A 
ENDBRANCH  20  21
ENDBRANCH  19  20
ENDBRANCH   3  19
TORSDOF 6
ENDMDL
MODEL 6
REMARK VINA RESULT:      -6.3      1.641      2.225
REMARK  6 active torsions:
REMARK  status: ('A' for Active; 'I' for Inactive)
REMARK    1  A    between atoms: C_2  and  C_3 
REMARK    2  A    between atoms: C_5  and  N_6 
REMARK       I    between atoms: N_6  and  C_7 
REMARK       I    between atoms: C_7  and  N_8 
REMARK    3  A    between atoms: N_8  and  C_9 
REMARK    4  A    between atoms: C_9  and  C_10 
REMARK    5  A    between atoms: C_10  and  N_11 
REMARK    6  A    between atoms: C_18  and  O_19 
ROOT
HETATM    1  N   UNL     1     -42.575  57.487 -50.878  1.00  0.00    -0.306 N 
HETATM    2  C   UNL     1     -43.817  58.027 -51.029  1.00  0.00     0.320 C 
HETATM    3  N   UNL     1     -43.982  59.273 -50.492  1.00  0.00    -0.341 N 
HETATM    4  O   UNL     1     -44.785  57.503 -51.571  1.00  0.00    -0.247 OA
HETATM    5  H   UNL     1     -42.025  57.822 -50.095  1.00  0.00     0.171 HD
HETATM    6  H   UNL     1     -44.926  59.593 -50.678  1.00  0.00     0.164 HD
ENDROOT
BRANCH   1   7
HETATM    7  C   UNL     1     -42.069  56.308 -51.466  1.00  0.00     0.070 A 
HETATM    8  C   UNL     1     -42.127  56.063 -52.843  1.00  0.00     0.040 A 
HETATM    9  C   UNL     1     -41.578  54.895 -53.413  1.00  0.00    -0.048 A 
HETATM   10  C   UNL     1     -40.972  53.978 -52.542  1.00  0.00     0.011 A 
HETATM   11  C   UNL     1     -40.903  54.215 -51.162  1.00  0.00     0.039 A 
HETATM   12  C   UNL     1     -41.443  55.379 -50.617  1.00  0.00     0.095 A 
BRANCH   9  13
HETATM   13  C   UNL     1     -41.642  54.683 -54.937  1.00  0.00    -0.024 C 
HETATM   14  C   UNL     1     -42.851  53.785 -55.278  1.00  0.00     0.019 C 
HETATM   15  C   UNL     1     -40.347  54.001 -55.431  1.00  0.00     0.019 C 
HETATM   16  C   UNL     1     -41.802  55.992 -55.741  1.00  0.00     0.019 C 
ENDBRANCH   9  13
BRANCH  12  17
HETATM   17  O   UNL     1     -41.422  55.712 -49.283  1.00  0.00    -0.354 OA
HETATM   18  C   UNL     1     -40.895  54.743 -48.384  1.00  0.00     0.210 C 
ENDBRANCH  12  17
ENDBRANCH   1   7
BRANCH   3  19
HETATM   19  C   UNL     1     -42.957  60.309 -50.404  1.00  0.00     0.146 C 
BRANCH  19  20
HETATM   20  C   UNL     1     -42.966  61.226 -51.622  1.00  0.00     0.170 C 
BRANCH  20  21
HETATM   21  N   UNL     1     -42.404  60.578 -52.790  1.00  0.00    -0.278 N 
HETATM   22  N   UNL     1     -41.347  59.751 -52.655  1.00  0.00    -0.184 NA
HETATM   23  C   UNL     1     -41.128  59.320 -53.903  1.00  0.00     0.164 A 
HETATM   24  C   UNL     1     -42.030  59.877 -54.825  1.00  0.00     0.070 A 
HETATM   25 CL   UNL     1     -42.082  59.588 -56.490  1.00  0.00    -0.081 Cl
HETATM   26  C   UNL     1     -42.845  60.692 -54.078  1.00  0.00     0.137 A 
ENDBRANCH  20  21
ENDBRANCH  19  20
ENDBRANCH   3  19
TORSDOF 6
ENDMDL
MODEL 7
REMARK VINA RESULT:      -6.1      4.162      6.047
REMARK  6 active torsions:
REMARK  status: ('A' for Active; 'I' for Inactive)
REMARK    1  A    between atoms: C_2  and  C_3 
REMARK    2  A    between atoms: C_5  and  N_6 
REMARK       I    between atoms: N_6  and  C_7 
REMARK       I    between atoms: C_7  and  N_8 
REMARK    3  A    between atoms: N_8  and  C_9 
REMARK    4  A    between atoms: C_9  and  C_10 
REMARK    5  A    between atoms: C_10  and  N_11 
REMARK    6  A    between atoms: C_18  and  O_19 
ROOT
HETATM    1  N   UNL     1     -42.384  57.062 -55.232  1.00  0.00    -0.306 N 
HETATM    2  C   UNL     1     -42.193  56.048 -56.122  1.00  0.00     0.320 C 
HETATM    3  N   UNL     1     -42.517  56.339 -57.419  1.00  0.00    -0.341 N 
HETATM    4  O   UNL     1     -41.786  54.917 -55.873  1.00  0.00    -0.247 OA
HETATM    5  H   UNL     1     -43.075  57.760 -55.480  1.00  0.00     0.171 HD
HETATM    6  H   UNL     1     -42.318  55.533 -58.000  1.00  0.00     0.164 HD
ENDROOT
BRANCH   1   7
HETATM    7  C   UNL     1     -41.983  57.110 -53.879  1.00  0.00     0.070 A 
HETATM    8  C   UNL     1     -42.141  56.029 -53.004  1.00  0.00     0.040 A 
HETATM    9  C   UNL     1     -41.697  56.087 -51.666  1.00  0.00    -0.048 A 
HETATM   10  C   UNL     1     -41.091  57.278 -51.241  1.00  0.00     0.011 A 
HETATM   11  C   UNL     1     -40.923  58.365 -52.110  1.00  0.00     0.039 A 
HETATM   12  C   UNL     1     -41.360  58.287 -53.432  1.00  0.00     0.095 A 
BRANCH   9  13
HETATM   13  C   UNL     1     -41.867  54.862 -50.749  1.00  0.00    -0.024 C 
HETATM   14  C   UNL     1     -41.241  55.166 -49.370  1.00  0.00     0.019 C 
HETATM   15  C   UNL     1     -41.162  53.635 -51.368  1.00  0.00     0.019 C 
HETATM   16  C   UNL     1     -43.340  54.467 -50.505  1.00  0.00     0.019 C 
ENDBRANCH   9  13
BRANCH  12  17
HETATM   17  O   UNL     1     -41.237  59.288 -54.366  1.00  0.00    -0.354 OA
HETATM   18  C   UNL     1     -42.112  60.403 -54.237  1.00  0.00     0.210 C 
ENDBRANCH  12  17
ENDBRANCH   1   7
BRANCH   3  19
HETATM   19  C   UNL     1     -42.387  57.643 -58.060  1.00  0.00     0.146 C 
BRANCH  19  20
HETATM   20  C   UNL     1     -42.491  57.547 -59.578  1.00  0.00     0.170 C 
BRANCH  20  21
HETATM   21  N   UNL     1     -43.681  56.828 -59.992  1.00  0.00    -0.278 N 
HETATM   22  N   UNL     1     -43.598  55.520 -60.308  1.00  0.00    -0.184 NA
HETATM   23  C   UNL     1     -44.861  55.190 -60.601  1.00  0.00     0.164 A 
HETATM   24  C   UNL     1     -45.738  56.282 -60.485  1.00  0.00     0.070 A 
HETATM   25 CL   UNL     1     -47.403  56.276 -60.769  1.00  0.00    -0.081 Cl
HETATM   26  C   UNL     1     -44.946  57.333 -60.091  1.00  0.00     0.137 A 
ENDBRANCH  20  21
ENDBRANCH  19  20
ENDBRANCH   3  19
TORSDOF 6
ENDMDL
MODEL 8
REMARK VINA RESULT:      -6.1      2.474      4.144
REMARK  6 active torsions:
REMARK  status: ('A' for Active; 'I' for Inactive)
REMARK    1  A    between atoms: C_2  and  C_3 
REMARK    2  A    between atoms: C_5  and  N_6 
REMARK       I    between atoms: N_6  and  C_7 
REMARK       I    between atoms: C_7  and  N_8 
REMARK    3  A    between atoms: N_8  and  C_9 
REMARK    4  A    between atoms: C_9  and  C_10 
REMARK    5  A    between atoms: C_10  and  N_11 
REMARK    6  A    between atoms: C_18  and  O_19 
ROOT
HETATM    1  N   UNL     1     -42.067  57.872 -53.302  1.00  0.00    -0.306 N 
HETATM    2  C   UNL     1     -41.332  59.019 -53.307  1.00  0.00     0.320 C 
HETATM    3  N   UNL     1     -42.055  60.178 -53.253  1.00  0.00    -0.341 N 
HETATM    4  O   UNL     1     -40.110  59.109 -53.374  1.00  0.00    -0.247 OA
HETATM    5  H   UNL     1     -43.017  57.939 -53.647  1.00  0.00     0.171 HD
HETATM    6  H   UNL     1     -41.419  60.967 -53.238  1.00  0.00     0.164 HD
ENDROOT
BRANCH   1   7
HETATM    7  C   UNL     1     -41.597  56.546 -53.180  1.00  0.00     0.070 A 
HETATM    8  C   UNL     1     -41.313  55.954 -51.944  1.00  0.00     0.040 A 
HETATM    9  C   UNL     1     -40.883  54.614 -51.844  1.00  0.00    -0.048 A 
HETATM   10  C   UNL     1     -40.745  53.893 -53.039  1.00  0.00     0.011 A 
HETATM   11  C   UNL     1     -41.031  54.474 -54.283  1.00  0.00     0.039 A 
HETATM   12  C   UNL     1     -41.464  55.797 -54.361  1.00  0.00     0.095 A 
BRANCH   9  13
HETATM   13  C   UNL     1     -40.610  53.998 -50.460  1.00  0.00    -0.024 C 
HETATM   14  C   UNL     1     -40.550  52.460 -50.589  1.00  0.00     0.019 C 
HETATM   15  C   UNL     1     -41.738  54.383 -49.477  1.00  0.00     0.019 C 
HETATM   16  C   UNL     1     -39.278  54.456 -49.826  1.00  0.00     0.019 C 
ENDBRANCH   9  13
BRANCH  12  17
HETATM   17  O   UNL     1     -41.779  56.459 -55.525  1.00  0.00    -0.354 OA
HETATM   18  C   UNL     1     -42.606  55.770 -56.455  1.00  0.00     0.210 C 
ENDBRANCH  12  17
ENDBRANCH   1   7
BRANCH   3  19
HETATM   19  C   UNL     1     -43.325  60.361 -52.558  1.00  0.00     0.146 C 
BRANCH  19  20
HETATM   20  C   UNL     1     -44.440  60.785 -53.507  1.00  0.00     0.170 C 
BRANCH  20  21
HETATM   21  N   UNL     1     -44.808  59.719 -54.418  1.00  0.00    -0.278 N 
HETATM   22  N   UNL     1     -44.914  58.454 -53.962  1.00  0.00    -0.184 NA
HETATM   23  C   UNL     1     -45.293  57.764 -55.044  1.00  0.00     0.164 A 
HETATM   24  C   UNL     1     -45.415  58.581 -56.181  1.00  0.00     0.070 A 
HETATM   25 CL   UNL     1     -45.867  58.092 -57.734  1.00  0.00    -0.081 Cl
HETATM   26  C   UNL     1     -45.091  59.843 -55.748  1.00  0.00     0.137 A 
ENDBRANCH  20  21
ENDBRANCH  19  20
ENDBRANCH   3  19
TORSDOF 6
ENDMDL
MODEL 9
REMARK VINA RESULT:      -6.1      4.402      6.097
REMARK  6 active torsions:
REMARK  status: ('A' for Active; 'I' for Inactive)
REMARK    1  A    between atoms: C_2  and  C_3 
REMARK    2  A    between atoms: C_5  and  N_6 
REMARK       I    between atoms: N_6  and  C_7 
REMARK       I    between atoms: C_7  and  N_8 
REMARK    3  A    between atoms: N_8  and  C_9 
REMARK    4  A    between atoms: C_9  and  C_10 
REMARK    5  A    between atoms: C_10  and  N_11 
REMARK    6  A    between atoms: C_18  and  O_19 
ROOT
HETATM    1  N   UNL     1     -43.516  58.749 -50.912  1.00  0.00    -0.306 N 
HETATM    2  C   UNL     1     -44.850  58.568 -50.703  1.00  0.00     0.320 C 
HETATM    3  N   UNL     1     -45.478  59.576 -50.024  1.00  0.00    -0.341 N 
HETATM    4  O   UNL     1     -45.523  57.599 -51.041  1.00  0.00    -0.247 OA
HETATM    5  H   UNL     1     -43.031  59.352 -50.259  1.00  0.00     0.171 HD
HETATM    6  H   UNL     1     -46.464  59.358 -49.943  1.00  0.00     0.164 HD
ENDROOT
BRANCH   1   7
HETATM    7  C   UNL     1     -42.655  57.972 -51.718  1.00  0.00     0.070 A 
HETATM    8  C   UNL     1     -42.585  56.577 -51.626  1.00  0.00     0.040 A 
HETATM    9  C   UNL     1     -41.746  55.819 -52.470  1.00  0.00    -0.048 A 
HETATM   10  C   UNL     1     -40.977  56.520 -53.409  1.00  0.00     0.011 A 
HETATM   11  C   UNL     1     -41.043  57.917 -53.514  1.00  0.00     0.039 A 
HETATM   12  C   UNL     1     -41.884  58.649 -52.678  1.00  0.00     0.095 A 
BRANCH   9  13
HETATM   13  C   UNL     1     -41.724  54.284 -52.349  1.00  0.00    -0.024 C 
HETATM   14  C   UNL     1     -40.449  53.850 -51.592  1.00  0.00     0.019 C 
HETATM   15  C   UNL     1     -41.724  53.643 -53.754  1.00  0.00     0.019 C 
HETATM   16  C   UNL     1     -42.932  53.702 -51.582  1.00  0.00     0.019 C 
ENDBRANCH   9  13
BRANCH  12  17
HETATM   17  O   UNL     1     -42.030  60.016 -52.703  1.00  0.00    -0.354 OA
HETATM   18  C   UNL     1     -42.479  60.594 -53.923  1.00  0.00     0.210 C 
ENDBRANCH  12  17
ENDBRANCH   1   7
BRANCH   3  19
HETATM   19  C   UNL     1     -45.135  60.993 -50.089  1.00  0.00     0.146 C 
BRANCH  19  20
HETATM   20  C   UNL     1     -45.968  61.827 -49.123  1.00  0.00     0.170 C 
BRANCH  20  21
HETATM   21  N   UNL     1     -45.733  61.450 -47.743  1.00  0.00    -0.278 N 
HETATM   22  N   UNL     1     -46.238  60.293 -47.268  1.00  0.00    -0.184 NA
HETATM   23  C   UNL     1     -45.802  60.260 -46.003  1.00  0.00     0.164 A 
HETATM   24  C   UNL     1     -45.038  61.392 -45.673  1.00  0.00     0.070 A 
HETATM   25 CL   UNL     1     -44.316  61.724 -44.181  1.00  0.00    -0.081 Cl
HETATM   26  C   UNL     1     -45.011  62.150 -46.818  1.00  0.00     0.137 A 
ENDBRANCH  20  21
ENDBRANCH  19  20
ENDBRANCH   3  19
TORSDOF 6
ENDMDL
MODEL 10
REMARK VINA RESULT:      -6.0      2.341      3.223
REMARK  6 active torsions:
REMARK  status: ('A' for Active; 'I' for Inactive)
REMARK    1  A    between atoms: C_2  and  C_3 
REMARK    2  A    between atoms: C_5  and  N_6 
REMARK       I    between atoms: N_6  and  C_7 
REMARK       I    between atoms: C_7  and  N_8 
REMARK    3  A    between atoms: N_8  and  C_9 
REMARK    4  A    between atoms: C_9  and  C_10 
REMARK    5  A    between atoms: C_10  and  N_11 
REMARK    6  A    between atoms: C_18  and  O_19 
ROOT
HETATM    1  N   UNL     1     -42.912  54.677 -53.099  1.00  0.00    -0.306 N 
HETATM    2  C   UNL     1     -43.378  54.778 -54.376  1.00  0.00     0.320 C 
HETATM    3  N   UNL     1     -44.320  55.748 -54.579  1.00  0.00    -0.341 N 
HETATM    4  O   UNL     1     -43.054  54.084 -55.334  1.00  0.00    -0.247 OA
HETATM    5  H   UNL     1     -43.526  55.005 -52.363  1.00  0.00     0.171 HD
HETATM    6  H   UNL     1     -44.581  55.757 -55.558  1.00  0.00     0.164 HD
ENDROOT
BRANCH   1   7
HETATM    7  C   UNL     1     -41.831  53.896 -52.634  1.00  0.00     0.070 A 
HETATM    8  C   UNL     1     -41.430  52.709 -53.257  1.00  0.00     0.040 A 
HETATM    9  C   UNL     1     -40.322  51.967 -52.799  1.00  0.00    -0.048 A 
HETATM   10  C   UNL     1     -39.633  52.465 -51.683  1.00  0.00     0.011 A 
HETATM   11  C   UNL     1     -40.022  53.655 -51.053  1.00  0.00     0.039 A 
HETATM   12  C   UNL     1     -41.115  54.380 -51.526  1.00  0.00     0.095 A 
BRANCH   9  13
HETATM   13  C   UNL     1     -39.902  50.681 -53.534  1.00  0.00    -0.024 C 
HETATM   14  C   UNL     1     -38.624  50.957 -54.356  1.00  0.00     0.019 C 
HETATM   15  C   UNL     1     -41.030  50.224 -54.486  1.00  0.00     0.019 C 
HETATM   16  C   UNL     1     -39.594  49.497 -52.592  1.00  0.00     0.019 C 
ENDBRANCH   9  13
BRANCH  12  17
HETATM   17  O   UNL     1     -41.573  55.561 -50.990  1.00  0.00    -0.354 OA
HETATM   18  C   UNL     1     -41.347  55.769 -49.601  1.00  0.00     0.210 C 
ENDBRANCH  12  17
ENDBRANCH   1   7
BRANCH   3  19
HETATM   19  C   UNL     1     -44.394  57.028 -53.881  1.00  0.00     0.146 C 
BRANCH  19  20
HETATM   20  C   UNL     1     -43.261  57.965 -54.283  1.00  0.00     0.170 C 
BRANCH  20  21
HETATM   21  N   UNL     1     -42.496  58.411 -53.136  1.00  0.00    -0.278 N 
HETATM   22  N   UNL     1     -43.134  58.766 -52.001  1.00  0.00    -0.184 NA
HETATM   23  C   UNL     1     -42.136  59.081 -51.168  1.00  0.00     0.164 A 
HETATM   24  C   UNL     1     -40.874  58.940 -51.771  1.00  0.00     0.070 A 
HETATM   25 CL   UNL     1     -39.373  59.241 -51.055  1.00  0.00    -0.081 Cl
HETATM   26  C   UNL     1     -41.137  58.508 -53.048  1.00  0.00     0.137 A 
ENDBRANCH  20  21
ENDBRANCH  19  20
ENDBRANCH   3  19
TORSDOF 6
ENDMDL
