MODEL 1
REMARK VINA RESULT:      -8.8      0.000      0.000
REMARK  4 active torsions:
REMARK  status: ('A' for Active; 'I' for Inactive)
REMARK    1  A    between atoms: C_3  and  C_4 
REMARK    2  A    between atoms: C_5  and  C_6 
REMARK       I    between atoms: C_6  and  N_7 
REMARK    3  A    between atoms: N_7  and  C_8 
REMARK    4  A    between atoms: C_15  and  C_16 
REMARK       I    between atoms: C_16  and  N_17 
ROOT
HETATM    1  C   UNL     1     -43.175  56.004 -54.932  1.00  0.00     0.035 A 
HETATM    2  C   UNL     1     -42.897  55.932 -56.303  1.00  0.00     0.046 A 
HETATM    3  C   UNL     1     -43.372  56.943 -57.167  1.00  0.00     0.030 A 
HETATM    4  C   UNL     1     -44.107  57.992 -56.630  1.00  0.00     0.063 A 
HETATM    5  N   UNL     1     -44.411  58.801 -57.690  1.00  0.00    -0.277 N 
HETATM    6  H   UNL     1     -44.936  59.667 -57.670  1.00  0.00     0.189 HD
HETATM    7  N   UNL     1     -43.946  58.367 -58.873  1.00  0.00    -0.168 NA
HETATM    8  C   UNL     1     -43.300  57.217 -58.566  1.00  0.00     0.156 A 
HETATM    9  C   UNL     1     -44.410  58.093 -55.272  1.00  0.00     0.034 A 
HETATM   10  C   UNL     1     -43.931  57.075 -54.436  1.00  0.00     0.032 A 
ENDROOT
BRANCH   1  11
HETATM   11  N   UNL     1     -42.713  55.058 -53.990  1.00  0.00    -0.327 N 
HETATM   12  C   UNL     1     -42.005  55.312 -52.838  1.00  0.00     0.227 C 
HETATM   13  O   UNL     1     -41.562  56.384 -52.455  1.00  0.00    -0.273 OA
HETATM   14  H   UNL     1     -42.970  54.098 -54.160  1.00  0.00     0.169 HD
BRANCH  12  15
HETATM   15  C   UNL     1     -41.777  54.130 -51.962  1.00  0.00     0.087 A 
HETATM   16  C   UNL     1     -40.329  53.652 -51.863  1.00  0.00     0.034 A 
HETATM   17  C   UNL     1     -41.077  54.098 -50.633  1.00  0.00     0.025 A 
BRANCH  16  18
HETATM   18  C   UNL     1     -40.012  52.202 -52.157  1.00  0.00    -0.031 A 
HETATM   19  C   UNL     1     -39.854  51.300 -51.085  1.00  0.00     0.009 A 
HETATM   20  C   UNL     1     -39.613  49.940 -51.293  1.00  0.00     0.001 A 
HETATM   21  C   UNL     1     -39.532  49.440 -52.588  1.00  0.00     0.002 A 
HETATM   22  C   UNL     1     -39.696  50.302 -53.670  1.00  0.00     0.024 A 
HETATM   23  C   UNL     1     -39.939  51.664 -53.456  1.00  0.00     0.040 A 
HETATM   24 CL   UNL     1     -40.184  52.658 -54.851  1.00  0.00    -0.084 Cl
ENDBRANCH  16  18
ENDBRANCH  12  15
ENDBRANCH   1  11
BRANCH   8  25
HETATM   25  C   UNL     1     -42.638  56.416 -59.605  1.00  0.00     0.270 C 
HETATM   26  N   UNL     1     -41.454  56.938 -60.045  1.00  0.00    -0.365 N 
HETATM   27  H   UNL     1     -41.128  57.810 -59.644  1.00  0.00     0.159 HD
HETATM   28  H   UNL     1     -40.932  56.457 -60.761  1.00  0.00     0.159 HD
HETATM   29  O   UNL     1     -43.075  55.366 -60.064  1.00  0.00    -0.266 OA
ENDBRANCH   8  25
TORSDOF 4
ENDMDL
MODEL 2
REMARK VINA RESULT:      -8.8      3.282      4.717
REMARK  4 active torsions:
REMARK  status: ('A' for Active; 'I' for Inactive)
REMARK    1  A    between atoms: C_3  and  C_4 
REMARK    2  A    between atoms: C_5  and  C_6 
REMARK       I    between atoms: C_6  and  N_7 
REMARK    3  A    between atoms: N_7  and  C_8 
REMARK    4  A    between atoms: C_15  and  C_16 
REMARK       I    between atoms: C_16  and  N_17 
ROOT
HETATM    1  C   UNL     1     -43.470  56.281 -52.727  1.00  0.00     0.035 A 
HETATM    2  C   UNL     1     -44.024  57.243 -51.870  1.00  0.00     0.046 A 
HETATM    3  C   UNL     1     -44.733  58.337 -52.412  1.00  0.00     0.030 A 
HETATM    4  C   UNL     1     -44.865  58.432 -53.792  1.00  0.00     0.063 A 
HETATM    5  N   UNL     1     -45.596  59.567 -54.007  1.00  0.00    -0.277 N 
HETATM    6  H   UNL     1     -45.890  59.947 -54.899  1.00  0.00     0.189 HD
HETATM    7  N   UNL     1     -45.945  60.226 -52.890  1.00  0.00    -0.168 NA
HETATM    8  C   UNL     1     -45.417  59.477 -51.894  1.00  0.00     0.156 A 
HETATM    9  C   UNL     1     -44.321  57.498 -54.675  1.00  0.00     0.034 A 
HETATM   10  C   UNL     1     -43.619  56.425 -54.113  1.00  0.00     0.032 A 
ENDROOT
BRANCH   1  11
HETATM   11  N   UNL     1     -42.775  55.138 -52.273  1.00  0.00    -0.327 N 
HETATM   12  C   UNL     1     -41.737  55.102 -51.372  1.00  0.00     0.227 C 
HETATM   13  O   UNL     1     -41.158  56.048 -50.861  1.00  0.00    -0.273 OA
HETATM   14  H   UNL     1     -43.108  54.249 -52.616  1.00  0.00     0.169 HD
BRANCH  12  15
HETATM   15  C   UNL     1     -41.293  53.738 -50.972  1.00  0.00     0.087 A 
HETATM   16  C   UNL     1     -39.931  53.303 -51.512  1.00  0.00     0.034 A 
HETATM   17  C   UNL     1     -40.182  53.378 -50.028  1.00  0.00     0.025 A 
BRANCH  16  18
HETATM   18  C   UNL     1     -39.823  51.996 -52.266  1.00  0.00    -0.031 A 
HETATM   19  C   UNL     1     -39.586  50.805 -51.551  1.00  0.00     0.009 A 
HETATM   20  C   UNL     1     -39.529  49.562 -52.185  1.00  0.00     0.001 A 
HETATM   21  C   UNL     1     -39.717  49.474 -53.560  1.00  0.00     0.002 A 
HETATM   22  C   UNL     1     -39.966  50.631 -54.295  1.00  0.00     0.024 A 
HETATM   23  C   UNL     1     -40.025  51.875 -53.655  1.00  0.00     0.040 A 
HETATM   24 CL   UNL     1     -40.391  53.256 -54.630  1.00  0.00    -0.084 Cl
ENDBRANCH  16  18
ENDBRANCH  12  15
ENDBRANCH   1  11
BRANCH   8  25
HETATM   25  C   UNL     1     -45.576  59.864 -50.484  1.00  0.00     0.270 C 
HETATM   26  N   UNL     1     -44.991  61.057 -50.162  1.00  0.00    -0.365 N 
HETATM   27  H   UNL     1     -44.504  61.570 -50.886  1.00  0.00     0.159 HD
HETATM   28  H   UNL     1     -45.046  61.399 -49.215  1.00  0.00     0.159 HD
HETATM   29  O   UNL     1     -46.173  59.203 -49.641  1.00  0.00    -0.266 OA
ENDBRANCH   8  25
TORSDOF 4
ENDMDL
MODEL 3
REMARK VINA RESULT:      -8.7      1.929      2.472
REMARK  4 active torsions:
REMARK  status: ('A' for Active; 'I' for Inactive)
REMARK    1  A    between atoms: C_3  and  C_4 
REMARK    2  A    between atoms: C_5  and  C_6 
REMARK       I    between atoms: C_6  and  N_7 
REMARK    3  A    between atoms: N_7  and  C_8 
REMARK    4  A    between atoms: C_15  and  C_16 
REMARK       I    between atoms: C_16  and  N_17 
ROOT
HETATM    1  C   UNL     1     -42.718  55.906 -56.454  1.00  0.00     0.035 A 
HETATM    2  C   UNL     1     -43.346  55.397 -57.600  1.00  0.00     0.046 A 
HETATM    3  C   UNL     1     -43.477  56.211 -58.746  1.00  0.00     0.030 A 
HETATM    4  C   UNL     1     -42.974  57.506 -58.708  1.00  0.00     0.063 A 
HETATM    5  N   UNL     1     -43.235  58.031 -59.944  1.00  0.00    -0.277 N 
HETATM    6  H   UNL     1     -43.002  58.959 -60.277  1.00  0.00     0.189 HD
HETATM    7  N   UNL     1     -43.871  57.196 -60.781  1.00  0.00    -0.168 NA
HETATM    8  C   UNL     1     -44.029  56.065 -60.053  1.00  0.00     0.156 A 
HETATM    9  C   UNL     1     -42.349  58.048 -57.584  1.00  0.00     0.034 A 
HETATM   10  C   UNL     1     -42.236  57.222 -56.459  1.00  0.00     0.032 A 
ENDROOT
BRANCH   1  11
HETATM   11  N   UNL     1     -42.513  55.154 -55.276  1.00  0.00    -0.327 N 
HETATM   12  C   UNL     1     -43.135  55.329 -54.061  1.00  0.00     0.227 C 
HETATM   13  O   UNL     1     -43.910  56.217 -53.741  1.00  0.00    -0.273 OA
HETATM   14  H   UNL     1     -41.874  54.376 -55.349  1.00  0.00     0.169 HD
BRANCH  12  15
HETATM   15  C   UNL     1     -42.825  54.294 -53.037  1.00  0.00     0.087 A 
HETATM   16  C   UNL     1     -41.347  54.139 -52.681  1.00  0.00     0.034 A 
HETATM   17  C   UNL     1     -42.357  54.515 -51.627  1.00  0.00     0.025 A 
BRANCH  16  18
HETATM   18  C   UNL     1     -40.712  52.770 -52.765  1.00  0.00    -0.031 A 
HETATM   19  C   UNL     1     -40.617  52.129 -54.017  1.00  0.00     0.009 A 
HETATM   20  C   UNL     1     -39.993  50.888 -54.166  1.00  0.00     0.001 A 
HETATM   21  C   UNL     1     -39.437  50.253 -53.062  1.00  0.00     0.002 A 
HETATM   22  C   UNL     1     -39.501  50.865 -51.812  1.00  0.00     0.024 A 
HETATM   23  C   UNL     1     -40.125  52.110 -51.667  1.00  0.00     0.040 A 
HETATM   24 CL   UNL     1     -40.117  52.827 -50.093  1.00  0.00    -0.084 Cl
ENDBRANCH  16  18
ENDBRANCH  12  15
ENDBRANCH   1  11
BRANCH   8  25
HETATM   25  C   UNL     1     -44.697  54.884 -60.618  1.00  0.00     0.270 C 
HETATM   26  N   UNL     1     -45.071  53.954 -59.687  1.00  0.00    -0.365 N 
HETATM   27  H   UNL     1     -44.867  54.134 -58.712  1.00  0.00     0.159 HD
HETATM   28  H   UNL     1     -45.532  53.108 -59.985  1.00  0.00     0.159 HD
HETATM   29  O   UNL     1     -44.919  54.708 -61.811  1.00  0.00    -0.266 OA
ENDBRANCH   8  25
TORSDOF 4
ENDMDL
MODEL 4
REMARK VINA RESULT:      -8.5      1.930      2.379
REMARK  4 active torsions:
REMARK  status: ('A' for Active; 'I' for Inactive)
REMARK    1  A    between atoms: C_3  and  C_4 
REMARK    2  A    between atoms: C_5  and  C_6 
REMARK       I    between atoms: C_6  and  N_7 
REMARK    3  A    between atoms: N_7  and  C_8 
REMARK    4  A    between atoms: C_15  and  C_16 
REMARK       I    between atoms: C_16  and  N_17 
ROOT
HETATM    1  C   UNL     1     -41.387  56.947 -53.089  1.00  0.00     0.035 A 
HETATM    2  C   UNL     1     -41.900  56.962 -54.393  1.00  0.00     0.046 A 
HETATM    3  C   UNL     1     -42.086  58.194 -55.057  1.00  0.00     0.030 A 
HETATM    4  C   UNL     1     -41.751  59.369 -54.396  1.00  0.00     0.063 A 
HETATM    5  N   UNL     1     -42.026  60.373 -55.282  1.00  0.00    -0.277 N 
HETATM    6  H   UNL     1     -41.898  61.368 -55.140  1.00  0.00     0.189 HD
HETATM    7  N   UNL     1     -42.519  59.958 -56.460  1.00  0.00    -0.168 NA
HETATM    8  C   UNL     1     -42.563  58.611 -56.336  1.00  0.00     0.156 A 
HETATM    9  C   UNL     1     -41.244  59.392 -53.096  1.00  0.00     0.034 A 
HETATM   10  C   UNL     1     -41.073  58.158 -52.457  1.00  0.00     0.032 A 
ENDROOT
BRANCH   1  11
HETATM   11  N   UNL     1     -41.137  55.763 -52.361  1.00  0.00    -0.327 N 
HETATM   12  C   UNL     1     -42.013  55.093 -51.539  1.00  0.00     0.227 C 
HETATM   13  O   UNL     1     -43.138  55.437 -51.209  1.00  0.00    -0.273 OA
HETATM   14  H   UNL     1     -40.230  55.340 -52.495  1.00  0.00     0.169 HD
BRANCH  12  15
HETATM   15  C   UNL     1     -41.520  53.790 -51.014  1.00  0.00     0.087 A 
HETATM   16  C   UNL     1     -40.107  53.398 -51.445  1.00  0.00     0.034 A 
HETATM   17  C   UNL     1     -40.448  53.566 -49.986  1.00  0.00     0.025 A 
BRANCH  16  18
HETATM   18  C   UNL     1     -39.884  52.049 -52.091  1.00  0.00    -0.031 A 
HETATM   19  C   UNL     1     -39.699  50.915 -51.274  1.00  0.00     0.009 A 
HETATM   20  C   UNL     1     -39.541  49.635 -51.811  1.00  0.00     0.001 A 
HETATM   21  C   UNL     1     -39.574  49.452 -53.189  1.00  0.00     0.002 A 
HETATM   22  C   UNL     1     -39.768  50.549 -54.024  1.00  0.00     0.024 A 
HETATM   23  C   UNL     1     -39.928  51.830 -53.482  1.00  0.00     0.040 A 
HETATM   24 CL   UNL     1     -40.217  53.132 -54.584  1.00  0.00    -0.084 Cl
ENDBRANCH  16  18
ENDBRANCH  12  15
ENDBRANCH   1  11
BRANCH   8  25
HETATM   25  C   UNL     1     -43.056  57.761 -57.430  1.00  0.00     0.270 C 
HETATM   26  N   UNL     1     -44.325  57.289 -57.244  1.00  0.00    -0.365 N 
HETATM   27  H   UNL     1     -44.819  57.543 -56.397  1.00  0.00     0.159 HD
HETATM   28  H   UNL     1     -44.743  56.694 -57.942  1.00  0.00     0.159 HD
HETATM   29  O   UNL     1     -42.416  57.477 -58.437  1.00  0.00    -0.266 OA
ENDBRANCH   8  25
TORSDOF 4
ENDMDL
MODEL 5
REMARK VINA RESULT:      -8.4      4.109      4.975
REMARK  4 active torsions:
REMARK  status: ('A' for Active; 'I' for Inactive)
REMARK    1  A    between atoms: C_3  and  C_4 
REMARK    2  A    between atoms: C_5  and  C_6 
REMARK       I    between atoms: C_6  and  N_7 
REMARK    3  A    between atoms: N_7  and  C_8 
REMARK    4  A    between atoms: C_15  and  C_16 
REMARK       I    between atoms: C_16  and  N_17 
ROOT
HETATM    1  C   UNL     1     -42.136  57.490 -50.881  1.00  0.00     0.035 A 
HETATM    2  C   UNL     1     -43.311  58.075 -51.371  1.00  0.00     0.046 A 
HETATM    3  C   UNL     1     -43.390  59.479 -51.503  1.00  0.00     0.030 A 
HETATM    4  C   UNL     1     -42.292  60.249 -51.142  1.00  0.00     0.063 A 
HETATM    5  N   UNL     1     -42.660  61.542 -51.388  1.00  0.00    -0.277 N 
HETATM    6  H   UNL     1     -42.103  62.376 -51.246  1.00  0.00     0.189 HD
HETATM    7  N   UNL     1     -43.905  61.685 -51.871  1.00  0.00    -0.168 NA
HETATM    8  C   UNL     1     -44.371  60.416 -51.947  1.00  0.00     0.156 A 
HETATM    9  C   UNL     1     -41.109  59.701 -50.643  1.00  0.00     0.034 A 
HETATM   10  C   UNL     1     -41.057  58.307 -50.517  1.00  0.00     0.032 A 
ENDROOT
BRANCH   1  11
HETATM   11  N   UNL     1     -41.954  56.095 -50.747  1.00  0.00    -0.327 N 
HETATM   12  C   UNL     1     -41.742  55.185 -51.756  1.00  0.00     0.227 C 
HETATM   13  O   UNL     1     -41.759  55.389 -52.960  1.00  0.00    -0.273 OA
HETATM   14  H   UNL     1     -41.935  55.737 -49.804  1.00  0.00     0.169 HD
BRANCH  12  15
HETATM   15  C   UNL     1     -41.441  53.798 -51.306  1.00  0.00     0.087 A 
HETATM   16  C   UNL     1     -40.023  53.305 -51.591  1.00  0.00     0.034 A 
HETATM   17  C   UNL     1     -40.542  53.378 -50.178  1.00  0.00     0.025 A 
BRANCH  16  18
HETATM   18  C   UNL     1     -39.835  52.002 -52.336  1.00  0.00    -0.031 A 
HETATM   19  C   UNL     1     -39.666  50.809 -51.604  1.00  0.00     0.009 A 
HETATM   20  C   UNL     1     -39.541  49.568 -52.234  1.00  0.00     0.001 A 
HETATM   21  C   UNL     1     -39.590  49.486 -53.621  1.00  0.00     0.002 A 
HETATM   22  C   UNL     1     -39.768  50.644 -54.373  1.00  0.00     0.024 A 
HETATM   23  C   UNL     1     -39.895  51.885 -53.738  1.00  0.00     0.040 A 
HETATM   24 CL   UNL     1     -40.167  53.269 -54.740  1.00  0.00    -0.084 Cl
ENDBRANCH  16  18
ENDBRANCH  12  15
ENDBRANCH   1  11
BRANCH   8  25
HETATM   25  C   UNL     1     -45.727  60.131 -52.436  1.00  0.00     0.270 C 
HETATM   26  N   UNL     1     -45.794  59.861 -53.775  1.00  0.00    -0.365 N 
HETATM   27  H   UNL     1     -44.939  59.878 -54.317  1.00  0.00     0.159 HD
HETATM   28  H   UNL     1     -46.686  59.658 -54.198  1.00  0.00     0.159 HD
HETATM   29  O   UNL     1     -46.736  60.127 -51.739  1.00  0.00    -0.266 OA
ENDBRANCH   8  25
TORSDOF 4
ENDMDL
MODEL 6
REMARK VINA RESULT:      -8.3      2.434      3.294
REMARK  4 active torsions:
REMARK  status: ('A' for Active; 'I' for Inactive)
REMARK    1  A    between atoms: C_3  and  C_4 
REMARK    2  A    between atoms: C_5  and  C_6 
REMARK       I    between atoms: C_6  and  N_7 
REMARK    3  A    between atoms: N_7  and  C_8 
REMARK    4  A    between atoms: C_15  and  C_16 
REMARK       I    between atoms: C_16  and  N_17 
ROOT
HETATM    1  C   UNL     1     -42.670  56.332 -56.910  1.00  0.00     0.035 A 
HETATM    2  C   UNL     1     -42.252  57.670 -56.932  1.00  0.00     0.046 A 
HETATM    3  C   UNL     1     -42.391  58.426 -58.116  1.00  0.00     0.030 A 
HETATM    4  C   UNL     1     -42.943  57.819 -59.238  1.00  0.00     0.063 A 
HETATM    5  N   UNL     1     -42.956  58.788 -60.203  1.00  0.00    -0.277 N 
HETATM    6  H   UNL     1     -43.297  58.702 -61.153  1.00  0.00     0.189 HD
HETATM    7  N   UNL     1     -42.454  59.970 -59.813  1.00  0.00    -0.168 NA
HETATM    8  C   UNL     1     -42.098  59.762 -58.523  1.00  0.00     0.156 A 
HETATM    9  C   UNL     1     -43.362  56.488 -59.254  1.00  0.00     0.034 A 
HETATM   10  C   UNL     1     -43.210  55.758 -58.069  1.00  0.00     0.032 A 
ENDROOT
BRANCH   1  11
HETATM   11  N   UNL     1     -42.601  55.511 -55.763  1.00  0.00    -0.327 N 
HETATM   12  C   UNL     1     -43.402  55.575 -54.646  1.00  0.00     0.227 C 
HETATM   13  O   UNL     1     -44.262  56.405 -54.392  1.00  0.00    -0.273 OA
HETATM   14  H   UNL     1     -41.918  54.768 -55.786  1.00  0.00     0.169 HD
BRANCH  12  15
HETATM   15  C   UNL     1     -43.192  54.487 -53.652  1.00  0.00     0.087 A 
HETATM   16  C   UNL     1     -41.819  54.460 -52.984  1.00  0.00     0.034 A 
HETATM   17  C   UNL     1     -43.071  54.621 -52.162  1.00  0.00     0.025 A 
BRANCH  16  18
HETATM   18  C   UNL     1     -41.011  53.181 -53.017  1.00  0.00    -0.031 A 
HETATM   19  C   UNL     1     -40.996  52.405 -54.193  1.00  0.00     0.009 A 
HETATM   20  C   UNL     1     -40.228  51.243 -54.302  1.00  0.00     0.001 A 
HETATM   21  C   UNL     1     -39.442  50.828 -53.234  1.00  0.00     0.002 A 
HETATM   22  C   UNL     1     -39.424  51.579 -52.061  1.00  0.00     0.024 A 
HETATM   23  C   UNL     1     -40.194  52.744 -51.956  1.00  0.00     0.040 A 
HETATM   24 CL   UNL     1     -40.075  53.649 -50.486  1.00  0.00    -0.084 Cl
ENDBRANCH  16  18
ENDBRANCH  12  15
ENDBRANCH   1  11
BRANCH   8  25
HETATM   25  C   UNL     1     -41.493  60.833 -57.718  1.00  0.00     0.270 C 
HETATM   26  N   UNL     1     -42.154  61.096 -56.549  1.00  0.00    -0.365 N 
HETATM   27  H   UNL     1     -42.984  60.558 -56.329  1.00  0.00     0.159 HD
HETATM   28  H   UNL     1     -41.813  61.818 -55.936  1.00  0.00     0.159 HD
HETATM   29  O   UNL     1     -40.487  61.460 -58.030  1.00  0.00    -0.266 OA
ENDBRANCH   8  25
TORSDOF 4
ENDMDL
MODEL 7
REMARK VINA RESULT:      -8.3      2.935      3.428
REMARK  4 active torsions:
REMARK  status: ('A' for Active; 'I' for Inactive)
REMARK    1  A    between atoms: C_3  and  C_4 
REMARK    2  A    between atoms: C_5  and  C_6 
REMARK       I    between atoms: C_6  and  N_7 
REMARK    3  A    between atoms: N_7  and  C_8 
REMARK    4  A    between atoms: C_15  and  C_16 
REMARK       I    between atoms: C_16  and  N_17 
ROOT
HETATM    1  C   UNL     1     -43.409  56.560 -51.986  1.00  0.00     0.035 A 
HETATM    2  C   UNL     1     -43.061  57.391 -53.060  1.00  0.00     0.046 A 
HETATM    3  C   UNL     1     -43.740  58.615 -53.245  1.00  0.00     0.030 A 
HETATM    4  C   UNL     1     -44.743  58.968 -52.349  1.00  0.00     0.063 A 
HETATM    5  N   UNL     1     -45.195  60.185 -52.775  1.00  0.00    -0.277 N 
HETATM    6  H   UNL     1     -45.925  60.749 -52.355  1.00  0.00     0.189 HD
HETATM    7  N   UNL     1     -44.583  60.655 -53.873  1.00  0.00    -0.168 NA
HETATM    8  C   UNL     1     -43.679  59.694 -54.177  1.00  0.00     0.156 A 
HETATM    9  C   UNL     1     -45.120  58.162 -51.275  1.00  0.00     0.034 A 
HETATM   10  C   UNL     1     -44.435  56.951 -51.115  1.00  0.00     0.032 A 
ENDROOT
BRANCH   1  11
HETATM   11  N   UNL     1     -42.763  55.336 -51.704  1.00  0.00    -0.327 N 
HETATM   12  C   UNL     1     -41.715  55.131 -50.837  1.00  0.00     0.227 C 
HETATM   13  O   UNL     1     -41.085  55.973 -50.217  1.00  0.00    -0.273 OA
HETATM   14  H   UNL     1     -43.143  54.517 -52.156  1.00  0.00     0.169 HD
BRANCH  12  15
HETATM   15  C   UNL     1     -41.331  53.707 -50.633  1.00  0.00     0.087 A 
HETATM   16  C   UNL     1     -39.966  53.305 -51.191  1.00  0.00     0.034 A 
HETATM   17  C   UNL     1     -40.266  53.169 -49.720  1.00  0.00     0.025 A 
BRANCH  16  18
HETATM   18  C   UNL     1     -39.876  52.122 -52.129  1.00  0.00    -0.031 A 
HETATM   19  C   UNL     1     -39.609  50.842 -51.600  1.00  0.00     0.009 A 
HETATM   20  C   UNL     1     -39.566  49.704 -52.408  1.00  0.00     0.001 A 
HETATM   21  C   UNL     1     -39.798  49.813 -53.774  1.00  0.00     0.002 A 
HETATM   22  C   UNL     1     -40.077  51.061 -54.327  1.00  0.00     0.024 A 
HETATM   23  C   UNL     1     -40.122  52.199 -53.513  1.00  0.00     0.040 A 
HETATM   24 CL   UNL     1     -40.527  53.703 -54.268  1.00  0.00    -0.084 Cl
ENDBRANCH  16  18
ENDBRANCH  12  15
ENDBRANCH   1  11
BRANCH   8  25
HETATM   25  C   UNL     1     -42.789  59.826 -55.339  1.00  0.00     0.270 C 
HETATM   26  N   UNL     1     -42.311  61.092 -55.537  1.00  0.00    -0.365 N 
HETATM   27  H   UNL     1     -42.595  61.824 -54.896  1.00  0.00     0.159 HD
HETATM   28  H   UNL     1     -41.696  61.277 -56.313  1.00  0.00     0.159 HD
HETATM   29  O   UNL     1     -42.477  58.908 -56.090  1.00  0.00    -0.266 OA
ENDBRANCH   8  25
TORSDOF 4
ENDMDL
MODEL 8
REMARK VINA RESULT:      -7.9      2.049      2.397
REMARK  4 active torsions:
REMARK  status: ('A' for Active; 'I' for Inactive)
REMARK    1  A    between atoms: C_3  and  C_4 
REMARK    2  A    between atoms: C_5  and  C_6 
REMARK       I    between atoms: C_6  and  N_7 
REMARK    3  A    between atoms: N_7  and  C_8 
REMARK    4  A    between atoms: C_15  and  C_16 
REMARK       I    between atoms: C_16  and  N_17 
ROOT
HETATM    1  C   UNL     1     -42.280  57.439 -55.336  1.00  0.00     0.035 A 
HETATM    2  C   UNL     1     -42.348  57.350 -56.733  1.00  0.00     0.046 A 
HETATM    3  C   UNL     1     -42.257  58.523 -57.513  1.00  0.00     0.030 A 
HETATM    4  C   UNL     1     -42.100  59.745 -56.871  1.00  0.00     0.063 A 
HETATM    5  N   UNL     1     -42.032  60.674 -57.872  1.00  0.00    -0.277 N 
HETATM    6  H   UNL     1     -41.913  61.675 -57.772  1.00  0.00     0.189 HD
HETATM    7  N   UNL     1     -42.140  60.167 -59.111  1.00  0.00    -0.168 NA
HETATM    8  C   UNL     1     -42.281  58.836 -58.906  1.00  0.00     0.156 A 
HETATM    9  C   UNL     1     -42.035  59.872 -55.483  1.00  0.00     0.034 A 
HETATM   10  C   UNL     1     -42.133  58.694 -54.731  1.00  0.00     0.032 A 
ENDROOT
BRANCH   1  11
HETATM   11  N   UNL     1     -42.328  56.318 -54.478  1.00  0.00    -0.327 N 
HETATM   12  C   UNL     1     -43.268  56.054 -53.509  1.00  0.00     0.227 C 
HETATM   13  O   UNL     1     -44.183  56.775 -53.141  1.00  0.00    -0.273 OA
HETATM   14  H   UNL     1     -41.621  55.613 -54.625  1.00  0.00     0.169 HD
BRANCH  12  15
HETATM   15  C   UNL     1     -43.147  54.722 -52.855  1.00  0.00     0.087 A 
HETATM   16  C   UNL     1     -41.823  54.455 -52.141  1.00  0.00     0.034 A 
HETATM   17  C   UNL     1     -43.125  54.425 -51.383  1.00  0.00     0.025 A 
BRANCH  16  18
HETATM   18  C   UNL     1     -41.040  53.208 -52.489  1.00  0.00    -0.031 A 
HETATM   19  C   UNL     1     -41.006  52.765 -53.827  1.00  0.00     0.009 A 
HETATM   20  C   UNL     1     -40.258  51.652 -54.218  1.00  0.00     0.001 A 
HETATM   21  C   UNL     1     -39.512  50.952 -53.277  1.00  0.00     0.002 A 
HETATM   22  C   UNL     1     -39.513  51.371 -51.948  1.00  0.00     0.024 A 
HETATM   23  C   UNL     1     -40.262  52.488 -51.561  1.00  0.00     0.040 A 
HETATM   24 CL   UNL     1     -40.168  52.975 -49.903  1.00  0.00    -0.084 Cl
ENDBRANCH  16  18
ENDBRANCH  12  15
ENDBRANCH   1  11
BRANCH   8  25
HETATM   25  C   UNL     1     -42.434  57.904 -60.032  1.00  0.00     0.270 C 
HETATM   26  N   UNL     1     -41.318  57.159 -60.297  1.00  0.00    -0.365 N 
HETATM   27  H   UNL     1     -40.494  57.296 -59.724  1.00  0.00     0.159 HD
HETATM   28  H   UNL     1     -41.331  56.496 -61.056  1.00  0.00     0.159 HD
HETATM   29  O   UNL     1     -43.453  57.777 -60.702  1.00  0.00    -0.266 OA
ENDBRANCH   8  25
TORSDOF 4
ENDMDL
MODEL 9
REMARK VINA RESULT:      -7.7      4.048      5.998
REMARK  4 active torsions:
REMARK  status: ('A' for Active; 'I' for Inactive)
REMARK    1  A    between atoms: C_3  and  C_4 
REMARK    2  A    between atoms: C_5  and  C_6 
REMARK       I    between atoms: C_6  and  N_7 
REMARK    3  A    between atoms: N_7  and  C_8 
REMARK    4  A    between atoms: C_15  and  C_16 
REMARK       I    between atoms: C_16  and  N_17 
ROOT
HETATM    1  C   UNL     1     -42.621  58.733 -53.125  1.00  0.00     0.035 A 
HETATM    2  C   UNL     1     -43.456  58.924 -52.016  1.00  0.00     0.046 A 
HETATM    3  C   UNL     1     -43.848  60.230 -51.652  1.00  0.00     0.030 A 
HETATM    4  C   UNL     1     -43.392  61.302 -52.410  1.00  0.00     0.063 A 
HETATM    5  N   UNL     1     -43.939  62.413 -51.830  1.00  0.00    -0.277 N 
HETATM    6  H   UNL     1     -43.825  63.376 -52.122  1.00  0.00     0.189 HD
HETATM    7  N   UNL     1     -44.704  62.162 -50.755  1.00  0.00    -0.168 NA
HETATM    8  C   UNL     1     -44.657  60.814 -50.631  1.00  0.00     0.156 A 
HETATM    9  C   UNL     1     -42.554  61.151 -53.515  1.00  0.00     0.034 A 
HETATM   10  C   UNL     1     -42.176  59.845 -53.853  1.00  0.00     0.032 A 
ENDROOT
BRANCH   1  11
HETATM   11  N   UNL     1     -42.206  57.463 -53.582  1.00  0.00    -0.327 N 
HETATM   12  C   UNL     1     -42.873  56.636 -54.457  1.00  0.00     0.227 C 
HETATM   13  O   UNL     1     -43.987  56.798 -54.932  1.00  0.00    -0.273 OA
HETATM   14  H   UNL     1     -41.300  57.149 -53.267  1.00  0.00     0.169 HD
BRANCH  12  15
HETATM   15  C   UNL     1     -42.127  55.417 -54.871  1.00  0.00     0.087 A 
HETATM   16  C   UNL     1     -42.538  54.122 -54.171  1.00  0.00     0.034 A 
HETATM   17  C   UNL     1     -42.645  54.255 -55.668  1.00  0.00     0.025 A 
BRANCH  16  18
HETATM   18  C   UNL     1     -41.476  53.287 -53.489  1.00  0.00    -0.031 A 
HETATM   19  C   UNL     1     -40.852  52.246 -54.207  1.00  0.00     0.009 A 
HETATM   20  C   UNL     1     -39.829  51.476 -53.650  1.00  0.00     0.001 A 
HETATM   21  C   UNL     1     -39.394  51.732 -52.355  1.00  0.00     0.002 A 
HETATM   22  C   UNL     1     -39.980  52.762 -51.623  1.00  0.00     0.024 A 
HETATM   23  C   UNL     1     -41.004  53.533 -52.186  1.00  0.00     0.040 A 
HETATM   24 CL   UNL     1     -41.643  54.827 -51.231  1.00  0.00    -0.084 Cl
ENDBRANCH  16  18
ENDBRANCH  12  15
ENDBRANCH   1  11
BRANCH   8  25
HETATM   25  C   UNL     1     -45.377  60.123 -49.553  1.00  0.00     0.270 C 
HETATM   26  N   UNL     1     -45.138  60.630 -48.305  1.00  0.00    -0.365 N 
HETATM   27  H   UNL     1     -44.503  61.414 -48.213  1.00  0.00     0.159 HD
HETATM   28  H   UNL     1     -45.587  60.215 -47.504  1.00  0.00     0.159 HD
HETATM   29  O   UNL     1     -46.135  59.172 -49.714  1.00  0.00    -0.266 OA
ENDBRANCH   8  25
TORSDOF 4
ENDMDL
MODEL 10
REMARK VINA RESULT:      -7.7      2.239      3.384
REMARK  4 active torsions:
REMARK  status: ('A' for Active; 'I' for Inactive)
REMARK    1  A    between atoms: C_3  and  C_4 
REMARK    2  A    between atoms: C_5  and  C_6 
REMARK       I    between atoms: C_6  and  N_7 
REMARK    3  A    between atoms: N_7  and  C_8 
REMARK    4  A    between atoms: C_15  and  C_16 
REMARK       I    between atoms: C_16  and  N_17 
ROOT
HETATM    1  C   UNL     1     -43.424  56.055 -57.583  1.00  0.00     0.035 A 
HETATM    2  C   UNL     1     -44.043  57.308 -57.486  1.00  0.00     0.046 A 
HETATM    3  C   UNL     1     -44.232  58.087 -58.648  1.00  0.00     0.030 A 
HETATM    4  C   UNL     1     -43.795  57.586 -59.869  1.00  0.00     0.063 A 
HETATM    5  N   UNL     1     -44.121  58.543 -60.789  1.00  0.00    -0.277 N 
HETATM    6  H   UNL     1     -43.956  58.514 -61.788  1.00  0.00     0.189 HD
HETATM    7  N   UNL     1     -44.723  59.628 -60.277  1.00  0.00    -0.168 NA
HETATM    8  C   UNL     1     -44.798  59.362 -58.951  1.00  0.00     0.156 A 
HETATM    9  C   UNL     1     -43.168  56.347 -60.002  1.00  0.00     0.034 A 
HETATM   10  C   UNL     1     -42.990  55.595 -58.834  1.00  0.00     0.032 A 
ENDROOT
BRANCH   1  11
HETATM   11  N   UNL     1     -43.225  55.194 -56.481  1.00  0.00    -0.327 N 
HETATM   12  C   UNL     1     -42.287  55.327 -55.483  1.00  0.00     0.227 C 
HETATM   13  O   UNL     1     -41.393  56.155 -55.405  1.00  0.00    -0.273 OA
HETATM   14  H   UNL     1     -43.871  54.423 -56.394  1.00  0.00     0.169 HD
BRANCH  12  15
HETATM   15  C   UNL     1     -42.404  54.345 -54.370  1.00  0.00     0.087 A 
HETATM   16  C   UNL     1     -41.133  54.123 -53.550  1.00  0.00     0.034 A 
HETATM   17  C   UNL     1     -42.393  54.630 -52.895  1.00  0.00     0.025 A 
BRANCH  16  18
HETATM   18  C   UNL     1     -40.616  52.714 -53.365  1.00  0.00    -0.031 A 
HETATM   19  C   UNL     1     -40.645  51.820 -54.455  1.00  0.00     0.009 A 
HETATM   20  C   UNL     1     -40.133  50.524 -54.361  1.00  0.00     0.001 A 
HETATM   21  C   UNL     1     -39.567  50.086 -53.170  1.00  0.00     0.002 A 
HETATM   22  C   UNL     1     -39.510  50.948 -52.077  1.00  0.00     0.024 A 
HETATM   23  C   UNL     1     -40.023  52.247 -52.176  1.00  0.00     0.040 A 
HETATM   24 CL   UNL     1     -39.867  53.273 -50.791  1.00  0.00    -0.084 Cl
ENDBRANCH  16  18
ENDBRANCH  12  15
ENDBRANCH   1  11
BRANCH   8  25
HETATM   25  C   UNL     1     -45.403  60.320 -58.015  1.00  0.00     0.270 C 
HETATM   26  N   UNL     1     -44.830  61.562 -58.037  1.00  0.00    -0.365 N 
HETATM   27  H   UNL     1     -44.056  61.728 -58.670  1.00  0.00     0.159 HD
HETATM   28  H   UNL     1     -45.177  62.282 -57.425  1.00  0.00     0.159 HD
HETATM   29  O   UNL     1     -46.338  60.069 -57.263  1.00  0.00    -0.266 OA
ENDBRANCH   8  25
TORSDOF 4
ENDMDL
