MODEL 1
REMARK VINA RESULT:      -9.1      0.000      0.000
REMARK  5 active torsions:
REMARK  status: ('A' for Active; 'I' for Inactive)
REMARK    1  A    between atoms: C_4  and  N_5 
REMARK       I    between atoms: N_5  and  C_6 
REMARK    2  A    between atoms: C_6  and  C_7 
REMARK    3  A    between atoms: N_9  and  C_10 
REMARK    4  A    between atoms: C_10  and  C_11 
REMARK    5  A    between atoms: C_14  and  O_15 
ROOT
HETATM    1  C   UNL     1     -42.934  57.123 -54.684  1.00  0.00     0.105 C 
HETATM    2  C   UNL     1     -43.162  56.825 -56.155  1.00  0.00     0.140 C 
HETATM    3  N   UNL     1     -42.405  57.856 -56.825  1.00  0.00    -0.347 N 
HETATM    4  C   UNL     1     -42.211  58.969 -56.025  1.00  0.00     0.221 C 
HETATM    5  O   UNL     1     -41.750  60.043 -56.372  1.00  0.00    -0.273 OA
HETATM    6  C   UNL     1     -42.667  58.628 -54.628  1.00  0.00     0.118 C 
ENDROOT
BRANCH   1   7
HETATM    7  C   UNL     1     -41.786  56.295 -54.113  1.00  0.00     0.228 C 
HETATM    8  N   UNL     1     -42.150  55.047 -53.666  1.00  0.00    -0.325 N 
HETATM    9  H   UNL     1     -43.124  54.753 -53.752  1.00  0.00     0.169 HD
HETATM   10  O   UNL     1     -40.653  56.769 -54.075  1.00  0.00    -0.273 OA
BRANCH   8  11
HETATM   11  C   UNL     1     -41.359  54.049 -53.048  1.00  0.00     0.065 A 
HETATM   12  C   UNL     1     -40.809  52.959 -53.731  1.00  0.00     0.038 A 
HETATM   13  C   UNL     1     -40.023  52.022 -53.053  1.00  0.00    -0.059 A 
HETATM   14  C   UNL     1     -39.448  50.839 -53.778  1.00  0.00     0.048 C 
HETATM   15  C   UNL     1     -39.820  52.170 -51.677  1.00  0.00     0.020 A 
HETATM   16  C   UNL     1     -40.373  53.261 -50.985  1.00  0.00    -0.005 A 
HETATM   17  C   UNL     1     -41.146  54.219 -51.670  1.00  0.00     0.093 A 
HETATM   18  C   UNL     1     -40.182  53.429 -49.606  1.00  0.00     0.015 A 
HETATM   19  N   UNL     1     -41.686  55.289 -51.036  1.00  0.00    -0.258 NA
HETATM   20  C   UNL     1     -41.486  55.411 -49.705  1.00  0.00     0.117 A 
HETATM   21  C   UNL     1     -40.749  54.517 -48.954  1.00  0.00     0.020 A 
ENDBRANCH   8  11
ENDBRANCH   1   7
BRANCH   3  22
HETATM   22  C   UNL     1     -42.158  57.836 -58.253  1.00  0.00     0.164 C 
BRANCH  22  23
HETATM   23  C   UNL     1     -43.287  57.219 -59.038  1.00  0.00    -0.040 A 
HETATM   24  C   UNL     1     -44.480  57.924 -59.232  1.00  0.00     0.011 A 
HETATM   25  C   UNL     1     -45.517  57.366 -59.983  1.00  0.00     0.037 A 
HETATM   26  C   UNL     1     -45.379  56.100 -60.554  1.00  0.00     0.068 A 
HETATM   27  C   UNL     1     -44.206  55.377 -60.337  1.00  0.00     0.037 A 
HETATM   28  C   UNL     1     -43.166  55.934 -59.583  1.00  0.00     0.011 A 
BRANCH  26  29
HETATM   29  O   UNL     1     -46.454  55.677 -61.285  1.00  0.00    -0.356 OA
HETATM   30  C   UNL     1     -47.577  56.550 -61.323  1.00  0.00     0.210 C 
ENDBRANCH  26  29
ENDBRANCH  22  23
ENDBRANCH   3  22
TORSDOF 5
ENDMDL
MODEL 2
REMARK VINA RESULT:      -8.9      1.198      2.640
REMARK  5 active torsions:
REMARK  status: ('A' for Active; 'I' for Inactive)
REMARK    1  A    between atoms: C_4  and  N_5 
REMARK       I    between atoms: N_5  and  C_6 
REMARK    2  A    between atoms: C_6  and  C_7 
REMARK    3  A    between atoms: N_9  and  C_10 
REMARK    4  A    between atoms: C_10  and  C_11 
REMARK    5  A    between atoms: C_14  and  O_15 
ROOT
HETATM    1  C   UNL     1     -44.006  56.950 -53.565  1.00  0.00     0.105 C 
HETATM    2  C   UNL     1     -43.773  56.424 -54.970  1.00  0.00     0.140 C 
HETATM    3  N   UNL     1     -43.097  57.518 -55.627  1.00  0.00    -0.347 N 
HETATM    4  C   UNL     1     -43.356  58.735 -55.021  1.00  0.00     0.221 C 
HETATM    5  O   UNL     1     -43.054  59.838 -55.444  1.00  0.00    -0.273 OA
HETATM    6  C   UNL     1     -44.082  58.469 -53.725  1.00  0.00     0.118 C 
ENDROOT
BRANCH   1   7
HETATM    7  C   UNL     1     -42.902  56.509 -52.607  1.00  0.00     0.228 C 
HETATM    8  N   UNL     1     -42.743  55.146 -52.510  1.00  0.00    -0.325 N 
HETATM    9  H   UNL     1     -43.337  54.535 -53.071  1.00  0.00     0.169 HD
HETATM   10  O   UNL     1     -42.253  57.353 -51.997  1.00  0.00    -0.273 OA
BRANCH   8  11
HETATM   11  C   UNL     1     -41.855  54.403 -51.695  1.00  0.00     0.065 A 
HETATM   12  C   UNL     1     -41.691  54.622 -50.324  1.00  0.00     0.038 A 
HETATM   13  C   UNL     1     -40.805  53.834 -49.582  1.00  0.00    -0.059 A 
HETATM   14  C   UNL     1     -40.609  54.078 -48.114  1.00  0.00     0.048 C 
HETATM   15  C   UNL     1     -40.061  52.846 -50.235  1.00  0.00     0.020 A 
HETATM   16  C   UNL     1     -40.219  52.623 -51.614  1.00  0.00    -0.005 A 
HETATM   17  C   UNL     1     -41.129  53.400 -52.359  1.00  0.00     0.093 A 
HETATM   18  C   UNL     1     -39.485  51.638 -52.288  1.00  0.00     0.015 A 
HETATM   19  N   UNL     1     -41.314  53.207 -53.688  1.00  0.00    -0.258 NA
HETATM   20  C   UNL     1     -40.581  52.253 -54.303  1.00  0.00     0.117 A 
HETATM   21  C   UNL     1     -39.664  51.451 -53.653  1.00  0.00     0.020 A 
ENDBRANCH   8  11
ENDBRANCH   1   7
BRANCH   3  22
HETATM   22  C   UNL     1     -42.486  57.382 -56.934  1.00  0.00     0.164 C 
BRANCH  22  23
HETATM   23  C   UNL     1     -43.452  56.910 -57.990  1.00  0.00    -0.040 A 
HETATM   24  C   UNL     1     -44.580  57.675 -58.309  1.00  0.00     0.011 A 
HETATM   25  C   UNL     1     -45.461  57.254 -59.307  1.00  0.00     0.037 A 
HETATM   26  C   UNL     1     -45.230  56.067 -60.005  1.00  0.00     0.068 A 
HETATM   27  C   UNL     1     -44.126  55.282 -59.669  1.00  0.00     0.037 A 
HETATM   28  C   UNL     1     -43.243  55.701 -58.668  1.00  0.00     0.011 A 
BRANCH  26  29
HETATM   29  O   UNL     1     -46.151  55.778 -60.973  1.00  0.00    -0.356 OA
HETATM   30  C   UNL     1     -47.358  56.530 -60.942  1.00  0.00     0.210 C 
ENDBRANCH  26  29
ENDBRANCH  22  23
ENDBRANCH   3  22
TORSDOF 5
ENDMDL
MODEL 3
REMARK VINA RESULT:      -8.9      2.849      7.795
REMARK  5 active torsions:
REMARK  status: ('A' for Active; 'I' for Inactive)
REMARK    1  A    between atoms: C_4  and  N_5 
REMARK       I    between atoms: N_5  and  C_6 
REMARK    2  A    between atoms: C_6  and  C_7 
REMARK    3  A    between atoms: N_9  and  C_10 
REMARK    4  A    between atoms: C_10  and  C_11 
REMARK    5  A    between atoms: C_14  and  O_15 
ROOT
HETATM    1  C   UNL     1     -41.797  58.477 -51.500  1.00  0.00     0.105 C 
HETATM    2  C   UNL     1     -40.916  57.526 -50.711  1.00  0.00     0.140 C 
HETATM    3  N   UNL     1     -41.616  56.267 -50.806  1.00  0.00    -0.347 N 
HETATM    4  C   UNL     1     -42.966  56.435 -51.064  1.00  0.00     0.221 C 
HETATM    5  O   UNL     1     -43.825  55.569 -51.040  1.00  0.00    -0.273 OA
HETATM    6  C   UNL     1     -43.204  57.889 -51.389  1.00  0.00     0.118 C 
ENDROOT
BRANCH   1   7
HETATM    7  C   UNL     1     -41.325  58.615 -52.946  1.00  0.00     0.228 C 
HETATM    8  N   UNL     1     -42.337  58.760 -53.865  1.00  0.00    -0.325 N 
HETATM    9  H   UNL     1     -43.304  58.781 -53.539  1.00  0.00     0.169 HD
HETATM   10  O   UNL     1     -40.123  58.581 -53.200  1.00  0.00    -0.273 OA
BRANCH   8  11
HETATM   11  C   UNL     1     -42.261  58.869 -55.274  1.00  0.00     0.065 A 
HETATM   12  C   UNL     1     -41.955  60.057 -55.946  1.00  0.00     0.038 A 
HETATM   13  C   UNL     1     -41.881  60.081 -57.343  1.00  0.00    -0.059 A 
HETATM   14  C   UNL     1     -41.575  61.358 -58.070  1.00  0.00     0.048 C 
HETATM   15  C   UNL     1     -42.149  58.910 -58.060  1.00  0.00     0.020 A 
HETATM   16  C   UNL     1     -42.460  57.715 -57.390  1.00  0.00    -0.005 A 
HETATM   17  C   UNL     1     -42.511  57.682 -55.982  1.00  0.00     0.093 A 
HETATM   18  C   UNL     1     -42.731  56.530 -58.089  1.00  0.00     0.015 A 
HETATM   19  N   UNL     1     -42.798  56.544 -55.303  1.00  0.00    -0.258 NA
HETATM   20  C   UNL     1     -43.062  55.425 -56.013  1.00  0.00     0.117 A 
HETATM   21  C   UNL     1     -43.040  55.368 -57.393  1.00  0.00     0.020 A 
ENDBRANCH   8  11
ENDBRANCH   1   7
BRANCH   3  22
HETATM   22  C   UNL     1     -41.028  55.014 -50.375  1.00  0.00     0.164 C 
BRANCH  22  23
HETATM   23  C   UNL     1     -40.709  54.089 -51.522  1.00  0.00    -0.040 A 
HETATM   24  C   UNL     1     -40.139  52.834 -51.280  1.00  0.00     0.011 A 
HETATM   25  C   UNL     1     -39.870  51.964 -52.338  1.00  0.00     0.037 A 
HETATM   26  C   UNL     1     -40.170  52.328 -53.652  1.00  0.00     0.068 A 
HETATM   27  C   UNL     1     -40.708  53.590 -53.905  1.00  0.00     0.037 A 
HETATM   28  C   UNL     1     -40.976  54.465 -52.846  1.00  0.00     0.011 A 
BRANCH  26  29
HETATM   29  O   UNL     1     -39.882  51.379 -54.594  1.00  0.00    -0.356 OA
HETATM   30  C   UNL     1     -39.881  50.027 -54.151  1.00  0.00     0.210 C 
ENDBRANCH  26  29
ENDBRANCH  22  23
ENDBRANCH   3  22
TORSDOF 5
ENDMDL
MODEL 4
REMARK VINA RESULT:      -8.7      2.308      8.074
REMARK  5 active torsions:
REMARK  status: ('A' for Active; 'I' for Inactive)
REMARK    1  A    between atoms: C_4  and  N_5 
REMARK       I    between atoms: N_5  and  C_6 
REMARK    2  A    between atoms: C_6  and  C_7 
REMARK    3  A    between atoms: N_9  and  C_10 
REMARK    4  A    between atoms: C_10  and  C_11 
REMARK    5  A    between atoms: C_14  and  O_15 
ROOT
HETATM    1  C   UNL     1     -42.691  57.843 -53.585  1.00  0.00     0.105 C 
HETATM    2  C   UNL     1     -42.090  56.574 -53.010  1.00  0.00     0.140 C 
HETATM    3  N   UNL     1     -43.119  56.090 -52.122  1.00  0.00    -0.347 N 
HETATM    4  C   UNL     1     -43.969  57.099 -51.703  1.00  0.00     0.221 C 
HETATM    5  O   UNL     1     -44.824  57.019 -50.837  1.00  0.00    -0.273 OA
HETATM    6  C   UNL     1     -43.662  58.337 -52.511  1.00  0.00     0.118 C 
ENDROOT
BRANCH   1   7
HETATM    7  C   UNL     1     -43.373  57.587 -54.927  1.00  0.00     0.228 C 
HETATM    8  N   UNL     1     -42.508  57.356 -55.971  1.00  0.00    -0.325 N 
HETATM    9  H   UNL     1     -41.503  57.354 -55.793  1.00  0.00     0.169 HD
HETATM   10  O   UNL     1     -44.599  57.609 -55.001  1.00  0.00    -0.273 OA
BRANCH   8  11
HETATM   11  C   UNL     1     -42.793  57.128 -57.339  1.00  0.00     0.065 A 
HETATM   12  C   UNL     1     -43.343  55.939 -57.830  1.00  0.00     0.038 A 
HETATM   13  C   UNL     1     -43.613  55.795 -59.195  1.00  0.00    -0.059 A 
HETATM   14  C   UNL     1     -44.183  54.514 -59.731  1.00  0.00     0.048 C 
HETATM   15  C   UNL     1     -43.296  56.842 -60.066  1.00  0.00     0.020 A 
HETATM   16  C   UNL     1     -42.740  58.037 -59.579  1.00  0.00    -0.005 A 
HETATM   17  C   UNL     1     -42.490  58.194 -58.201  1.00  0.00     0.093 A 
HETATM   18  C   UNL     1     -42.415  59.099 -60.435  1.00  0.00     0.015 A 
HETATM   19  N   UNL     1     -41.964  59.336 -57.694  1.00  0.00    -0.258 NA
HETATM   20  C   UNL     1     -41.657  60.333 -58.553  1.00  0.00     0.117 A 
HETATM   21  C   UNL     1     -41.862  60.264 -59.917  1.00  0.00     0.020 A 
ENDBRANCH   8  11
ENDBRANCH   1   7
BRANCH   3  22
HETATM   22  C   UNL     1     -43.066  54.776 -51.512  1.00  0.00     0.164 C 
BRANCH  22  23
HETATM   23  C   UNL     1     -42.047  53.869 -52.155  1.00  0.00    -0.040 A 
HETATM   24  C   UNL     1     -40.989  53.350 -51.401  1.00  0.00     0.011 A 
HETATM   25  C   UNL     1     -40.060  52.487 -51.988  1.00  0.00     0.037 A 
HETATM   26  C   UNL     1     -40.175  52.126 -53.331  1.00  0.00     0.068 A 
HETATM   27  C   UNL     1     -41.208  52.666 -54.098  1.00  0.00     0.037 A 
HETATM   28  C   UNL     1     -42.139  53.533 -53.513  1.00  0.00     0.011 A 
BRANCH  26  29
HETATM   29  O   UNL     1     -39.219  51.257 -53.779  1.00  0.00    -0.356 OA
HETATM   30  C   UNL     1     -39.687  50.078 -54.423  1.00  0.00     0.210 C 
ENDBRANCH  26  29
ENDBRANCH  22  23
ENDBRANCH   3  22
TORSDOF 5
ENDMDL
MODEL 5
REMARK VINA RESULT:      -8.4      1.820      3.361
REMARK  5 active torsions:
REMARK  status: ('A' for Active; 'I' for Inactive)
REMARK    1  A    between atoms: C_4  and  N_5 
REMARK       I    between atoms: N_5  and  C_6 
REMARK    2  A    between atoms: C_6  and  C_7 
REMARK    3  A    between atoms: N_9  and  C_10 
REMARK    4  A    between atoms: C_10  and  C_11 
REMARK    5  A    between atoms: C_14  and  O_15 
ROOT
HETATM    1  C   UNL     1     -43.004  59.135 -52.319  1.00  0.00     0.105 C 
HETATM    2  C   UNL     1     -44.176  59.474 -53.221  1.00  0.00     0.140 C 
HETATM    3  N   UNL     1     -43.592  59.474 -54.541  1.00  0.00    -0.347 N 
HETATM    4  C   UNL     1     -42.226  59.700 -54.511  1.00  0.00     0.221 C 
HETATM    5  O   UNL     1     -41.501  59.910 -55.469  1.00  0.00    -0.273 OA
HETATM    6  C   UNL     1     -41.772  59.641 -53.072  1.00  0.00     0.118 C 
ENDROOT
BRANCH   1   7
HETATM    7  C   UNL     1     -42.940  57.641 -52.013  1.00  0.00     0.228 C 
HETATM    8  N   UNL     1     -41.684  57.175 -51.703  1.00  0.00    -0.325 N 
HETATM    9  H   UNL     1     -40.902  57.831 -51.681  1.00  0.00     0.169 HD
HETATM   10  O   UNL     1     -43.964  56.964 -52.068  1.00  0.00    -0.273 OA
BRANCH   8  11
HETATM   11  C   UNL     1     -41.263  55.855 -51.413  1.00  0.00     0.065 A 
HETATM   12  C   UNL     1     -41.134  55.347 -50.116  1.00  0.00     0.038 A 
HETATM   13  C   UNL     1     -40.728  54.025 -49.910  1.00  0.00    -0.059 A 
HETATM   14  C   UNL     1     -40.568  53.482 -48.520  1.00  0.00     0.048 C 
HETATM   15  C   UNL     1     -40.420  53.227 -51.017  1.00  0.00     0.020 A 
HETATM   16  C   UNL     1     -40.543  53.732 -52.322  1.00  0.00    -0.005 A 
HETATM   17  C   UNL     1     -40.976  55.057 -52.533  1.00  0.00     0.093 A 
HETATM   18  C   UNL     1     -40.241  52.950 -53.445  1.00  0.00     0.015 A 
HETATM   19  N   UNL     1     -41.116  55.575 -53.778  1.00  0.00    -0.258 NA
HETATM   20  C   UNL     1     -40.807  54.791 -54.834  1.00  0.00     0.117 A 
HETATM   21  C   UNL     1     -40.370  53.486 -54.720  1.00  0.00     0.020 A 
ENDBRANCH   8  11
ENDBRANCH   1   7
BRANCH   3  22
HETATM   22  C   UNL     1     -44.393  59.540 -55.747  1.00  0.00     0.164 C 
BRANCH  22  23
HETATM   23  C   UNL     1     -44.125  58.398 -56.694  1.00  0.00    -0.040 A 
HETATM   24  C   UNL     1     -44.444  58.516 -58.052  1.00  0.00     0.011 A 
HETATM   25  C   UNL     1     -44.170  57.471 -58.936  1.00  0.00     0.037 A 
HETATM   26  C   UNL     1     -43.571  56.295 -58.482  1.00  0.00     0.068 A 
HETATM   27  C   UNL     1     -43.280  56.156 -57.124  1.00  0.00     0.037 A 
HETATM   28  C   UNL     1     -43.556  57.202 -56.236  1.00  0.00     0.011 A 
BRANCH  26  29
HETATM   29  O   UNL     1     -43.332  55.358 -59.449  1.00  0.00    -0.356 OA
HETATM   30  C   UNL     1     -44.444  54.565 -59.850  1.00  0.00     0.210 C 
ENDBRANCH  26  29
ENDBRANCH  22  23
ENDBRANCH   3  22
TORSDOF 5
ENDMDL
MODEL 6
REMARK VINA RESULT:      -8.3      1.981      2.934
REMARK  5 active torsions:
REMARK  status: ('A' for Active; 'I' for Inactive)
REMARK    1  A    between atoms: C_4  and  N_5 
REMARK       I    between atoms: N_5  and  C_6 
REMARK    2  A    between atoms: C_6  and  C_7 
REMARK    3  A    between atoms: N_9  and  C_10 
REMARK    4  A    between atoms: C_10  and  C_11 
REMARK    5  A    between atoms: C_14  and  O_15 
ROOT
HETATM    1  C   UNL     1     -42.731  59.160 -51.798  1.00  0.00     0.105 C 
HETATM    2  C   UNL     1     -44.081  58.772 -52.373  1.00  0.00     0.140 C 
HETATM    3  N   UNL     1     -44.057  59.344 -53.697  1.00  0.00    -0.347 N 
HETATM    4  C   UNL     1     -43.171  60.403 -53.796  1.00  0.00     0.221 C 
HETATM    5  O   UNL     1     -43.055  61.171 -54.737  1.00  0.00    -0.273 OA
HETATM    6  C   UNL     1     -42.353  60.450 -52.528  1.00  0.00     0.118 C 
ENDROOT
BRANCH   1   7
HETATM    7  C   UNL     1     -41.699  58.051 -51.983  1.00  0.00     0.228 C 
HETATM    8  N   UNL     1     -42.232  56.787 -52.081  1.00  0.00    -0.325 N 
HETATM    9  H   UNL     1     -43.245  56.670 -52.041  1.00  0.00     0.169 HD
HETATM   10  O   UNL     1     -40.504  58.331 -52.023  1.00  0.00    -0.273 OA
BRANCH   8  11
HETATM   11  C   UNL     1     -41.570  55.542 -52.214  1.00  0.00     0.065 A 
HETATM   12  C   UNL     1     -41.286  54.940 -53.444  1.00  0.00     0.038 A 
HETATM   13  C   UNL     1     -40.613  53.715 -53.494  1.00  0.00    -0.059 A 
HETATM   14  C   UNL     1     -40.324  53.054 -54.811  1.00  0.00     0.048 C 
HETATM   15  C   UNL     1     -40.258  53.084 -52.297  1.00  0.00     0.020 A 
HETATM   16  C   UNL     1     -40.544  53.681 -51.059  1.00  0.00    -0.005 A 
HETATM   17  C   UNL     1     -41.201  54.928 -51.006  1.00  0.00     0.093 A 
HETATM   18  C   UNL     1     -40.196  53.067 -49.848  1.00  0.00     0.015 A 
HETATM   19  N   UNL     1     -41.484  55.538 -49.830  1.00  0.00    -0.258 NA
HETATM   20  C   UNL     1     -41.139  54.909 -48.684  1.00  0.00     0.117 A 
HETATM   21  C   UNL     1     -40.500  53.686 -48.642  1.00  0.00     0.020 A 
ENDBRANCH   8  11
ENDBRANCH   1   7
BRANCH   3  22
HETATM   22  C   UNL     1     -45.064  59.040 -54.695  1.00  0.00     0.164 C 
BRANCH  22  23
HETATM   23  C   UNL     1     -44.529  58.213 -55.837  1.00  0.00    -0.040 A 
HETATM   24  C   UNL     1     -43.600  57.194 -55.597  1.00  0.00     0.011 A 
HETATM   25  C   UNL     1     -43.126  56.408 -56.649  1.00  0.00     0.037 A 
HETATM   26  C   UNL     1     -43.573  56.621 -57.953  1.00  0.00     0.068 A 
HETATM   27  C   UNL     1     -44.474  57.657 -58.206  1.00  0.00     0.037 A 
HETATM   28  C   UNL     1     -44.949  58.447 -57.153  1.00  0.00     0.011 A 
BRANCH  26  29
HETATM   29  O   UNL     1     -43.053  55.770 -58.888  1.00  0.00    -0.356 OA
HETATM   30  C   UNL     1     -43.990  55.042 -59.673  1.00  0.00     0.210 C 
ENDBRANCH  26  29
ENDBRANCH  22  23
ENDBRANCH   3  22
TORSDOF 5
ENDMDL
MODEL 7
REMARK VINA RESULT:      -8.3      2.259      5.064
REMARK  5 active torsions:
REMARK  status: ('A' for Active; 'I' for Inactive)
REMARK    1  A    between atoms: C_4  and  N_5 
REMARK       I    between atoms: N_5  and  C_6 
REMARK    2  A    between atoms: C_6  and  C_7 
REMARK    3  A    between atoms: N_9  and  C_10 
REMARK    4  A    between atoms: C_10  and  C_11 
REMARK    5  A    between atoms: C_14  and  O_15 
ROOT
HETATM    1  C   UNL     1     -42.355  56.450 -57.562  1.00  0.00     0.105 C 
HETATM    2  C   UNL     1     -42.530  57.851 -57.004  1.00  0.00     0.140 C 
HETATM    3  N   UNL     1     -43.945  58.095 -57.151  1.00  0.00    -0.347 N 
HETATM    4  C   UNL     1     -44.513  57.310 -58.140  1.00  0.00     0.221 C 
HETATM    5  O   UNL     1     -45.642  57.410 -58.589  1.00  0.00    -0.273 OA
HETATM    6  C   UNL     1     -43.489  56.290 -58.576  1.00  0.00     0.118 C 
ENDROOT
BRANCH   1   7
HETATM    7  C   UNL     1     -42.393  55.395 -56.459  1.00  0.00     0.228 C 
HETATM    8  N   UNL     1     -41.247  55.322 -55.701  1.00  0.00    -0.325 N 
HETATM    9  H   UNL     1     -40.477  55.960 -55.902  1.00  0.00     0.169 HD
HETATM   10  O   UNL     1     -43.392  54.695 -56.320  1.00  0.00    -0.273 OA
BRANCH   8  11
HETATM   11  C   UNL     1     -40.929  54.441 -54.639  1.00  0.00     0.065 A 
HETATM   12  C   UNL     1     -40.544  53.109 -54.824  1.00  0.00     0.038 A 
HETATM   13  C   UNL     1     -40.229  52.304 -53.724  1.00  0.00    -0.059 A 
HETATM   14  C   UNL     1     -39.836  50.868 -53.915  1.00  0.00     0.048 C 
HETATM   15  C   UNL     1     -40.334  52.840 -52.436  1.00  0.00     0.020 A 
HETATM   16  C   UNL     1     -40.724  54.176 -52.244  1.00  0.00    -0.005 A 
HETATM   17  C   UNL     1     -41.019  54.996 -53.353  1.00  0.00     0.093 A 
HETATM   18  C   UNL     1     -40.835  54.732 -50.963  1.00  0.00     0.015 A 
HETATM   19  N   UNL     1     -41.388  56.292 -53.206  1.00  0.00    -0.258 NA
HETATM   20  C   UNL     1     -41.492  56.789 -51.953  1.00  0.00     0.117 A 
HETATM   21  C   UNL     1     -41.228  56.057 -50.812  1.00  0.00     0.020 A 
ENDBRANCH   8  11
ENDBRANCH   1   7
BRANCH   3  22
HETATM   22  C   UNL     1     -44.605  59.237 -56.550  1.00  0.00     0.164 C 
BRANCH  22  23
HETATM   23  C   UNL     1     -44.333  59.362 -55.072  1.00  0.00    -0.040 A 
HETATM   24  C   UNL     1     -44.863  58.429 -54.174  1.00  0.00     0.011 A 
HETATM   25  C   UNL     1     -44.589  58.527 -52.808  1.00  0.00     0.037 A 
HETATM   26  C   UNL     1     -43.779  59.553 -52.318  1.00  0.00     0.068 A 
HETATM   27  C   UNL     1     -43.274  60.507 -53.203  1.00  0.00     0.037 A 
HETATM   28  C   UNL     1     -43.549  60.412 -54.572  1.00  0.00     0.011 A 
BRANCH  26  29
HETATM   29  O   UNL     1     -43.567  59.524 -50.967  1.00  0.00    -0.356 OA
HETATM   30  C   UNL     1     -42.629  60.464 -50.454  1.00  0.00     0.210 C 
ENDBRANCH  26  29
ENDBRANCH  22  23
ENDBRANCH   3  22
TORSDOF 5
ENDMDL
MODEL 8
REMARK VINA RESULT:      -8.3      2.373      8.446
REMARK  5 active torsions:
REMARK  status: ('A' for Active; 'I' for Inactive)
REMARK    1  A    between atoms: C_4  and  N_5 
REMARK       I    between atoms: N_5  and  C_6 
REMARK    2  A    between atoms: C_6  and  C_7 
REMARK    3  A    between atoms: N_9  and  C_10 
REMARK    4  A    between atoms: C_10  and  C_11 
REMARK    5  A    between atoms: C_14  and  O_15 
ROOT
HETATM    1  C   UNL     1     -41.648  58.438 -53.823  1.00  0.00     0.105 C 
HETATM    2  C   UNL     1     -41.494  56.933 -53.942  1.00  0.00     0.140 C 
HETATM    3  N   UNL     1     -42.753  56.429 -53.450  1.00  0.00    -0.347 N 
HETATM    4  C   UNL     1     -43.386  57.328 -52.609  1.00  0.00     0.221 C 
HETATM    5  O   UNL     1     -44.375  57.116 -51.927  1.00  0.00    -0.273 OA
HETATM    6  C   UNL     1     -42.641  58.639 -52.677  1.00  0.00     0.118 C 
ENDROOT
BRANCH   1   7
HETATM    7  C   UNL     1     -42.120  59.063 -55.134  1.00  0.00     0.228 C 
HETATM    8  N   UNL     1     -41.868  58.302 -56.251  1.00  0.00    -0.325 N 
HETATM    9  H   UNL     1     -41.412  57.396 -56.143  1.00  0.00     0.169 HD
HETATM   10  O   UNL     1     -42.665  60.164 -55.122  1.00  0.00    -0.273 OA
BRANCH   8  11
HETATM   11  C   UNL     1     -42.129  58.593 -57.612  1.00  0.00     0.065 A 
HETATM   12  C   UNL     1     -41.822  59.815 -58.218  1.00  0.00     0.038 A 
HETATM   13  C   UNL     1     -42.096  60.022 -59.575  1.00  0.00    -0.059 A 
HETATM   14  C   UNL     1     -41.788  61.338 -60.225  1.00  0.00     0.048 C 
HETATM   15  C   UNL     1     -42.711  59.001 -60.308  1.00  0.00     0.020 A 
HETATM   16  C   UNL     1     -43.026  57.773 -59.703  1.00  0.00    -0.005 A 
HETATM   17  C   UNL     1     -42.728  57.554 -58.343  1.00  0.00     0.093 A 
HETATM   18  C   UNL     1     -43.641  56.737 -60.420  1.00  0.00     0.015 A 
HETATM   19  N   UNL     1     -43.008  56.378 -57.729  1.00  0.00    -0.258 NA
HETATM   20  C   UNL     1     -43.609  55.407 -58.452  1.00  0.00     0.117 A 
HETATM   21  C   UNL     1     -43.942  55.538 -59.786  1.00  0.00     0.020 A 
ENDBRANCH   8  11
ENDBRANCH   1   7
BRANCH   3  22
HETATM   22  C   UNL     1     -43.139  55.038 -53.579  1.00  0.00     0.164 C 
BRANCH  22  23
HETATM   23  C   UNL     1     -42.091  54.086 -53.061  1.00  0.00    -0.040 A 
HETATM   24  C   UNL     1     -41.396  53.252 -53.944  1.00  0.00     0.011 A 
HETATM   25  C   UNL     1     -40.405  52.390 -53.470  1.00  0.00     0.037 A 
HETATM   26  C   UNL     1     -40.089  52.349 -52.111  1.00  0.00     0.068 A 
HETATM   27  C   UNL     1     -40.801  53.153 -51.220  1.00  0.00     0.037 A 
HETATM   28  C   UNL     1     -41.796  54.016 -51.693  1.00  0.00     0.011 A 
BRANCH  26  29
HETATM   29  O   UNL     1     -39.085  51.483 -51.778  1.00  0.00    -0.356 OA
HETATM   30  C   UNL     1     -39.485  50.191 -51.337  1.00  0.00     0.210 C 
ENDBRANCH  26  29
ENDBRANCH  22  23
ENDBRANCH   3  22
TORSDOF 5
ENDMDL
MODEL 9
REMARK VINA RESULT:      -8.2     14.999     19.198
REMARK  5 active torsions:
REMARK  status: ('A' for Active; 'I' for Inactive)
REMARK    1  A    between atoms: C_4  and  N_5 
REMARK       I    between atoms: N_5  and  C_6 
REMARK    2  A    between atoms: C_6  and  C_7 
REMARK    3  A    between atoms: N_9  and  C_10 
REMARK    4  A    between atoms: C_10  and  C_11 
REMARK    5  A    between atoms: C_14  and  O_15 
ROOT
HETATM    1  C   UNL     1     -35.926  42.115 -53.720  1.00  0.00     0.105 C 
HETATM    2  C   UNL     1     -34.782  41.327 -53.107  1.00  0.00     0.140 C 
HETATM    3  N   UNL     1     -35.349  40.015 -52.910  1.00  0.00    -0.347 N 
HETATM    4  C   UNL     1     -36.730  40.047 -52.822  1.00  0.00     0.221 C 
HETATM    5  O   UNL     1     -37.462  39.126 -52.502  1.00  0.00    -0.273 OA
HETATM    6  C   UNL     1     -37.192  41.435 -53.197  1.00  0.00     0.118 C 
ENDROOT
BRANCH   1   7
HETATM    7  C   UNL     1     -35.847  42.131 -55.245  1.00  0.00     0.228 C 
HETATM    8  N   UNL     1     -36.852  41.434 -55.874  1.00  0.00    -0.325 N 
HETATM    9  H   UNL     1     -37.571  40.979 -55.309  1.00  0.00     0.169 HD
HETATM   10  O   UNL     1     -34.929  42.727 -55.801  1.00  0.00    -0.273 OA
BRANCH   8  11
HETATM   11  C   UNL     1     -37.059  41.210 -57.257  1.00  0.00     0.065 A 
HETATM   12  C   UNL     1     -37.120  42.233 -58.209  1.00  0.00     0.038 A 
HETATM   13  C   UNL     1     -37.310  41.930 -59.562  1.00  0.00    -0.059 A 
HETATM   14  C   UNL     1     -37.399  43.025 -60.585  1.00  0.00     0.048 C 
HETATM   15  C   UNL     1     -37.470  40.594 -59.945  1.00  0.00     0.020 A 
HETATM   16  C   UNL     1     -37.413  39.563 -58.992  1.00  0.00    -0.005 A 
HETATM   17  C   UNL     1     -37.198  39.864 -57.632  1.00  0.00     0.093 A 
HETATM   18  C   UNL     1     -37.570  38.218 -59.355  1.00  0.00     0.015 A 
HETATM   19  N   UNL     1     -37.126  38.894 -56.687  1.00  0.00    -0.258 NA
HETATM   20  C   UNL     1     -37.291  37.610 -57.076  1.00  0.00     0.117 A 
HETATM   21  C   UNL     1     -37.512  37.226 -58.384  1.00  0.00     0.020 A 
ENDBRANCH   8  11
ENDBRANCH   1   7
BRANCH   3  22
HETATM   22  C   UNL     1     -34.545  38.867 -52.541  1.00  0.00     0.164 C 
BRANCH  22  23
HETATM   23  C   UNL     1     -33.646  39.132 -51.361  1.00  0.00    -0.040 A 
HETATM   24  C   UNL     1     -32.359  39.646 -51.555  1.00  0.00     0.011 A 
HETATM   25  C   UNL     1     -31.535  39.921 -50.461  1.00  0.00     0.037 A 
HETATM   26  C   UNL     1     -31.982  39.691 -49.159  1.00  0.00     0.068 A 
HETATM   27  C   UNL     1     -33.252  39.147 -48.959  1.00  0.00     0.037 A 
HETATM   28  C   UNL     1     -34.079  38.870 -50.053  1.00  0.00     0.011 A 
BRANCH  26  29
HETATM   29  O   UNL     1     -31.092  40.023 -48.176  1.00  0.00    -0.356 OA
HETATM   30  C   UNL     1     -31.140  39.242 -46.988  1.00  0.00     0.210 C 
ENDBRANCH  26  29
ENDBRANCH  22  23
ENDBRANCH   3  22
TORSDOF 5
ENDMDL
MODEL 10
REMARK VINA RESULT:      -8.1      2.612      8.026
REMARK  5 active torsions:
REMARK  status: ('A' for Active; 'I' for Inactive)
REMARK    1  A    between atoms: C_4  and  N_5 
REMARK       I    between atoms: N_5  and  C_6 
REMARK    2  A    between atoms: C_6  and  C_7 
REMARK    3  A    between atoms: N_9  and  C_10 
REMARK    4  A    between atoms: C_10  and  C_11 
REMARK    5  A    between atoms: C_14  and  O_15 
ROOT
HETATM    1  C   UNL     1     -42.529  58.013 -51.705  1.00  0.00     0.105 C 
HETATM    2  C   UNL     1     -41.335  57.337 -51.056  1.00  0.00     0.140 C 
HETATM    3  N   UNL     1     -41.775  55.972 -50.888  1.00  0.00    -0.347 N 
HETATM    4  C   UNL     1     -43.155  55.866 -50.852  1.00  0.00     0.221 C 
HETATM    5  O   UNL     1     -43.801  54.872 -50.565  1.00  0.00    -0.273 OA
HETATM    6  C   UNL     1     -43.739  57.204 -51.234  1.00  0.00     0.118 C 
ENDROOT
BRANCH   1   7
HETATM    7  C   UNL     1     -42.398  58.051 -53.226  1.00  0.00     0.228 C 
HETATM    8  N   UNL     1     -43.588  57.929 -53.904  1.00  0.00    -0.325 N 
HETATM    9  H   UNL     1     -44.455  57.838 -53.374  1.00  0.00     0.169 HD
HETATM   10  O   UNL     1     -41.288  58.175 -53.738  1.00  0.00    -0.273 OA
BRANCH   8  11
HETATM   11  C   UNL     1     -43.825  57.882 -55.299  1.00  0.00     0.065 A 
HETATM   12  C   UNL     1     -43.361  56.859 -56.132  1.00  0.00     0.038 A 
HETATM   13  C   UNL     1     -43.650  56.874 -57.501  1.00  0.00    -0.059 A 
HETATM   14  C   UNL     1     -43.136  55.790 -58.403  1.00  0.00     0.048 C 
HETATM   15  C   UNL     1     -44.382  57.942 -58.030  1.00  0.00     0.020 A 
HETATM   16  C   UNL     1     -44.848  58.975 -57.199  1.00  0.00    -0.005 A 
HETATM   17  C   UNL     1     -44.578  58.949 -55.816  1.00  0.00     0.093 A 
HETATM   18  C   UNL     1     -45.583  60.053 -57.709  1.00  0.00     0.015 A 
HETATM   19  N   UNL     1     -45.020  59.923 -54.983  1.00  0.00    -0.258 NA
HETATM   20  C   UNL     1     -45.719  60.950 -55.514  1.00  0.00     0.117 A 
HETATM   21  C   UNL     1     -46.023  61.059 -56.857  1.00  0.00     0.020 A 
ENDBRANCH   8  11
ENDBRANCH   1   7
BRANCH   3  22
HETATM   22  C   UNL     1     -40.874  54.906 -50.498  1.00  0.00     0.164 C 
BRANCH  22  23
HETATM   23  C   UNL     1     -40.604  53.927 -51.611  1.00  0.00    -0.040 A 
HETATM   24  C   UNL     1     -39.964  52.711 -51.343  1.00  0.00     0.011 A 
HETATM   25  C   UNL     1     -39.739  51.790 -52.368  1.00  0.00     0.037 A 
HETATM   26  C   UNL     1     -40.151  52.064 -53.674  1.00  0.00     0.068 A 
HETATM   27  C   UNL     1     -40.759  53.288 -53.955  1.00  0.00     0.037 A 
HETATM   28  C   UNL     1     -40.984  54.214 -52.930  1.00  0.00     0.011 A 
BRANCH  26  29
HETATM   29  O   UNL     1     -39.894  51.072 -54.580  1.00  0.00    -0.356 OA
HETATM   30  C   UNL     1     -39.629  49.780 -54.046  1.00  0.00     0.210 C 
ENDBRANCH  26  29
ENDBRANCH  22  23
ENDBRANCH   3  22
TORSDOF 5
ENDMDL
