MODEL 1
REMARK VINA RESULT:      -8.0      0.000      0.000
REMARK  4 active torsions:
REMARK  status: ('A' for Active; 'I' for Inactive)
REMARK    1  A    between atoms: C_9  and  C_10 
REMARK       I    between atoms: C_10  and  N_11 
REMARK    2  A    between atoms: N_11  and  C_12 
REMARK    3  A    between atoms: C_12  and  C_13 
REMARK    4  A    between atoms: C_14  and  O_15 
ROOT
HETATM    1  C   UNL     1     -41.535  55.836 -52.898  1.00  0.00     0.273 C 
HETATM    2  N   UNL     1     -41.346  54.478 -53.007  1.00  0.00    -0.347 N 
HETATM    3  O   UNL     1     -40.804  56.683 -53.399  1.00  0.00    -0.266 OA
HETATM    4  H   UNL     1     -42.102  53.922 -52.617  1.00  0.00     0.163 HD
ENDROOT
BRANCH   1   5
HETATM    5  C   UNL     1     -42.742  56.184 -52.126  1.00  0.00     0.157 A 
HETATM    6  C   UNL     1     -43.396  57.452 -52.070  1.00  0.00     0.029 A 
HETATM    7  C   UNL     1     -43.190  58.726 -52.635  1.00  0.00     0.023 A 
HETATM    8  C   UNL     1     -44.483  57.260 -51.227  1.00  0.00     0.063 A 
HETATM    9  C   UNL     1     -44.083  59.768 -52.337  1.00  0.00    -0.061 A 
HETATM   10  C   UNL     1     -43.880  61.134 -52.925  1.00  0.00     0.048 C 
HETATM   11  C   UNL     1     -45.167  59.533 -51.482  1.00  0.00     0.009 A 
HETATM   12  C   UNL     1     -45.390  58.275 -50.909  1.00  0.00     0.032 A 
HETATM   13  N   UNL     1     -44.416  55.950 -50.845  1.00  0.00    -0.277 N 
HETATM   14  H   UNL     1     -45.052  55.459 -50.226  1.00  0.00     0.189 HD
HETATM   15  N   UNL     1     -43.383  55.266 -51.367  1.00  0.00    -0.168 NA
ENDBRANCH   1   5
BRANCH   2  16
HETATM   16  C   UNL     1     -40.333  53.792 -53.799  1.00  0.00     0.116 C 
HETATM   17  C   UNL     1     -40.524  53.917 -55.312  1.00  0.00     0.037 C 
BRANCH  16  18
HETATM   18  C   UNL     1     -40.110  52.344 -53.379  1.00  0.00    -0.003 A 
HETATM   19  C   UNL     1     -39.779  52.031 -52.041  1.00  0.00     0.076 A 
HETATM   20  C   UNL     1     -39.562  50.698 -51.667  1.00  0.00     0.037 A 
HETATM   21  C   UNL     1     -39.654  49.673 -52.610  1.00  0.00     0.003 A 
HETATM   22  C   UNL     1     -39.955  49.972 -53.933  1.00  0.00     0.001 A 
HETATM   23  C   UNL     1     -40.173  51.295 -54.315  1.00  0.00     0.012 A 
BRANCH  19  24
HETATM   24  O   UNL     1     -39.693  53.094 -51.179  1.00  0.00    -0.355 OA
HETATM   25  C   UNL     1     -40.353  52.978 -49.924  1.00  0.00     0.210 C 
ENDBRANCH  19  24
ENDBRANCH  16  18
ENDBRANCH   2  16
TORSDOF 4
ENDMDL
MODEL 2
REMARK VINA RESULT:      -7.7      1.814      7.580
REMARK  4 active torsions:
REMARK  status: ('A' for Active; 'I' for Inactive)
REMARK    1  A    between atoms: C_9  and  C_10 
REMARK       I    between atoms: C_10  and  N_11 
REMARK    2  A    between atoms: N_11  and  C_12 
REMARK    3  A    between atoms: C_12  and  C_13 
REMARK    4  A    between atoms: C_14  and  O_15 
ROOT
HETATM    1  C   UNL     1     -41.231  55.186 -52.776  1.00  0.00     0.273 C 
HETATM    2  N   UNL     1     -41.251  56.408 -52.145  1.00  0.00    -0.347 N 
HETATM    3  O   UNL     1     -41.510  55.007 -53.957  1.00  0.00    -0.266 OA
HETATM    4  H   UNL     1     -40.895  56.390 -51.194  1.00  0.00     0.163 HD
ENDROOT
BRANCH   1   5
HETATM    5  C   UNL     1     -40.808  54.091 -51.884  1.00  0.00     0.157 A 
HETATM    6  C   UNL     1     -40.408  52.774 -52.263  1.00  0.00     0.029 A 
HETATM    7  C   UNL     1     -40.277  52.061 -53.472  1.00  0.00     0.023 A 
HETATM    8  C   UNL     1     -40.094  52.135 -51.071  1.00  0.00     0.063 A 
HETATM    9  C   UNL     1     -39.833  50.729 -53.445  1.00  0.00    -0.061 A 
HETATM   10  C   UNL     1     -39.690  49.950 -54.720  1.00  0.00     0.048 C 
HETATM   11  C   UNL     1     -39.526  50.121 -52.220  1.00  0.00     0.009 A 
HETATM   12  C   UNL     1     -39.650  50.812 -51.008  1.00  0.00     0.032 A 
HETATM   13  N   UNL     1     -40.317  53.065 -50.094  1.00  0.00    -0.277 N 
HETATM   14  H   UNL     1     -40.193  52.945 -49.094  1.00  0.00     0.189 HD
HETATM   15  N   UNL     1     -40.746  54.257 -50.543  1.00  0.00    -0.168 NA
ENDBRANCH   1   5
BRANCH   2  16
HETATM   16  C   UNL     1     -41.498  57.708 -52.756  1.00  0.00     0.116 C 
HETATM   17  C   UNL     1     -40.242  58.557 -52.962  1.00  0.00     0.037 C 
BRANCH  16  18
HETATM   18  C   UNL     1     -42.606  58.501 -52.073  1.00  0.00    -0.003 A 
HETATM   19  C   UNL     1     -43.957  58.109 -52.214  1.00  0.00     0.076 A 
HETATM   20  C   UNL     1     -44.970  58.851 -51.594  1.00  0.00     0.037 A 
HETATM   21  C   UNL     1     -44.659  59.990 -50.848  1.00  0.00     0.003 A 
HETATM   22  C   UNL     1     -43.337  60.398 -50.723  1.00  0.00     0.001 A 
HETATM   23  C   UNL     1     -42.322  59.665 -51.336  1.00  0.00     0.012 A 
BRANCH  19  24
HETATM   24  O   UNL     1     -44.181  56.989 -52.975  1.00  0.00    -0.355 OA
HETATM   25  C   UNL     1     -44.787  57.170 -54.249  1.00  0.00     0.210 C 
ENDBRANCH  19  24
ENDBRANCH  16  18
ENDBRANCH   2  16
TORSDOF 4
ENDMDL
MODEL 3
REMARK VINA RESULT:      -7.7      3.045      7.361
REMARK  4 active torsions:
REMARK  status: ('A' for Active; 'I' for Inactive)
REMARK    1  A    between atoms: C_9  and  C_10 
REMARK       I    between atoms: C_10  and  N_11 
REMARK    2  A    between atoms: N_11  and  C_12 
REMARK    3  A    between atoms: C_12  and  C_13 
REMARK    4  A    between atoms: C_14  and  O_15 
ROOT
HETATM    1  C   UNL     1     -43.001  55.034 -54.283  1.00  0.00     0.273 C 
HETATM    2  N   UNL     1     -42.443  55.894 -55.200  1.00  0.00    -0.347 N 
HETATM    3  O   UNL     1     -44.159  54.633 -54.319  1.00  0.00    -0.266 OA
HETATM    4  H   UNL     1     -41.445  56.041 -55.077  1.00  0.00     0.163 HD
ENDROOT
BRANCH   1   5
HETATM    5  C   UNL     1     -42.044  54.609 -53.245  1.00  0.00     0.157 A 
HETATM    6  C   UNL     1     -41.243  53.427 -53.241  1.00  0.00     0.029 A 
HETATM    7  C   UNL     1     -41.060  52.322 -54.096  1.00  0.00     0.023 A 
HETATM    8  C   UNL     1     -40.508  53.493 -52.065  1.00  0.00     0.063 A 
HETATM    9  C   UNL     1     -40.143  51.318 -53.743  1.00  0.00    -0.061 A 
HETATM   10  C   UNL     1     -39.935  50.130 -54.637  1.00  0.00     0.048 C 
HETATM   11  C   UNL     1     -39.421  51.423 -52.547  1.00  0.00     0.009 A 
HETATM   12  C   UNL     1     -39.589  52.513 -51.683  1.00  0.00     0.032 A 
HETATM   13  N   UNL     1     -40.898  54.656 -51.461  1.00  0.00    -0.277 N 
HETATM   14  H   UNL     1     -40.566  55.029 -50.578  1.00  0.00     0.189 HD
HETATM   15  N   UNL     1     -41.820  55.358 -52.142  1.00  0.00    -0.168 NA
ENDBRANCH   1   5
BRANCH   2  16
HETATM   16  C   UNL     1     -43.063  56.405 -56.416  1.00  0.00     0.116 C 
HETATM   17  C   UNL     1     -42.964  55.464 -57.618  1.00  0.00     0.037 C 
BRANCH  16  18
HETATM   18  C   UNL     1     -42.624  57.820 -56.774  1.00  0.00    -0.003 A 
HETATM   19  C   UNL     1     -42.743  58.866 -55.831  1.00  0.00     0.076 A 
HETATM   20  C   UNL     1     -42.350  60.166 -56.173  1.00  0.00     0.037 A 
HETATM   21  C   UNL     1     -41.854  60.445 -57.448  1.00  0.00     0.003 A 
HETATM   22  C   UNL     1     -41.755  59.429 -58.392  1.00  0.00     0.001 A 
HETATM   23  C   UNL     1     -42.143  58.132 -58.060  1.00  0.00     0.012 A 
BRANCH  19  24
HETATM   24  O   UNL     1     -43.253  58.515 -54.606  1.00  0.00    -0.355 OA
HETATM   25  C   UNL     1     -42.579  59.000 -53.450  1.00  0.00     0.210 C 
ENDBRANCH  19  24
ENDBRANCH  16  18
ENDBRANCH   2  16
TORSDOF 4
ENDMDL
MODEL 4
REMARK VINA RESULT:      -7.6      4.361      7.980
REMARK  4 active torsions:
REMARK  status: ('A' for Active; 'I' for Inactive)
REMARK    1  A    between atoms: C_9  and  C_10 
REMARK       I    between atoms: C_10  and  N_11 
REMARK    2  A    between atoms: N_11  and  C_12 
REMARK    3  A    between atoms: C_12  and  C_13 
REMARK    4  A    between atoms: C_14  and  O_15 
ROOT
HETATM    1  C   UNL     1     -42.593  55.336 -55.964  1.00  0.00     0.273 C 
HETATM    2  N   UNL     1     -42.363  56.583 -56.498  1.00  0.00    -0.347 N 
HETATM    3  O   UNL     1     -43.225  54.446 -56.522  1.00  0.00    -0.266 OA
HETATM    4  H   UNL     1     -41.736  57.162 -55.946  1.00  0.00     0.163 HD
ENDROOT
BRANCH   1   5
HETATM    5  C   UNL     1     -41.972  55.160 -54.639  1.00  0.00     0.157 A 
HETATM    6  C   UNL     1     -41.306  53.998 -54.146  1.00  0.00     0.029 A 
HETATM    7  C   UNL     1     -41.012  52.710 -54.637  1.00  0.00     0.023 A 
HETATM    8  C   UNL     1     -40.889  54.338 -52.865  1.00  0.00     0.063 A 
HETATM    9  C   UNL     1     -40.308  51.804 -53.828  1.00  0.00    -0.061 A 
HETATM   10  C   UNL     1     -39.988  50.426 -54.330  1.00  0.00     0.048 C 
HETATM   11  C   UNL     1     -39.904  52.187 -52.542  1.00  0.00     0.009 A 
HETATM   12  C   UNL     1     -40.186  53.461 -52.034  1.00  0.00     0.032 A 
HETATM   13  N   UNL     1     -41.312  55.623 -52.677  1.00  0.00    -0.277 N 
HETATM   14  H   UNL     1     -41.183  56.196 -51.850  1.00  0.00     0.189 HD
HETATM   15  N   UNL     1     -41.967  56.156 -53.724  1.00  0.00    -0.168 NA
ENDBRANCH   1   5
BRANCH   2  16
HETATM   16  C   UNL     1     -42.722  57.048 -57.832  1.00  0.00     0.116 C 
HETATM   17  C   UNL     1     -41.864  58.204 -58.350  1.00  0.00     0.037 C 
BRANCH  16  18
HETATM   18  C   UNL     1     -44.210  57.335 -57.997  1.00  0.00    -0.003 A 
HETATM   19  C   UNL     1     -44.918  56.823 -59.109  1.00  0.00     0.076 A 
HETATM   20  C   UNL     1     -46.282  57.103 -59.259  1.00  0.00     0.037 A 
HETATM   21  C   UNL     1     -46.949  57.899 -58.327  1.00  0.00     0.003 A 
HETATM   22  C   UNL     1     -46.258  58.427 -57.243  1.00  0.00     0.001 A 
HETATM   23  C   UNL     1     -44.900  58.153 -57.085  1.00  0.00     0.012 A 
BRANCH  19  24
HETATM   24  O   UNL     1     -44.188  56.063 -59.987  1.00  0.00    -0.355 OA
HETATM   25  C   UNL     1     -44.498  54.677 -60.072  1.00  0.00     0.210 C 
ENDBRANCH  19  24
ENDBRANCH  16  18
ENDBRANCH   2  16
TORSDOF 4
ENDMDL
MODEL 5
REMARK VINA RESULT:      -7.5      2.232      6.708
REMARK  4 active torsions:
REMARK  status: ('A' for Active; 'I' for Inactive)
REMARK    1  A    between atoms: C_9  and  C_10 
REMARK       I    between atoms: C_10  and  N_11 
REMARK    2  A    between atoms: N_11  and  C_12 
REMARK    3  A    between atoms: C_12  and  C_13 
REMARK    4  A    between atoms: C_14  and  O_15 
ROOT
HETATM    1  C   UNL     1     -41.613  56.251 -50.468  1.00  0.00     0.273 C 
HETATM    2  N   UNL     1     -42.696  56.241 -51.315  1.00  0.00    -0.347 N 
HETATM    3  O   UNL     1     -41.064  57.266 -50.052  1.00  0.00    -0.266 OA
HETATM    4  H   UNL     1     -43.087  55.317 -51.477  1.00  0.00     0.163 HD
ENDROOT
BRANCH   1   5
HETATM    5  C   UNL     1     -41.181  54.897 -50.077  1.00  0.00     0.157 A 
HETATM    6  C   UNL     1     -40.762  53.841 -50.942  1.00  0.00     0.029 A 
HETATM    7  C   UNL     1     -40.616  53.666 -52.333  1.00  0.00     0.023 A 
HETATM    8  C   UNL     1     -40.447  52.786 -50.096  1.00  0.00     0.063 A 
HETATM    9  C   UNL     1     -40.156  52.436 -52.830  1.00  0.00    -0.061 A 
HETATM   10  C   UNL     1     -39.997  52.226 -54.308  1.00  0.00     0.048 C 
HETATM   11  C   UNL     1     -39.849  51.396 -51.943  1.00  0.00     0.009 A 
HETATM   12  C   UNL     1     -39.988  51.550 -50.558  1.00  0.00     0.032 A 
HETATM   13  N   UNL     1     -40.687  53.251 -48.834  1.00  0.00    -0.277 N 
HETATM   14  H   UNL     1     -40.567  52.747 -47.962  1.00  0.00     0.189 HD
HETATM   15  N   UNL     1     -41.128  54.520 -48.780  1.00  0.00    -0.168 NA
ENDBRANCH   1   5
BRANCH   2  16
HETATM   16  C   UNL     1     -43.451  57.393 -51.791  1.00  0.00     0.116 C 
HETATM   17  C   UNL     1     -44.813  57.577 -51.119  1.00  0.00     0.037 C 
BRANCH  16  18
HETATM   18  C   UNL     1     -43.561  57.463 -53.310  1.00  0.00    -0.003 A 
HETATM   19  C   UNL     1     -42.397  57.571 -54.106  1.00  0.00     0.076 A 
HETATM   20  C   UNL     1     -42.509  57.649 -55.500  1.00  0.00     0.037 A 
HETATM   21  C   UNL     1     -43.762  57.636 -56.114  1.00  0.00     0.003 A 
HETATM   22  C   UNL     1     -44.913  57.554 -55.340  1.00  0.00     0.001 A 
HETATM   23  C   UNL     1     -44.813  57.476 -53.951  1.00  0.00     0.012 A 
BRANCH  19  24
HETATM   24  O   UNL     1     -41.205  57.592 -53.428  1.00  0.00    -0.355 OA
HETATM   25  C   UNL     1     -40.553  58.848 -53.282  1.00  0.00     0.210 C 
ENDBRANCH  19  24
ENDBRANCH  16  18
ENDBRANCH   2  16
TORSDOF 4
ENDMDL
MODEL 6
REMARK VINA RESULT:      -7.4      4.931      7.682
REMARK  4 active torsions:
REMARK  status: ('A' for Active; 'I' for Inactive)
REMARK    1  A    between atoms: C_9  and  C_10 
REMARK       I    between atoms: C_10  and  N_11 
REMARK    2  A    between atoms: N_11  and  C_12 
REMARK    3  A    between atoms: C_12  and  C_13 
REMARK    4  A    between atoms: C_14  and  O_15 
ROOT
HETATM    1  C   UNL     1     -43.286  57.151 -55.895  1.00  0.00     0.273 C 
HETATM    2  N   UNL     1     -44.495  57.366 -56.516  1.00  0.00    -0.347 N 
HETATM    3  O   UNL     1     -42.199  57.484 -56.353  1.00  0.00    -0.266 OA
HETATM    4  H   UNL     1     -45.302  57.119 -55.950  1.00  0.00     0.163 HD
ENDROOT
BRANCH   1   5
HETATM    5  C   UNL     1     -43.428  56.493 -54.584  1.00  0.00     0.157 A 
HETATM    6  C   UNL     1     -42.701  55.363 -54.102  1.00  0.00     0.029 A 
HETATM    7  C   UNL     1     -41.694  54.514 -54.603  1.00  0.00     0.023 A 
HETATM    8  C   UNL     1     -43.188  55.141 -52.820  1.00  0.00     0.063 A 
HETATM    9  C   UNL     1     -41.206  53.469 -53.802  1.00  0.00    -0.061 A 
HETATM   10  C   UNL     1     -40.136  52.551 -54.318  1.00  0.00     0.048 C 
HETATM   11  C   UNL     1     -41.724  53.280 -52.514  1.00  0.00     0.009 A 
HETATM   12  C   UNL     1     -42.725  54.111 -51.996  1.00  0.00     0.032 A 
HETATM   13  N   UNL     1     -44.136  56.105 -52.622  1.00  0.00    -0.277 N 
HETATM   14  H   UNL     1     -44.702  56.247 -51.792  1.00  0.00     0.189 HD
HETATM   15  N   UNL     1     -44.309  56.941 -53.660  1.00  0.00    -0.168 NA
ENDBRANCH   1   5
BRANCH   2  16
HETATM   16  C   UNL     1     -44.729  58.099 -57.754  1.00  0.00     0.116 C 
HETATM   17  C   UNL     1     -45.582  59.358 -57.590  1.00  0.00     0.037 C 
BRANCH  16  18
HETATM   18  C   UNL     1     -45.235  57.223 -58.894  1.00  0.00    -0.003 A 
HETATM   19  C   UNL     1     -44.329  56.458 -59.664  1.00  0.00     0.076 A 
HETATM   20  C   UNL     1     -44.802  55.666 -60.718  1.00  0.00     0.037 A 
HETATM   21  C   UNL     1     -46.163  55.637 -61.028  1.00  0.00     0.003 A 
HETATM   22  C   UNL     1     -47.059  56.403 -60.294  1.00  0.00     0.001 A 
HETATM   23  C   UNL     1     -46.598  57.194 -59.241  1.00  0.00     0.012 A 
BRANCH  19  24
HETATM   24  O   UNL     1     -43.008  56.552 -59.306  1.00  0.00    -0.355 OA
HETATM   25  C   UNL     1     -42.146  57.290 -60.164  1.00  0.00     0.210 C 
ENDBRANCH  19  24
ENDBRANCH  16  18
ENDBRANCH   2  16
TORSDOF 4
ENDMDL
MODEL 7
REMARK VINA RESULT:      -7.2      1.934      2.899
REMARK  4 active torsions:
REMARK  status: ('A' for Active; 'I' for Inactive)
REMARK    1  A    between atoms: C_9  and  C_10 
REMARK       I    between atoms: C_10  and  N_11 
REMARK    2  A    between atoms: N_11  and  C_12 
REMARK    3  A    between atoms: C_12  and  C_13 
REMARK    4  A    between atoms: C_14  and  O_15 
ROOT
HETATM    1  C   UNL     1     -43.445  55.045 -51.069  1.00  0.00     0.273 C 
HETATM    2  N   UNL     1     -42.081  55.063 -51.247  1.00  0.00    -0.347 N 
HETATM    3  O   UNL     1     -44.080  54.084 -50.650  1.00  0.00    -0.266 OA
HETATM    4  H   UNL     1     -41.709  55.973 -51.504  1.00  0.00     0.163 HD
ENDROOT
BRANCH   1   5
HETATM    5  C   UNL     1     -44.082  56.330 -51.412  1.00  0.00     0.157 A 
HETATM    6  C   UNL     1     -44.024  57.015 -52.663  1.00  0.00     0.029 A 
HETATM    7  C   UNL     1     -43.415  56.794 -53.914  1.00  0.00     0.023 A 
HETATM    8  C   UNL     1     -44.790  58.159 -52.483  1.00  0.00     0.063 A 
HETATM    9  C   UNL     1     -43.596  57.729 -54.947  1.00  0.00    -0.061 A 
HETATM   10  C   UNL     1     -42.953  57.514 -56.287  1.00  0.00     0.048 C 
HETATM   11  C   UNL     1     -44.377  58.870 -54.725  1.00  0.00     0.009 A 
HETATM   12  C   UNL     1     -44.990  59.109 -53.489  1.00  0.00     0.032 A 
HETATM   13  N   UNL     1     -45.238  58.095 -51.194  1.00  0.00    -0.277 N 
HETATM   14  H   UNL     1     -45.829  58.767 -50.716  1.00  0.00     0.189 HD
HETATM   15  N   UNL     1     -44.835  57.006 -50.515  1.00  0.00    -0.168 NA
ENDBRANCH   1   5
BRANCH   2  16
HETATM   16  C   UNL     1     -41.134  54.015 -50.888  1.00  0.00     0.116 C 
HETATM   17  C   UNL     1     -39.978  54.485 -50.003  1.00  0.00     0.037 C 
BRANCH  16  18
HETATM   18  C   UNL     1     -40.636  53.210 -52.082  1.00  0.00    -0.003 A 
HETATM   19  C   UNL     1     -40.088  51.920 -51.897  1.00  0.00     0.076 A 
HETATM   20  C   UNL     1     -39.621  51.193 -52.999  1.00  0.00     0.037 A 
HETATM   21  C   UNL     1     -39.675  51.739 -54.283  1.00  0.00     0.003 A 
HETATM   22  C   UNL     1     -40.188  53.015 -54.474  1.00  0.00     0.001 A 
HETATM   23  C   UNL     1     -40.657  53.746 -53.383  1.00  0.00     0.012 A 
BRANCH  19  24
HETATM   24  O   UNL     1     -40.057  51.461 -50.604  1.00  0.00    -0.355 OA
HETATM   25  C   UNL     1     -39.919  50.058 -50.408  1.00  0.00     0.210 C 
ENDBRANCH  19  24
ENDBRANCH  16  18
ENDBRANCH   2  16
TORSDOF 4
ENDMDL
MODEL 8
REMARK VINA RESULT:      -7.1      3.866      7.036
REMARK  4 active torsions:
REMARK  status: ('A' for Active; 'I' for Inactive)
REMARK    1  A    between atoms: C_9  and  C_10 
REMARK       I    between atoms: C_10  and  N_11 
REMARK    2  A    between atoms: N_11  and  C_12 
REMARK    3  A    between atoms: C_12  and  C_13 
REMARK    4  A    between atoms: C_14  and  O_15 
ROOT
HETATM    1  C   UNL     1     -41.740  58.406 -54.191  1.00  0.00     0.273 C 
HETATM    2  N   UNL     1     -42.643  57.966 -55.130  1.00  0.00    -0.347 N 
HETATM    3  O   UNL     1     -41.062  59.422 -54.301  1.00  0.00    -0.266 OA
HETATM    4  H   UNL     1     -43.192  57.163 -54.833  1.00  0.00     0.163 HD
ENDROOT
BRANCH   1   5
HETATM    5  C   UNL     1     -41.683  57.536 -53.003  1.00  0.00     0.157 A 
HETATM    6  C   UNL     1     -41.319  56.156 -52.960  1.00  0.00     0.029 A 
HETATM    7  C   UNL     1     -40.929  55.179 -53.897  1.00  0.00     0.023 A 
HETATM    8  C   UNL     1     -41.407  55.802 -51.620  1.00  0.00     0.063 A 
HETATM    9  C   UNL     1     -40.638  53.877 -53.460  1.00  0.00    -0.061 A 
HETATM   10  C   UNL     1     -40.224  52.820 -54.442  1.00  0.00     0.048 C 
HETATM   11  C   UNL     1     -40.737  53.561 -52.099  1.00  0.00     0.009 A 
HETATM   12  C   UNL     1     -41.124  54.516 -51.150  1.00  0.00     0.032 A 
HETATM   13  N   UNL     1     -41.801  56.938 -50.971  1.00  0.00    -0.277 N 
HETATM   14  H   UNL     1     -41.967  57.050 -49.977  1.00  0.00     0.189 HD
HETATM   15  N   UNL     1     -41.976  58.006 -51.769  1.00  0.00    -0.168 NA
ENDBRANCH   1   5
BRANCH   2  16
HETATM   16  C   UNL     1     -43.041  58.647 -56.356  1.00  0.00     0.116 C 
HETATM   17  C   UNL     1     -44.453  59.234 -56.322  1.00  0.00     0.037 C 
BRANCH  16  18
HETATM   18  C   UNL     1     -42.805  57.822 -57.615  1.00  0.00    -0.003 A 
HETATM   19  C   UNL     1     -42.083  58.365 -58.702  1.00  0.00     0.076 A 
HETATM   20  C   UNL     1     -41.884  57.604 -59.861  1.00  0.00     0.037 A 
HETATM   21  C   UNL     1     -42.407  56.313 -59.960  1.00  0.00     0.003 A 
HETATM   22  C   UNL     1     -43.138  55.778 -58.908  1.00  0.00     0.001 A 
HETATM   23  C   UNL     1     -43.342  56.528 -57.750  1.00  0.00     0.012 A 
BRANCH  19  24
HETATM   24  O   UNL     1     -41.615  59.644 -58.533  1.00  0.00    -0.355 OA
HETATM   25  C   UNL     1     -42.062  60.635 -59.451  1.00  0.00     0.210 C 
ENDBRANCH  19  24
ENDBRANCH  16  18
ENDBRANCH   2  16
TORSDOF 4
ENDMDL
MODEL 9
REMARK VINA RESULT:      -7.1      3.855      7.424
REMARK  4 active torsions:
REMARK  status: ('A' for Active; 'I' for Inactive)
REMARK    1  A    between atoms: C_9  and  C_10 
REMARK       I    between atoms: C_10  and  N_11 
REMARK    2  A    between atoms: N_11  and  C_12 
REMARK    3  A    between atoms: C_12  and  C_13 
REMARK    4  A    between atoms: C_14  and  O_15 
ROOT
HETATM    1  C   UNL     1     -41.371  56.333 -54.587  1.00  0.00     0.273 C 
HETATM    2  N   UNL     1     -42.101  56.432 -55.749  1.00  0.00    -0.347 N 
HETATM    3  O   UNL     1     -41.161  57.263 -53.816  1.00  0.00    -0.266 OA
HETATM    4  H   UNL     1     -42.262  55.543 -56.215  1.00  0.00     0.163 HD
ENDROOT
BRANCH   1   5
HETATM    5  C   UNL     1     -40.878  54.967 -54.339  1.00  0.00     0.157 A 
HETATM    6  C   UNL     1     -40.737  54.316 -53.076  1.00  0.00     0.029 A 
HETATM    7  C   UNL     1     -40.963  54.656 -51.727  1.00  0.00     0.023 A 
HETATM    8  C   UNL     1     -40.253  53.049 -53.375  1.00  0.00     0.063 A 
HETATM    9  C   UNL     1     -40.699  53.713 -50.721  1.00  0.00    -0.061 A 
HETATM   10  C   UNL     1     -40.930  54.056 -49.278  1.00  0.00     0.048 C 
HETATM   11  C   UNL     1     -40.212  52.445 -51.065  1.00  0.00     0.009 A 
HETATM   12  C   UNL     1     -39.979  52.087 -52.399  1.00  0.00     0.032 A 
HETATM   13  N   UNL     1     -40.137  53.019 -54.736  1.00  0.00    -0.277 N 
HETATM   14  H   UNL     1     -39.811  52.246 -55.307  1.00  0.00     0.189 HD
HETATM   15  N   UNL     1     -40.506  54.154 -55.354  1.00  0.00    -0.168 NA
ENDBRANCH   1   5
BRANCH   2  16
HETATM   16  C   UNL     1     -42.835  57.596 -56.230  1.00  0.00     0.116 C 
HETATM   17  C   UNL     1     -44.330  57.576 -55.910  1.00  0.00     0.037 C 
BRANCH  16  18
HETATM   18  C   UNL     1     -42.579  57.912 -57.699  1.00  0.00    -0.003 A 
HETATM   19  C   UNL     1     -42.751  56.914 -58.686  1.00  0.00     0.076 A 
HETATM   20  C   UNL     1     -42.500  57.211 -60.031  1.00  0.00     0.037 A 
HETATM   21  C   UNL     1     -42.066  58.482 -60.409  1.00  0.00     0.003 A 
HETATM   22  C   UNL     1     -41.870  59.464 -59.445  1.00  0.00     0.001 A 
HETATM   23  C   UNL     1     -42.117  59.179 -58.103  1.00  0.00     0.012 A 
BRANCH  19  24
HETATM   24  O   UNL     1     -43.166  55.687 -58.233  1.00  0.00    -0.355 OA
HETATM   25  C   UNL     1     -43.941  54.888 -59.119  1.00  0.00     0.210 C 
ENDBRANCH  19  24
ENDBRANCH  16  18
ENDBRANCH   2  16
TORSDOF 4
ENDMDL
MODEL 10
REMARK VINA RESULT:      -7.1      2.012      2.494
REMARK  4 active torsions:
REMARK  status: ('A' for Active; 'I' for Inactive)
REMARK    1  A    between atoms: C_9  and  C_10 
REMARK       I    between atoms: C_10  and  N_11 
REMARK    2  A    between atoms: N_11  and  C_12 
REMARK    3  A    between atoms: C_12  and  C_13 
REMARK    4  A    between atoms: C_14  and  O_15 
ROOT
HETATM    1  C   UNL     1     -41.192  57.181 -52.832  1.00  0.00     0.273 C 
HETATM    2  N   UNL     1     -41.763  55.967 -52.529  1.00  0.00    -0.347 N 
HETATM    3  O   UNL     1     -40.592  57.428 -53.873  1.00  0.00    -0.266 OA
HETATM    4  H   UNL     1     -42.307  55.967 -51.671  1.00  0.00     0.163 HD
ENDROOT
BRANCH   1   5
HETATM    5  C   UNL     1     -41.396  58.186 -51.774  1.00  0.00     0.157 A 
HETATM    6  C   UNL     1     -42.008  59.469 -51.909  1.00  0.00     0.029 A 
HETATM    7  C   UNL     1     -42.582  60.215 -52.958  1.00  0.00     0.023 A 
HETATM    8  C   UNL     1     -41.974  60.021 -50.635  1.00  0.00     0.063 A 
HETATM    9  C   UNL     1     -43.105  61.492 -52.695  1.00  0.00    -0.061 A 
HETATM   10  C   UNL     1     -43.718  62.304 -53.798  1.00  0.00     0.048 C 
HETATM   11  C   UNL     1     -43.051  62.012 -51.395  1.00  0.00     0.009 A 
HETATM   12  C   UNL     1     -42.485  61.287 -50.339  1.00  0.00     0.032 A 
HETATM   13  N   UNL     1     -41.369  59.080 -49.850  1.00  0.00    -0.277 N 
HETATM   14  H   UNL     1     -41.174  59.143 -48.857  1.00  0.00     0.189 HD
HETATM   15  N   UNL     1     -41.008  57.959 -50.499  1.00  0.00    -0.168 NA
ENDBRANCH   1   5
BRANCH   2  16
HETATM   16  C   UNL     1     -41.860  54.800 -53.397  1.00  0.00     0.116 C 
HETATM   17  C   UNL     1     -43.291  54.391 -53.750  1.00  0.00     0.037 C 
BRANCH  16  18
HETATM   18  C   UNL     1     -41.040  53.610 -52.910  1.00  0.00    -0.003 A 
HETATM   19  C   UNL     1     -40.940  53.328 -51.529  1.00  0.00     0.076 A 
HETATM   20  C   UNL     1     -40.174  52.241 -51.090  1.00  0.00     0.037 A 
HETATM   21  C   UNL     1     -39.492  51.438 -52.006  1.00  0.00     0.003 A 
HETATM   22  C   UNL     1     -39.564  51.720 -53.365  1.00  0.00     0.001 A 
HETATM   23  C   UNL     1     -40.325  52.800 -53.811  1.00  0.00     0.012 A 
BRANCH  19  24
HETATM   24  O   UNL     1     -41.627  54.172 -50.692  1.00  0.00    -0.355 OA
HETATM   25  C   UNL     1     -41.134  54.328 -49.367  1.00  0.00     0.210 C 
ENDBRANCH  19  24
ENDBRANCH  16  18
ENDBRANCH   2  16
TORSDOF 4
ENDMDL
