MODEL 1
REMARK VINA RESULT:      -7.8      0.000      0.000
REMARK  9 active torsions:
REMARK  status: ('A' for Active; 'I' for Inactive)
REMARK    1  A    between atoms: C_2  and  O_3 
REMARK    2  A    between atoms: O_3  and  C_4 
REMARK    3  A    between atoms: C_7  and  N_8 
REMARK       I    between atoms: N_8  and  C_9 
REMARK    4  A    between atoms: C_9  and  C_10 
REMARK    5  A    between atoms: C_11  and  N_12 
REMARK       I    between atoms: N_12  and  C_13 
REMARK    6  A    between atoms: C_13  and  C_14 
REMARK    7  A    between atoms: C_14  and  N_15 
REMARK    8  A    between atoms: N_15  and  C_18 
REMARK    9  A    between atoms: C_18  and  C_19 
ROOT
HETATM    1  C   UNL     1     -42.707  58.686 -56.706  1.00  0.00     0.073 A 
HETATM    2  C   UNL     1     -42.707  59.950 -56.100  1.00  0.00     0.093 A 
HETATM    3  S   UNL     1     -42.569  61.240 -57.213  1.00  0.00    -0.075 SA
HETATM    4  C   UNL     1     -42.459  60.169 -58.481  1.00  0.00    -0.008 A 
HETATM    5  C   UNL     1     -42.525  58.852 -58.115  1.00  0.00    -0.026 A 
HETATM    6  C   UNL     1     -42.379  57.983 -59.319  1.00  0.00     0.041 C 
HETATM    7  C   UNL     1     -41.861  58.978 -60.402  1.00  0.00     0.010 C 
HETATM    8  C   UNL     1     -42.283  60.399 -59.935  1.00  0.00     0.047 C 
ENDROOT
BRANCH   2   9
HETATM    9  N   UNL     1     -42.788  60.185 -54.732  1.00  0.00    -0.319 N 
HETATM   10  C   UNL     1     -41.842  59.884 -53.781  1.00  0.00     0.248 C 
HETATM   11  O   UNL     1     -40.708  59.429 -53.931  1.00  0.00    -0.271 OA
HETATM   12  H   UNL     1     -43.652  60.662 -54.464  1.00  0.00     0.169 HD
BRANCH  10  13
HETATM   13  C   UNL     1     -42.283  60.186 -52.349  1.00  0.00     0.335 C 
BRANCH  13  14
HETATM   14  N   UNL     1     -42.257  58.908 -51.549  1.00  0.00    -0.059 N 
HETATM   15  H   UNL     1     -41.280  58.563 -51.613  1.00  0.00     0.278 HD
HETATM   16  H   UNL     1     -42.354  59.119 -50.548  1.00  0.00     0.278 HD
BRANCH  14  17
HETATM   17  C   UNL     1     -43.172  57.804 -51.953  1.00  0.00     0.215 C 
HETATM   18  C   UNL     1     -44.582  58.071 -51.429  1.00  0.00     0.045 C 
BRANCH  17  19
HETATM   19  C   UNL     1     -42.609  56.481 -51.479  1.00  0.00    -0.028 A 
HETATM   20  C   UNL     1     -41.326  56.383 -50.911  1.00  0.00     0.009 A 
HETATM   21  C   UNL     1     -40.815  55.146 -50.515  1.00  0.00     0.001 A 
HETATM   22  C   UNL     1     -41.574  53.991 -50.681  1.00  0.00     0.000 A 
HETATM   23  C   UNL     1     -42.844  54.070 -51.244  1.00  0.00     0.001 A 
HETATM   24  C   UNL     1     -43.359  55.304 -51.645  1.00  0.00     0.009 A 
ENDBRANCH  17  19
ENDBRANCH  14  17
ENDBRANCH  13  14
ENDBRANCH  10  13
ENDBRANCH   2   9
BRANCH   1  25
HETATM   25  C   UNL     1     -42.874  57.456 -55.907  1.00  0.00     0.259 C 
HETATM   26  N   UNL     1     -41.786  56.609 -55.918  1.00  0.00    -0.323 N 
HETATM   27  H   UNL     1     -40.999  56.887 -56.483  1.00  0.00     0.169 HD
HETATM   28  O   UNL     1     -43.949  57.239 -55.349  1.00  0.00    -0.267 OA
BRANCH  26  29
HETATM   29  C   UNL     1     -41.667  55.334 -55.329  1.00  0.00     0.035 A 
HETATM   30  C   UNL     1     -42.671  54.366 -55.330  1.00  0.00     0.032 A 
HETATM   31  C   UNL     1     -42.443  53.102 -54.763  1.00  0.00     0.039 A 
HETATM   32  C   UNL     1     -41.210  52.797 -54.191  1.00  0.00     0.068 A 
HETATM   33  C   UNL     1     -40.220  53.776 -54.152  1.00  0.00     0.039 A 
HETATM   34  C   UNL     1     -40.442  55.033 -54.720  1.00  0.00     0.032 A 
BRANCH  32  35
HETATM   35  O   UNL     1     -40.858  51.603 -53.630  1.00  0.00    -0.352 OA
BRANCH  35  36
HETATM   36  C   UNL     1     -39.488  51.221 -53.740  1.00  0.00     0.171 C 
HETATM   37  C   UNL     1     -39.434  49.866 -54.422  1.00  0.00     0.034 C 
ENDBRANCH  35  36
ENDBRANCH  32  35
ENDBRANCH  26  29
ENDBRANCH   1  25
TORSDOF 9
ENDMDL
MODEL 2
REMARK VINA RESULT:      -7.8      1.736      2.310
REMARK  9 active torsions:
REMARK  status: ('A' for Active; 'I' for Inactive)
REMARK    1  A    between atoms: C_2  and  O_3 
REMARK    2  A    between atoms: O_3  and  C_4 
REMARK    3  A    between atoms: C_7  and  N_8 
REMARK       I    between atoms: N_8  and  C_9 
REMARK    4  A    between atoms: C_9  and  C_10 
REMARK    5  A    between atoms: C_11  and  N_12 
REMARK       I    between atoms: N_12  and  C_13 
REMARK    6  A    between atoms: C_13  and  C_14 
REMARK    7  A    between atoms: C_14  and  N_15 
REMARK    8  A    between atoms: N_15  and  C_18 
REMARK    9  A    between atoms: C_18  and  C_19 
ROOT
HETATM    1  C   UNL     1     -42.915  56.954 -56.747  1.00  0.00     0.073 A 
HETATM    2  C   UNL     1     -42.742  58.341 -56.643  1.00  0.00     0.093 A 
HETATM    3  S   UNL     1     -43.154  59.189 -58.069  1.00  0.00    -0.075 SA
HETATM    4  C   UNL     1     -43.512  57.761 -58.845  1.00  0.00    -0.008 A 
HETATM    5  C   UNL     1     -43.341  56.642 -58.076  1.00  0.00    -0.026 A 
HETATM    6  C   UNL     1     -43.652  55.424 -58.878  1.00  0.00     0.041 C 
HETATM    7  C   UNL     1     -43.689  55.971 -60.338  1.00  0.00     0.010 C 
HETATM    8  C   UNL     1     -43.966  57.496 -60.232  1.00  0.00     0.047 C 
ENDROOT
BRANCH   2   9
HETATM    9  N   UNL     1     -42.265  59.009 -55.520  1.00  0.00    -0.319 N 
HETATM   10  C   UNL     1     -43.008  59.560 -54.505  1.00  0.00     0.248 C 
HETATM   11  O   UNL     1     -44.224  59.515 -54.320  1.00  0.00    -0.271 OA
HETATM   12  H   UNL     1     -41.243  59.037 -55.484  1.00  0.00     0.169 HD
BRANCH  10  13
HETATM   13  C   UNL     1     -42.178  60.310 -53.464  1.00  0.00     0.335 C 
BRANCH  13  14
HETATM   14  N   UNL     1     -42.401  59.681 -52.112  1.00  0.00    -0.059 N 
HETATM   15  H   UNL     1     -42.616  60.471 -51.473  1.00  0.00     0.278 HD
HETATM   16  H   UNL     1     -43.281  59.150 -52.113  1.00  0.00     0.278 HD
BRANCH  14  17
HETATM   17  C   UNL     1     -41.296  58.881 -51.515  1.00  0.00     0.215 C 
HETATM   18  C   UNL     1     -40.163  58.712 -52.527  1.00  0.00     0.045 C 
BRANCH  17  19
HETATM   19  C   UNL     1     -41.840  57.559 -51.016  1.00  0.00    -0.028 A 
HETATM   20  C   UNL     1     -41.102  56.736 -50.147  1.00  0.00     0.009 A 
HETATM   21  C   UNL     1     -41.611  55.505 -49.729  1.00  0.00     0.001 A 
HETATM   22  C   UNL     1     -42.859  55.077 -50.174  1.00  0.00     0.000 A 
HETATM   23  C   UNL     1     -43.601  55.879 -51.037  1.00  0.00     0.001 A 
HETATM   24  C   UNL     1     -43.095  57.110 -51.460  1.00  0.00     0.009 A 
ENDBRANCH  17  19
ENDBRANCH  14  17
ENDBRANCH  13  14
ENDBRANCH  10  13
ENDBRANCH   2   9
BRANCH   1  25
HETATM   25  C   UNL     1     -42.663  56.065 -55.596  1.00  0.00     0.259 C 
HETATM   26  N   UNL     1     -41.419  55.469 -55.589  1.00  0.00    -0.323 N 
HETATM   27  H   UNL     1     -40.815  55.668 -56.372  1.00  0.00     0.169 HD
HETATM   28  O   UNL     1     -43.558  55.869 -54.776  1.00  0.00    -0.267 OA
BRANCH  26  29
HETATM   29  C   UNL     1     -40.913  54.515 -54.683  1.00  0.00     0.035 A 
HETATM   30  C   UNL     1     -40.823  54.704 -53.304  1.00  0.00     0.032 A 
HETATM   31  C   UNL     1     -40.353  53.677 -52.472  1.00  0.00     0.039 A 
HETATM   32  C   UNL     1     -39.969  52.451 -53.013  1.00  0.00     0.068 A 
HETATM   33  C   UNL     1     -40.018  52.275 -54.394  1.00  0.00     0.039 A 
HETATM   34  C   UNL     1     -40.491  53.295 -55.223  1.00  0.00     0.032 A 
BRANCH  32  35
HETATM   35  O   UNL     1     -39.518  51.370 -52.312  1.00  0.00    -0.352 OA
BRANCH  35  36
HETATM   36  C   UNL     1     -39.931  51.269 -50.950  1.00  0.00     0.171 C 
HETATM   37  C   UNL     1     -39.855  49.808 -50.546  1.00  0.00     0.034 C 
ENDBRANCH  35  36
ENDBRANCH  32  35
ENDBRANCH  26  29
ENDBRANCH   1  25
TORSDOF 9
ENDMDL
MODEL 3
REMARK VINA RESULT:      -7.6      2.735      6.624
REMARK  9 active torsions:
REMARK  status: ('A' for Active; 'I' for Inactive)
REMARK    1  A    between atoms: C_2  and  O_3 
REMARK    2  A    between atoms: O_3  and  C_4 
REMARK    3  A    between atoms: C_7  and  N_8 
REMARK       I    between atoms: N_8  and  C_9 
REMARK    4  A    between atoms: C_9  and  C_10 
REMARK    5  A    between atoms: C_11  and  N_12 
REMARK       I    between atoms: N_12  and  C_13 
REMARK    6  A    between atoms: C_13  and  C_14 
REMARK    7  A    between atoms: C_14  and  N_15 
REMARK    8  A    between atoms: N_15  and  C_18 
REMARK    9  A    between atoms: C_18  and  C_19 
ROOT
HETATM    1  C   UNL     1     -41.738  53.987 -53.388  1.00  0.00     0.073 A 
HETATM    2  C   UNL     1     -41.709  54.541 -52.101  1.00  0.00     0.093 A 
HETATM    3  S   UNL     1     -40.614  53.758 -51.047  1.00  0.00    -0.075 SA
HETATM    4  C   UNL     1     -40.207  52.668 -52.237  1.00  0.00    -0.008 A 
HETATM    5  C   UNL     1     -40.861  52.859 -53.425  1.00  0.00    -0.026 A 
HETATM    6  C   UNL     1     -40.452  51.810 -54.402  1.00  0.00     0.041 C 
HETATM    7  C   UNL     1     -39.729  50.762 -53.503  1.00  0.00     0.010 C 
HETATM    8  C   UNL     1     -39.274  51.517 -52.222  1.00  0.00     0.047 C 
ENDROOT
BRANCH   2   9
HETATM    9  N   UNL     1     -42.489  55.607 -51.666  1.00  0.00    -0.319 N 
HETATM   10  C   UNL     1     -43.662  55.540 -50.954  1.00  0.00     0.248 C 
HETATM   11  O   UNL     1     -44.227  54.555 -50.480  1.00  0.00    -0.271 OA
HETATM   12  H   UNL     1     -42.082  56.515 -51.904  1.00  0.00     0.169 HD
BRANCH  10  13
HETATM   13  C   UNL     1     -44.322  56.898 -50.717  1.00  0.00     0.335 C 
BRANCH  13  14
HETATM   14  N   UNL     1     -44.365  57.657 -52.020  1.00  0.00    -0.059 N 
HETATM   15  H   UNL     1     -43.754  57.123 -52.668  1.00  0.00     0.278 HD
HETATM   16  H   UNL     1     -45.291  57.556 -52.453  1.00  0.00     0.278 HD
BRANCH  14  17
HETATM   17  C   UNL     1     -43.924  59.079 -52.023  1.00  0.00     0.215 C 
HETATM   18  C   UNL     1     -44.392  59.771 -53.302  1.00  0.00     0.045 C 
BRANCH  17  19
HETATM   19  C   UNL     1     -42.424  59.144 -51.834  1.00  0.00    -0.028 A 
HETATM   20  C   UNL     1     -41.532  58.737 -52.842  1.00  0.00     0.009 A 
HETATM   21  C   UNL     1     -40.153  58.773 -52.630  1.00  0.00     0.001 A 
HETATM   22  C   UNL     1     -39.645  59.211 -51.410  1.00  0.00     0.000 A 
HETATM   23  C   UNL     1     -40.513  59.614 -50.400  1.00  0.00     0.001 A 
HETATM   24  C   UNL     1     -41.894  59.577 -50.606  1.00  0.00     0.009 A 
ENDBRANCH  17  19
ENDBRANCH  14  17
ENDBRANCH  13  14
ENDBRANCH  10  13
ENDBRANCH   2   9
BRANCH   1  25
HETATM   25  C   UNL     1     -42.584  54.568 -54.449  1.00  0.00     0.259 C 
HETATM   26  N   UNL     1     -41.917  55.386 -55.336  1.00  0.00    -0.323 N 
HETATM   27  H   UNL     1     -40.934  55.535 -55.167  1.00  0.00     0.169 HD
HETATM   28  O   UNL     1     -43.794  54.346 -54.448  1.00  0.00    -0.267 OA
BRANCH  26  29
HETATM   29  C   UNL     1     -42.452  56.146 -56.396  1.00  0.00     0.035 A 
HETATM   30  C   UNL     1     -42.946  55.609 -57.584  1.00  0.00     0.032 A 
HETATM   31  C   UNL     1     -43.509  56.441 -58.564  1.00  0.00     0.039 A 
HETATM   32  C   UNL     1     -43.582  57.818 -58.363  1.00  0.00     0.068 A 
HETATM   33  C   UNL     1     -43.051  58.362 -57.195  1.00  0.00     0.039 A 
HETATM   34  C   UNL     1     -42.495  57.535 -56.217  1.00  0.00     0.032 A 
BRANCH  32  35
HETATM   35  O   UNL     1     -44.123  58.728 -59.225  1.00  0.00    -0.352 OA
BRANCH  35  36
HETATM   36  C   UNL     1     -43.662  58.688 -60.574  1.00  0.00     0.171 C 
HETATM   37  C   UNL     1     -42.391  59.514 -60.658  1.00  0.00     0.034 C 
ENDBRANCH  35  36
ENDBRANCH  32  35
ENDBRANCH  26  29
ENDBRANCH   1  25
TORSDOF 9
ENDMDL
MODEL 4
REMARK VINA RESULT:      -7.5      2.046      6.180
REMARK  9 active torsions:
REMARK  status: ('A' for Active; 'I' for Inactive)
REMARK    1  A    between atoms: C_2  and  O_3 
REMARK    2  A    between atoms: O_3  and  C_4 
REMARK    3  A    between atoms: C_7  and  N_8 
REMARK       I    between atoms: N_8  and  C_9 
REMARK    4  A    between atoms: C_9  and  C_10 
REMARK    5  A    between atoms: C_11  and  N_12 
REMARK       I    between atoms: N_12  and  C_13 
REMARK    6  A    between atoms: C_13  and  C_14 
REMARK    7  A    between atoms: C_14  and  N_15 
REMARK    8  A    between atoms: N_15  and  C_18 
REMARK    9  A    between atoms: C_18  and  C_19 
ROOT
HETATM    1  C   UNL     1     -41.898  59.827 -53.223  1.00  0.00     0.073 A 
HETATM    2  C   UNL     1     -42.287  60.614 -54.316  1.00  0.00     0.093 A 
HETATM    3  S   UNL     1     -43.169  62.009 -53.871  1.00  0.00    -0.075 SA
HETATM    4  C   UNL     1     -43.093  61.577 -52.266  1.00  0.00    -0.008 A 
HETATM    5  C   UNL     1     -42.420  60.409 -52.027  1.00  0.00    -0.026 A 
HETATM    6  C   UNL     1     -42.446  60.099 -50.568  1.00  0.00     0.041 C 
HETATM    7  C   UNL     1     -43.538  61.072 -50.027  1.00  0.00     0.010 C 
HETATM    8  C   UNL     1     -43.647  62.231 -51.056  1.00  0.00     0.047 C 
ENDROOT
BRANCH   2   9
HETATM    9  N   UNL     1     -42.027  60.322 -55.650  1.00  0.00    -0.319 N 
HETATM   10  C   UNL     1     -42.580  59.314 -56.402  1.00  0.00     0.248 C 
HETATM   11  O   UNL     1     -43.468  58.517 -56.100  1.00  0.00    -0.271 OA
HETATM   12  H   UNL     1     -41.367  60.978 -56.076  1.00  0.00     0.169 HD
BRANCH  10  13
HETATM   13  C   UNL     1     -42.006  59.205 -57.814  1.00  0.00     0.335 C 
BRANCH  13  14
HETATM   14  N   UNL     1     -41.962  57.752 -58.215  1.00  0.00    -0.059 N 
HETATM   15  H   UNL     1     -41.035  57.407 -57.897  1.00  0.00     0.278 HD
HETATM   16  H   UNL     1     -42.612  57.208 -57.634  1.00  0.00     0.278 HD
BRANCH  14  17
HETATM   17  C   UNL     1     -42.120  57.412 -59.656  1.00  0.00     0.215 C 
HETATM   18  C   UNL     1     -41.894  58.654 -60.517  1.00  0.00     0.045 C 
BRANCH  17  19
HETATM   19  C   UNL     1     -43.478  56.780 -59.881  1.00  0.00    -0.028 A 
HETATM   20  C   UNL     1     -44.629  57.558 -60.100  1.00  0.00     0.009 A 
HETATM   21  C   UNL     1     -45.875  56.952 -60.268  1.00  0.00     0.001 A 
HETATM   22  C   UNL     1     -45.991  55.566 -60.218  1.00  0.00     0.000 A 
HETATM   23  C   UNL     1     -44.862  54.782 -59.999  1.00  0.00     0.001 A 
HETATM   24  C   UNL     1     -43.614  55.383 -59.827  1.00  0.00     0.009 A 
ENDBRANCH  17  19
ENDBRANCH  14  17
ENDBRANCH  13  14
ENDBRANCH  10  13
ENDBRANCH   2   9
BRANCH   1  25
HETATM   25  C   UNL     1     -41.080  58.612 -53.411  1.00  0.00     0.259 C 
HETATM   26  N   UNL     1     -41.803  57.450 -53.580  1.00  0.00    -0.323 N 
HETATM   27  H   UNL     1     -42.807  57.529 -53.532  1.00  0.00     0.169 HD
HETATM   28  O   UNL     1     -39.854  58.693 -53.351  1.00  0.00    -0.267 OA
BRANCH  26  29
HETATM   29  C   UNL     1     -41.321  56.131 -53.697  1.00  0.00     0.035 A 
HETATM   30  C   UNL     1     -41.156  55.251 -52.627  1.00  0.00     0.032 A 
HETATM   31  C   UNL     1     -40.717  53.936 -52.845  1.00  0.00     0.039 A 
HETATM   32  C   UNL     1     -40.441  53.490 -54.136  1.00  0.00     0.068 A 
HETATM   33  C   UNL     1     -40.565  54.379 -55.202  1.00  0.00     0.039 A 
HETATM   34  C   UNL     1     -41.006  55.687 -54.987  1.00  0.00     0.032 A 
BRANCH  32  35
HETATM   35  O   UNL     1     -40.031  52.234 -54.481  1.00  0.00    -0.352 OA
BRANCH  35  36
HETATM   36  C   UNL     1     -39.700  51.350 -53.412  1.00  0.00     0.171 C 
HETATM   37  C   UNL     1     -39.578  49.950 -53.984  1.00  0.00     0.034 C 
ENDBRANCH  35  36
ENDBRANCH  32  35
ENDBRANCH  26  29
ENDBRANCH   1  25
TORSDOF 9
ENDMDL
MODEL 5
REMARK VINA RESULT:      -7.5      2.323      3.347
REMARK  9 active torsions:
REMARK  status: ('A' for Active; 'I' for Inactive)
REMARK    1  A    between atoms: C_2  and  O_3 
REMARK    2  A    between atoms: O_3  and  C_4 
REMARK    3  A    between atoms: C_7  and  N_8 
REMARK       I    between atoms: N_8  and  C_9 
REMARK    4  A    between atoms: C_9  and  C_10 
REMARK    5  A    between atoms: C_11  and  N_12 
REMARK       I    between atoms: N_12  and  C_13 
REMARK    6  A    between atoms: C_13  and  C_14 
REMARK    7  A    between atoms: C_14  and  N_15 
REMARK    8  A    between atoms: N_15  and  C_18 
REMARK    9  A    between atoms: C_18  and  C_19 
ROOT
HETATM    1  C   UNL     1     -44.048  56.783 -57.970  1.00  0.00     0.073 A 
HETATM    2  C   UNL     1     -44.779  57.971 -57.836  1.00  0.00     0.093 A 
HETATM    3  S   UNL     1     -46.034  58.132 -58.986  1.00  0.00    -0.075 SA
HETATM    4  C   UNL     1     -45.606  56.687 -59.693  1.00  0.00    -0.008 A 
HETATM    5  C   UNL     1     -44.544  56.061 -59.100  1.00  0.00    -0.026 A 
HETATM    6  C   UNL     1     -44.224  54.802 -59.833  1.00  0.00     0.041 C 
HETATM    7  C   UNL     1     -45.030  54.959 -61.158  1.00  0.00     0.010 C 
HETATM    8  C   UNL     1     -46.169  55.975 -60.865  1.00  0.00     0.047 C 
ENDROOT
BRANCH   2   9
HETATM    9  N   UNL     1     -44.535  58.964 -56.894  1.00  0.00    -0.319 N 
HETATM   10  C   UNL     1     -44.917  58.967 -55.574  1.00  0.00     0.248 C 
HETATM   11  O   UNL     1     -45.472  58.080 -54.924  1.00  0.00    -0.271 OA
HETATM   12  H   UNL     1     -43.982  59.738 -57.271  1.00  0.00     0.169 HD
BRANCH  10  13
HETATM   13  C   UNL     1     -44.574  60.257 -54.830  1.00  0.00     0.335 C 
BRANCH  13  14
HETATM   14  N   UNL     1     -44.630  59.997 -53.346  1.00  0.00    -0.059 N 
HETATM   15  H   UNL     1     -45.233  60.749 -52.958  1.00  0.00     0.278 HD
HETATM   16  H   UNL     1     -45.182  59.151 -53.159  1.00  0.00     0.278 HD
BRANCH  14  17
HETATM   17  C   UNL     1     -43.351  59.981 -52.583  1.00  0.00     0.215 C 
HETATM   18  C   UNL     1     -42.182  60.308 -53.512  1.00  0.00     0.045 C 
BRANCH  17  19
HETATM   19  C   UNL     1     -43.194  58.647 -51.887  1.00  0.00    -0.028 A 
HETATM   20  C   UNL     1     -41.930  58.136 -51.542  1.00  0.00     0.009 A 
HETATM   21  C   UNL     1     -41.809  56.886 -50.933  1.00  0.00     0.001 A 
HETATM   22  C   UNL     1     -42.945  56.128 -50.662  1.00  0.00     0.000 A 
HETATM   23  C   UNL     1     -44.203  56.617 -51.000  1.00  0.00     0.001 A 
HETATM   24  C   UNL     1     -44.329  57.866 -51.612  1.00  0.00     0.009 A 
ENDBRANCH  17  19
ENDBRANCH  14  17
ENDBRANCH  13  14
ENDBRANCH  10  13
ENDBRANCH   2   9
BRANCH   1  25
HETATM   25  C   UNL     1     -42.961  56.446 -57.029  1.00  0.00     0.259 C 
HETATM   26  N   UNL     1     -43.072  55.205 -56.439  1.00  0.00    -0.323 N 
HETATM   27  H   UNL     1     -43.886  54.660 -56.678  1.00  0.00     0.169 HD
HETATM   28  O   UNL     1     -42.088  57.280 -56.790  1.00  0.00    -0.267 OA
BRANCH  26  29
HETATM   29  C   UNL     1     -42.251  54.633 -55.447  1.00  0.00     0.035 A 
HETATM   30  C   UNL     1     -40.893  54.355 -55.607  1.00  0.00     0.032 A 
HETATM   31  C   UNL     1     -40.142  53.832 -54.543  1.00  0.00     0.039 A 
HETATM   32  C   UNL     1     -40.743  53.582 -53.311  1.00  0.00     0.068 A 
HETATM   33  C   UNL     1     -42.107  53.820 -53.161  1.00  0.00     0.039 A 
HETATM   34  C   UNL     1     -42.856  54.345 -54.217  1.00  0.00     0.032 A 
BRANCH  32  35
HETATM   35  O   UNL     1     -40.119  53.098 -52.197  1.00  0.00    -0.352 OA
BRANCH  35  36
HETATM   36  C   UNL     1     -40.850  53.160 -50.973  1.00  0.00     0.171 C 
HETATM   37  C   UNL     1     -39.969  53.833 -49.937  1.00  0.00     0.034 C 
ENDBRANCH  35  36
ENDBRANCH  32  35
ENDBRANCH  26  29
ENDBRANCH   1  25
TORSDOF 9
ENDMDL
MODEL 6
REMARK VINA RESULT:      -7.5      3.020      7.085
REMARK  9 active torsions:
REMARK  status: ('A' for Active; 'I' for Inactive)
REMARK    1  A    between atoms: C_2  and  O_3 
REMARK    2  A    between atoms: O_3  and  C_4 
REMARK    3  A    between atoms: C_7  and  N_8 
REMARK       I    between atoms: N_8  and  C_9 
REMARK    4  A    between atoms: C_9  and  C_10 
REMARK    5  A    between atoms: C_11  and  N_12 
REMARK       I    between atoms: N_12  and  C_13 
REMARK    6  A    between atoms: C_13  and  C_14 
REMARK    7  A    between atoms: C_14  and  N_15 
REMARK    8  A    between atoms: N_15  and  C_18 
REMARK    9  A    between atoms: C_18  and  C_19 
ROOT
HETATM    1  C   UNL     1     -40.492  53.569 -53.236  1.00  0.00     0.073 A 
HETATM    2  C   UNL     1     -40.644  53.988 -51.907  1.00  0.00     0.093 A 
HETATM    3  S   UNL     1     -40.238  52.785 -50.762  1.00  0.00    -0.075 SA
HETATM    4  C   UNL     1     -39.910  51.700 -51.980  1.00  0.00    -0.008 A 
HETATM    5  C   UNL     1     -40.087  52.197 -53.243  1.00  0.00    -0.026 A 
HETATM    6  C   UNL     1     -39.804  51.135 -54.250  1.00  0.00     0.041 C 
HETATM    7  C   UNL     1     -39.779  49.837 -53.387  1.00  0.00     0.010 C 
HETATM    8  C   UNL     1     -39.478  50.282 -51.928  1.00  0.00     0.047 C 
ENDROOT
BRANCH   2   9
HETATM    9  N   UNL     1     -41.097  55.240 -51.506  1.00  0.00    -0.319 N 
HETATM   10  C   UNL     1     -42.373  55.577 -51.123  1.00  0.00     0.248 C 
HETATM   11  O   UNL     1     -43.355  54.852 -50.972  1.00  0.00    -0.271 OA
HETATM   12  H   UNL     1     -40.351  55.940 -51.483  1.00  0.00     0.169 HD
BRANCH  10  13
HETATM   13  C   UNL     1     -42.561  57.066 -50.833  1.00  0.00     0.335 C 
BRANCH  13  14
HETATM   14  N   UNL     1     -41.240  57.652 -50.402  1.00  0.00    -0.059 N 
HETATM   15  H   UNL     1     -41.417  58.068 -49.467  1.00  0.00     0.278 HD
HETATM   16  H   UNL     1     -40.576  56.899 -50.188  1.00  0.00     0.278 HD
BRANCH  14  17
HETATM   17  C   UNL     1     -40.612  58.689 -51.266  1.00  0.00     0.215 C 
HETATM   18  C   UNL     1     -39.339  59.221 -50.609  1.00  0.00     0.045 C 
BRANCH  17  19
HETATM   19  C   UNL     1     -41.620  59.779 -51.562  1.00  0.00    -0.028 A 
HETATM   20  C   UNL     1     -42.060  60.046 -52.871  1.00  0.00     0.009 A 
HETATM   21  C   UNL     1     -42.962  61.080 -53.122  1.00  0.00     0.001 A 
HETATM   22  C   UNL     1     -43.436  61.864 -52.074  1.00  0.00     0.000 A 
HETATM   23  C   UNL     1     -43.009  61.616 -50.773  1.00  0.00     0.001 A 
HETATM   24  C   UNL     1     -42.104  60.584 -50.516  1.00  0.00     0.009 A 
ENDBRANCH  17  19
ENDBRANCH  14  17
ENDBRANCH  13  14
ENDBRANCH  10  13
ENDBRANCH   2   9
BRANCH   1  25
HETATM   25  C   UNL     1     -40.742  54.492 -54.360  1.00  0.00     0.259 C 
HETATM   26  N   UNL     1     -42.070  54.796 -54.572  1.00  0.00    -0.323 N 
HETATM   27  H   UNL     1     -42.742  54.347 -53.969  1.00  0.00     0.169 HD
HETATM   28  O   UNL     1     -39.798  54.874 -55.051  1.00  0.00    -0.267 OA
BRANCH  26  29
HETATM   29  C   UNL     1     -42.634  55.572 -55.605  1.00  0.00     0.035 A 
HETATM   30  C   UNL     1     -42.766  55.151 -56.929  1.00  0.00     0.032 A 
HETATM   31  C   UNL     1     -43.388  55.973 -57.881  1.00  0.00     0.039 A 
HETATM   32  C   UNL     1     -43.884  57.223 -57.516  1.00  0.00     0.068 A 
HETATM   33  C   UNL     1     -43.717  57.663 -56.205  1.00  0.00     0.039 A 
HETATM   34  C   UNL     1     -43.101  56.844 -55.255  1.00  0.00     0.032 A 
BRANCH  32  35
HETATM   35  O   UNL     1     -44.527  58.103 -58.339  1.00  0.00    -0.352 OA
BRANCH  35  36
HETATM   36  C   UNL     1     -45.687  57.620 -59.015  1.00  0.00     0.171 C 
HETATM   37  C   UNL     1     -46.897  57.949 -58.159  1.00  0.00     0.034 C 
ENDBRANCH  35  36
ENDBRANCH  32  35
ENDBRANCH  26  29
ENDBRANCH   1  25
TORSDOF 9
ENDMDL
MODEL 7
REMARK VINA RESULT:      -7.4      2.405      3.453
REMARK  9 active torsions:
REMARK  status: ('A' for Active; 'I' for Inactive)
REMARK    1  A    between atoms: C_2  and  O_3 
REMARK    2  A    between atoms: O_3  and  C_4 
REMARK    3  A    between atoms: C_7  and  N_8 
REMARK       I    between atoms: N_8  and  C_9 
REMARK    4  A    between atoms: C_9  and  C_10 
REMARK    5  A    between atoms: C_11  and  N_12 
REMARK       I    between atoms: N_12  and  C_13 
REMARK    6  A    between atoms: C_13  and  C_14 
REMARK    7  A    between atoms: C_14  and  N_15 
REMARK    8  A    between atoms: N_15  and  C_18 
REMARK    9  A    between atoms: C_18  and  C_19 
ROOT
HETATM    1  C   UNL     1     -43.887  56.925 -58.093  1.00  0.00     0.073 A 
HETATM    2  C   UNL     1     -44.372  58.230 -58.260  1.00  0.00     0.093 A 
HETATM    3  S   UNL     1     -45.468  58.387 -59.562  1.00  0.00    -0.075 SA
HETATM    4  C   UNL     1     -45.283  56.779 -59.947  1.00  0.00    -0.008 A 
HETATM    5  C   UNL     1     -44.422  56.098 -59.129  1.00  0.00    -0.026 A 
HETATM    6  C   UNL     1     -44.302  54.683 -59.585  1.00  0.00     0.041 C 
HETATM    7  C   UNL     1     -44.946  54.721 -61.004  1.00  0.00     0.010 C 
HETATM    8  C   UNL     1     -45.878  55.965 -61.034  1.00  0.00     0.047 C 
ENDROOT
BRANCH   2   9
HETATM    9  N   UNL     1     -44.012  59.326 -57.485  1.00  0.00    -0.319 N 
HETATM   10  C   UNL     1     -43.091  60.297 -57.797  1.00  0.00     0.248 C 
HETATM   11  O   UNL     1     -42.456  60.458 -58.839  1.00  0.00    -0.271 OA
HETATM   12  H   UNL     1     -44.543  59.383 -56.612  1.00  0.00     0.169 HD
BRANCH  10  13
HETATM   13  C   UNL     1     -42.860  61.315 -56.681  1.00  0.00     0.335 C 
BRANCH  13  14
HETATM   14  N   UNL     1     -42.182  60.628 -55.523  1.00  0.00    -0.059 N 
HETATM   15  H   UNL     1     -41.944  59.678 -55.869  1.00  0.00     0.278 HD
HETATM   16  H   UNL     1     -41.256  61.043 -55.361  1.00  0.00     0.278 HD
BRANCH  14  17
HETATM   17  C   UNL     1     -42.936  60.488 -54.246  1.00  0.00     0.215 C 
HETATM   18  C   UNL     1     -42.951  61.820 -53.497  1.00  0.00     0.045 C 
BRANCH  17  19
HETATM   19  C   UNL     1     -42.342  59.360 -53.429  1.00  0.00    -0.028 A 
HETATM   20  C   UNL     1     -41.132  58.742 -53.790  1.00  0.00     0.009 A 
HETATM   21  C   UNL     1     -40.624  57.679 -53.041  1.00  0.00     0.001 A 
HETATM   22  C   UNL     1     -41.317  57.217 -51.925  1.00  0.00     0.000 A 
HETATM   23  C   UNL     1     -42.518  57.816 -51.556  1.00  0.00     0.001 A 
HETATM   24  C   UNL     1     -43.032  58.877 -52.303  1.00  0.00     0.009 A 
ENDBRANCH  17  19
ENDBRANCH  14  17
ENDBRANCH  13  14
ENDBRANCH  10  13
ENDBRANCH   2   9
BRANCH   1  25
HETATM   25  C   UNL     1     -42.973  56.587 -56.984  1.00  0.00     0.259 C 
HETATM   26  N   UNL     1     -43.232  55.380 -56.370  1.00  0.00    -0.323 N 
HETATM   27  H   UNL     1     -44.025  54.858 -56.709  1.00  0.00     0.169 HD
HETATM   28  O   UNL     1     -42.107  57.393 -56.647  1.00  0.00    -0.267 OA
BRANCH  26  29
HETATM   29  C   UNL     1     -42.599  54.820 -55.242  1.00  0.00     0.035 A 
HETATM   30  C   UNL     1     -43.200  54.669 -53.992  1.00  0.00     0.032 A 
HETATM   31  C   UNL     1     -42.508  54.053 -52.938  1.00  0.00     0.039 A 
HETATM   32  C   UNL     1     -41.210  53.582 -53.126  1.00  0.00     0.068 A 
HETATM   33  C   UNL     1     -40.593  53.769 -54.360  1.00  0.00     0.039 A 
HETATM   34  C   UNL     1     -41.281  54.378 -55.412  1.00  0.00     0.032 A 
BRANCH  32  35
HETATM   35  O   UNL     1     -40.443  52.947 -52.191  1.00  0.00    -0.352 OA
BRANCH  35  36
HETATM   36  C   UNL     1     -39.691  51.819 -52.636  1.00  0.00     0.171 C 
HETATM   37  C   UNL     1     -39.553  50.859 -51.468  1.00  0.00     0.034 C 
ENDBRANCH  35  36
ENDBRANCH  32  35
ENDBRANCH  26  29
ENDBRANCH   1  25
TORSDOF 9
ENDMDL
MODEL 8
REMARK VINA RESULT:      -7.3      2.443      5.478
REMARK  9 active torsions:
REMARK  status: ('A' for Active; 'I' for Inactive)
REMARK    1  A    between atoms: C_2  and  O_3 
REMARK    2  A    between atoms: O_3  and  C_4 
REMARK    3  A    between atoms: C_7  and  N_8 
REMARK       I    between atoms: N_8  and  C_9 
REMARK    4  A    between atoms: C_9  and  C_10 
REMARK    5  A    between atoms: C_11  and  N_12 
REMARK       I    between atoms: N_12  and  C_13 
REMARK    6  A    between atoms: C_13  and  C_14 
REMARK    7  A    between atoms: C_14  and  N_15 
REMARK    8  A    between atoms: N_15  and  C_18 
REMARK    9  A    between atoms: C_18  and  C_19 
ROOT
HETATM    1  C   UNL     1     -42.636  60.514 -52.635  1.00  0.00     0.073 A 
HETATM    2  C   UNL     1     -42.715  59.903 -51.376  1.00  0.00     0.093 A 
HETATM    3  S   UNL     1     -43.291  60.943 -50.148  1.00  0.00    -0.075 SA
HETATM    4  C   UNL     1     -43.396  62.204 -51.229  1.00  0.00    -0.008 A 
HETATM    5  C   UNL     1     -43.016  61.887 -52.505  1.00  0.00    -0.026 A 
HETATM    6  C   UNL     1     -43.113  63.093 -53.377  1.00  0.00     0.041 C 
HETATM    7  C   UNL     1     -43.267  64.253 -52.347  1.00  0.00     0.010 C 
HETATM    8  C   UNL     1     -43.813  63.614 -51.040  1.00  0.00     0.047 C 
ENDROOT
BRANCH   2   9
HETATM    9  N   UNL     1     -42.352  58.590 -51.097  1.00  0.00    -0.319 N 
HETATM   10  C   UNL     1     -41.100  58.128 -50.768  1.00  0.00     0.248 C 
HETATM   11  O   UNL     1     -40.065  58.764 -50.569  1.00  0.00    -0.271 OA
HETATM   12  H   UNL     1     -43.147  57.947 -51.124  1.00  0.00     0.169 HD
BRANCH  10  13
HETATM   13  C   UNL     1     -41.019  56.610 -50.615  1.00  0.00     0.335 C 
BRANCH  13  14
HETATM   14  N   UNL     1     -41.322  55.966 -51.945  1.00  0.00    -0.059 N 
HETATM   15  H   UNL     1     -41.843  56.684 -52.485  1.00  0.00     0.278 HD
HETATM   16  H   UNL     1     -40.457  55.863 -52.489  1.00  0.00     0.278 HD
BRANCH  14  17
HETATM   17  C   UNL     1     -42.113  54.705 -51.955  1.00  0.00     0.215 C 
HETATM   18  C   UNL     1     -42.700  54.442 -50.568  1.00  0.00     0.045 C 
BRANCH  17  19
HETATM   19  C   UNL     1     -41.246  53.568 -52.451  1.00  0.00    -0.028 A 
HETATM   20  C   UNL     1     -40.388  52.861 -51.590  1.00  0.00     0.009 A 
HETATM   21  C   UNL     1     -39.571  51.840 -52.080  1.00  0.00     0.001 A 
HETATM   22  C   UNL     1     -39.597  51.512 -53.432  1.00  0.00     0.000 A 
HETATM   23  C   UNL     1     -40.438  52.204 -54.299  1.00  0.00     0.001 A 
HETATM   24  C   UNL     1     -41.255  53.228 -53.815  1.00  0.00     0.009 A 
ENDBRANCH  17  19
ENDBRANCH  14  17
ENDBRANCH  13  14
ENDBRANCH  10  13
ENDBRANCH   2   9
BRANCH   1  25
HETATM   25  C   UNL     1     -42.213  59.754 -53.828  1.00  0.00     0.259 C 
HETATM   26  N   UNL     1     -43.247  59.252 -54.589  1.00  0.00    -0.323 N 
HETATM   27  H   UNL     1     -44.183  59.421 -54.253  1.00  0.00     0.169 HD
HETATM   28  O   UNL     1     -41.014  59.570 -54.034  1.00  0.00    -0.267 OA
BRANCH  26  29
HETATM   29  C   UNL     1     -43.172  58.423 -55.727  1.00  0.00     0.035 A 
HETATM   30  C   UNL     1     -43.209  58.882 -57.043  1.00  0.00     0.032 A 
HETATM   31  C   UNL     1     -43.075  57.986 -58.115  1.00  0.00     0.039 A 
HETATM   32  C   UNL     1     -42.902  56.624 -57.879  1.00  0.00     0.068 A 
HETATM   33  C   UNL     1     -42.906  56.158 -56.566  1.00  0.00     0.039 A 
HETATM   34  C   UNL     1     -43.035  57.049 -55.497  1.00  0.00     0.032 A 
BRANCH  32  35
HETATM   35  O   UNL     1     -42.739  55.658 -58.830  1.00  0.00    -0.352 OA
BRANCH  35  36
HETATM   36  C   UNL     1     -43.711  55.613 -59.873  1.00  0.00     0.171 C 
HETATM   37  C   UNL     1     -44.569  54.379 -59.658  1.00  0.00     0.034 C 
ENDBRANCH  35  36
ENDBRANCH  32  35
ENDBRANCH  26  29
ENDBRANCH   1  25
TORSDOF 9
ENDMDL
MODEL 9
REMARK VINA RESULT:      -7.2      2.069      2.909
REMARK  9 active torsions:
REMARK  status: ('A' for Active; 'I' for Inactive)
REMARK    1  A    between atoms: C_2  and  O_3 
REMARK    2  A    between atoms: O_3  and  C_4 
REMARK    3  A    between atoms: C_7  and  N_8 
REMARK       I    between atoms: N_8  and  C_9 
REMARK    4  A    between atoms: C_9  and  C_10 
REMARK    5  A    between atoms: C_11  and  N_12 
REMARK       I    between atoms: N_12  and  C_13 
REMARK    6  A    between atoms: C_13  and  C_14 
REMARK    7  A    between atoms: C_14  and  N_15 
REMARK    8  A    between atoms: N_15  and  C_18 
REMARK    9  A    between atoms: C_18  and  C_19 
ROOT
HETATM    1  C   UNL     1     -43.582  56.990 -56.675  1.00  0.00     0.073 A 
HETATM    2  C   UNL     1     -43.813  58.373 -56.653  1.00  0.00     0.093 A 
HETATM    3  S   UNL     1     -44.257  59.013 -58.175  1.00  0.00    -0.075 SA
HETATM    4  C   UNL     1     -44.105  57.513 -58.880  1.00  0.00    -0.008 A 
HETATM    5  C   UNL     1     -43.732  56.519 -58.017  1.00  0.00    -0.026 A 
HETATM    6  C   UNL     1     -43.591  55.232 -58.757  1.00  0.00     0.041 C 
HETATM    7  C   UNL     1     -43.590  55.689 -60.248  1.00  0.00     0.010 C 
HETATM    8  C   UNL     1     -44.287  57.077 -60.285  1.00  0.00     0.047 C 
ENDROOT
BRANCH   2   9
HETATM    9  N   UNL     1     -43.686  59.191 -55.537  1.00  0.00    -0.319 N 
HETATM   10  C   UNL     1     -42.622  60.000 -55.218  1.00  0.00     0.248 C 
HETATM   11  O   UNL     1     -41.607  60.241 -55.871  1.00  0.00    -0.271 OA
HETATM   12  H   UNL     1     -44.516  59.173 -54.938  1.00  0.00     0.169 HD
BRANCH  10  13
HETATM   13  C   UNL     1     -42.757  60.700 -53.866  1.00  0.00     0.335 C 
BRANCH  13  14
HETATM   14  N   UNL     1     -43.478  59.783 -52.910  1.00  0.00    -0.059 N 
HETATM   15  H   UNL     1     -43.686  60.365 -52.075  1.00  0.00     0.278 HD
HETATM   16  H   UNL     1     -44.416  59.569 -53.270  1.00  0.00     0.278 HD
BRANCH  14  17
HETATM   17  C   UNL     1     -42.784  58.546 -52.458  1.00  0.00     0.215 C 
HETATM   18  C   UNL     1     -43.672  57.769 -51.487  1.00  0.00     0.045 C 
BRANCH  17  19
HETATM   19  C   UNL     1     -41.440  58.908 -51.864  1.00  0.00    -0.028 A 
HETATM   20  C   UNL     1     -40.241  58.721 -52.575  1.00  0.00     0.009 A 
HETATM   21  C   UNL     1     -39.011  59.029 -51.991  1.00  0.00     0.001 A 
HETATM   22  C   UNL     1     -38.959  59.525 -50.691  1.00  0.00     0.000 A 
HETATM   23  C   UNL     1     -40.136  59.714 -49.973  1.00  0.00     0.001 A 
HETATM   24  C   UNL     1     -41.369  59.404 -50.551  1.00  0.00     0.009 A 
ENDBRANCH  17  19
ENDBRANCH  14  17
ENDBRANCH  13  14
ENDBRANCH  10  13
ENDBRANCH   2   9
BRANCH   1  25
HETATM   25  C   UNL     1     -43.244  56.254 -55.441  1.00  0.00     0.259 C 
HETATM   26  N   UNL     1     -41.959  55.757 -55.399  1.00  0.00    -0.323 N 
HETATM   27  H   UNL     1     -41.384  55.914 -56.213  1.00  0.00     0.169 HD
HETATM   28  O   UNL     1     -44.109  56.082 -54.583  1.00  0.00    -0.267 OA
BRANCH  26  29
HETATM   29  C   UNL     1     -41.366  54.950 -54.408  1.00  0.00     0.035 A 
HETATM   30  C   UNL     1     -41.339  55.259 -53.048  1.00  0.00     0.032 A 
HETATM   31  C   UNL     1     -40.771  54.367 -52.125  1.00  0.00     0.039 A 
HETATM   32  C   UNL     1     -40.226  53.159 -52.555  1.00  0.00     0.068 A 
HETATM   33  C   UNL     1     -40.214  52.867 -53.916  1.00  0.00     0.039 A 
HETATM   34  C   UNL     1     -40.783  53.751 -54.836  1.00  0.00     0.032 A 
BRANCH  32  35
HETATM   35  O   UNL     1     -39.667  52.201 -51.758  1.00  0.00    -0.352 OA
BRANCH  35  36
HETATM   36  C   UNL     1     -39.780  50.850 -52.201  1.00  0.00     0.171 C 
HETATM   37  C   UNL     1     -39.502  49.944 -51.015  1.00  0.00     0.034 C 
ENDBRANCH  35  36
ENDBRANCH  32  35
ENDBRANCH  26  29
ENDBRANCH   1  25
TORSDOF 9
ENDMDL
MODEL 10
REMARK VINA RESULT:      -7.1      2.784      6.898
REMARK  9 active torsions:
REMARK  status: ('A' for Active; 'I' for Inactive)
REMARK    1  A    between atoms: C_2  and  O_3 
REMARK    2  A    between atoms: O_3  and  C_4 
REMARK    3  A    between atoms: C_7  and  N_8 
REMARK       I    between atoms: N_8  and  C_9 
REMARK    4  A    between atoms: C_9  and  C_10 
REMARK    5  A    between atoms: C_11  and  N_12 
REMARK       I    between atoms: N_12  and  C_13 
REMARK    6  A    between atoms: C_13  and  C_14 
REMARK    7  A    between atoms: C_14  and  N_15 
REMARK    8  A    between atoms: N_15  and  C_18 
REMARK    9  A    between atoms: C_18  and  C_19 
ROOT
HETATM    1  C   UNL     1     -41.828  54.190 -53.539  1.00  0.00     0.073 A 
HETATM    2  C   UNL     1     -41.824  54.759 -52.258  1.00  0.00     0.093 A 
HETATM    3  S   UNL     1     -40.759  53.982 -51.170  1.00  0.00    -0.075 SA
HETATM    4  C   UNL     1     -40.333  52.875 -52.337  1.00  0.00    -0.008 A 
HETATM    5  C   UNL     1     -40.958  53.055 -53.542  1.00  0.00    -0.026 A 
HETATM    6  C   UNL     1     -40.535  51.991 -54.497  1.00  0.00     0.041 C 
HETATM    7  C   UNL     1     -39.840  50.950 -53.569  1.00  0.00     0.010 C 
HETATM    8  C   UNL     1     -39.408  51.717 -52.287  1.00  0.00     0.047 C 
ENDROOT
BRANCH   2   9
HETATM    9  N   UNL     1     -42.606  55.836 -51.854  1.00  0.00    -0.319 N 
HETATM   10  C   UNL     1     -42.197  57.133 -51.664  1.00  0.00     0.248 C 
HETATM   11  O   UNL     1     -41.097  57.641 -51.883  1.00  0.00    -0.271 OA
HETATM   12  H   UNL     1     -43.590  55.583 -51.729  1.00  0.00     0.169 HD
BRANCH  10  13
HETATM   13  C   UNL     1     -43.289  58.056 -51.123  1.00  0.00     0.335 C 
BRANCH  13  14
HETATM   14  N   UNL     1     -44.179  58.482 -52.263  1.00  0.00    -0.059 N 
HETATM   15  H   UNL     1     -44.509  57.599 -52.699  1.00  0.00     0.278 HD
HETATM   16  H   UNL     1     -45.049  58.887 -51.896  1.00  0.00     0.278 HD
BRANCH  14  17
HETATM   17  C   UNL     1     -43.598  59.343 -53.330  1.00  0.00     0.215 C 
HETATM   18  C   UNL     1     -43.415  60.770 -52.812  1.00  0.00     0.045 C 
BRANCH  17  19
HETATM   19  C   UNL     1     -44.466  59.273 -54.567  1.00  0.00    -0.028 A 
HETATM   20  C   UNL     1     -45.124  58.089 -54.944  1.00  0.00     0.009 A 
HETATM   21  C   UNL     1     -45.890  58.040 -56.109  1.00  0.00     0.001 A 
HETATM   22  C   UNL     1     -46.009  59.168 -56.916  1.00  0.00     0.000 A 
HETATM   23  C   UNL     1     -45.362  60.347 -56.559  1.00  0.00     0.001 A 
HETATM   24  C   UNL     1     -44.592  60.401 -55.396  1.00  0.00     0.009 A 
ENDBRANCH  17  19
ENDBRANCH  14  17
ENDBRANCH  13  14
ENDBRANCH  10  13
ENDBRANCH   2   9
BRANCH   1  25
HETATM   25  C   UNL     1     -42.645  54.764 -54.626  1.00  0.00     0.259 C 
HETATM   26  N   UNL     1     -41.922  55.331 -55.654  1.00  0.00    -0.323 N 
HETATM   27  H   UNL     1     -40.918  55.328 -55.559  1.00  0.00     0.169 HD
HETATM   28  O   UNL     1     -43.872  54.756 -54.529  1.00  0.00    -0.267 OA
BRANCH  26  29
HETATM   29  C   UNL     1     -42.404  56.026 -56.781  1.00  0.00     0.035 A 
HETATM   30  C   UNL     1     -42.269  57.400 -56.981  1.00  0.00     0.032 A 
HETATM   31  C   UNL     1     -42.736  57.999 -58.161  1.00  0.00     0.039 A 
HETATM   32  C   UNL     1     -43.343  57.228 -59.151  1.00  0.00     0.068 A 
HETATM   33  C   UNL     1     -43.516  55.863 -58.936  1.00  0.00     0.039 A 
HETATM   34  C   UNL     1     -43.048  55.264 -57.764  1.00  0.00     0.032 A 
BRANCH  32  35
HETATM   35  O   UNL     1     -43.816  57.686 -60.347  1.00  0.00    -0.352 OA
BRANCH  35  36
HETATM   36  C   UNL     1     -44.786  58.732 -60.296  1.00  0.00     0.171 C 
HETATM   37  C   UNL     1     -46.163  58.094 -60.337  1.00  0.00     0.034 C 
ENDBRANCH  35  36
ENDBRANCH  32  35
ENDBRANCH  26  29
ENDBRANCH   1  25
TORSDOF 9
ENDMDL
