MODEL 1
REMARK VINA RESULT:      -8.7      0.000      0.000
REMARK  5 active torsions:
REMARK  status: ('A' for Active; 'I' for Inactive)
REMARK    1  A    between atoms: C_4  and  N_5 
REMARK       I    between atoms: N_5  and  C_6 
REMARK       I    between atoms: C_6  and  N_7 
REMARK    2  A    between atoms: N_7  and  C_8 
REMARK    3  A    between atoms: C_11  and  C_12 
REMARK    4  A    between atoms: C_12  and  C_13 
REMARK       I    between atoms: C_13  and  N_14 
REMARK    5  A    between atoms: N_14  and  C_15 
ROOT
HETATM    1  C   UNL     1     -40.824  58.326 -53.409  1.00  0.00     0.174 A 
HETATM    2  S   UNL     1     -41.767  59.633 -53.970  1.00  0.00    -0.062 SA
HETATM    3  C   UNL     1     -42.484  58.592 -55.123  1.00  0.00     0.081 A 
HETATM    4  C   UNL     1     -41.989  57.308 -54.976  1.00  0.00     0.052 A 
HETATM    5  N   UNL     1     -41.052  57.159 -53.960  1.00  0.00    -0.228 NA
ENDROOT
BRANCH   1   6
HETATM    6  N   UNL     1     -39.941  58.679 -52.425  1.00  0.00    -0.287 N 
HETATM    7  C   UNL     1     -40.295  59.123 -51.206  1.00  0.00     0.326 C 
HETATM    8  N   UNL     1     -41.242  58.529 -50.441  1.00  0.00    -0.309 N 
HETATM    9  O   UNL     1     -39.700  60.101 -50.741  1.00  0.00    -0.247 OA
HETATM   10  H   UNL     1     -41.484  59.119 -49.655  1.00  0.00     0.170 HD
HETATM   11  H   UNL     1     -39.062  59.037 -52.769  1.00  0.00     0.172 HD
BRANCH   8  12
HETATM   12  C   UNL     1     -41.741  57.213 -50.381  1.00  0.00     0.036 A 
HETATM   13  C   UNL     1     -41.169  56.174 -49.642  1.00  0.00     0.036 A 
HETATM   14  C   UNL     1     -41.726  54.885 -49.650  1.00  0.00    -0.060 A 
HETATM   15  C   UNL     1     -41.031  53.766 -48.932  1.00  0.00     0.048 C 
HETATM   16  C   UNL     1     -42.896  54.649 -50.376  1.00  0.00     0.007 A 
HETATM   17  C   UNL     1     -43.511  55.691 -51.064  1.00  0.00     0.003 A 
HETATM   18  C   UNL     1     -42.935  56.962 -51.070  1.00  0.00     0.029 A 
ENDBRANCH   8  12
ENDBRANCH   1   6
BRANCH   4  19
HETATM   19  C   UNL     1     -42.418  56.114 -55.752  1.00  0.00     0.163 C 
BRANCH  19  20
HETATM   20  C   UNL     1     -42.337  54.836 -54.937  1.00  0.00     0.227 C 
HETATM   21  N   UNL     1     -41.040  54.358 -54.832  1.00  0.00    -0.327 N 
HETATM   22  H   UNL     1     -40.378  54.746 -55.497  1.00  0.00     0.169 HD
HETATM   23  O   UNL     1     -43.336  54.363 -54.402  1.00  0.00    -0.273 OA
BRANCH  21  24
HETATM   24  C   UNL     1     -40.560  53.338 -53.989  1.00  0.00     0.036 A 
HETATM   25  C   UNL     1     -40.305  52.093 -54.580  1.00  0.00     0.056 A 
HETATM   26  C   UNL     1     -39.808  51.037 -53.813  1.00  0.00     0.074 A 
HETATM   27 CL   UNL     1     -39.504  49.518 -54.566  1.00  0.00    -0.081 Cl
HETATM   28  C   UNL     1     -39.567  51.217 -52.456  1.00  0.00     0.138 A 
HETATM   29  F   UNL     1     -39.094  50.214 -51.702  1.00  0.00    -0.204 F 
HETATM   30  C   UNL     1     -39.816  52.446 -51.857  1.00  0.00     0.046 A 
HETATM   31  C   UNL     1     -40.308  53.507 -52.624  1.00  0.00     0.032 A 
ENDBRANCH  21  24
ENDBRANCH  19  20
ENDBRANCH   4  19
TORSDOF 5
ENDMDL
MODEL 2
REMARK VINA RESULT:      -8.1      2.129      3.087
REMARK  5 active torsions:
REMARK  status: ('A' for Active; 'I' for Inactive)
REMARK    1  A    between atoms: C_4  and  N_5 
REMARK       I    between atoms: N_5  and  C_6 
REMARK       I    between atoms: C_6  and  N_7 
REMARK    2  A    between atoms: N_7  and  C_8 
REMARK    3  A    between atoms: C_11  and  C_12 
REMARK    4  A    between atoms: C_12  and  C_13 
REMARK       I    between atoms: C_13  and  N_14 
REMARK    5  A    between atoms: N_14  and  C_15 
ROOT
HETATM    1  C   UNL     1     -44.310  57.656 -53.582  1.00  0.00     0.174 A 
HETATM    2  S   UNL     1     -44.416  59.091 -54.500  1.00  0.00    -0.062 SA
HETATM    3  C   UNL     1     -43.729  58.263 -55.831  1.00  0.00     0.081 A 
HETATM    4  C   UNL     1     -43.504  56.938 -55.502  1.00  0.00     0.052 A 
HETATM    5  N   UNL     1     -43.873  56.590 -54.206  1.00  0.00    -0.228 NA
ENDROOT
BRANCH   1   6
HETATM    6  N   UNL     1     -44.715  57.813 -52.284  1.00  0.00    -0.287 N 
HETATM    7  C   UNL     1     -44.219  57.122 -51.242  1.00  0.00     0.326 C 
HETATM    8  N   UNL     1     -42.895  56.937 -51.031  1.00  0.00    -0.309 N 
HETATM    9  O   UNL     1     -45.011  56.666 -50.410  1.00  0.00    -0.247 OA
HETATM   10  H   UNL     1     -42.744  56.244 -50.308  1.00  0.00     0.170 HD
HETATM   11  H   UNL     1     -45.679  58.099 -52.185  1.00  0.00     0.172 HD
BRANCH   8  12
HETATM   12  C   UNL     1     -41.751  57.665 -51.413  1.00  0.00     0.036 A 
HETATM   13  C   UNL     1     -40.951  58.411 -50.545  1.00  0.00     0.036 A 
HETATM   14  C   UNL     1     -39.832  59.120 -51.015  1.00  0.00    -0.060 A 
HETATM   15  C   UNL     1     -39.055  59.996 -50.078  1.00  0.00     0.048 C 
HETATM   16  C   UNL     1     -39.493  59.043 -52.367  1.00  0.00     0.007 A 
HETATM   17  C   UNL     1     -40.245  58.252 -53.231  1.00  0.00     0.003 A 
HETATM   18  C   UNL     1     -41.368  57.572 -52.758  1.00  0.00     0.029 A 
ENDBRANCH   8  12
ENDBRANCH   1   6
BRANCH   4  19
HETATM   19  C   UNL     1     -42.979  55.889 -56.415  1.00  0.00     0.163 C 
BRANCH  19  20
HETATM   20  C   UNL     1     -42.636  54.604 -55.683  1.00  0.00     0.227 C 
HETATM   21  N   UNL     1     -41.427  54.686 -55.011  1.00  0.00    -0.327 N 
HETATM   22  H   UNL     1     -40.824  55.453 -55.291  1.00  0.00     0.169 HD
HETATM   23  O   UNL     1     -43.415  53.655 -55.674  1.00  0.00    -0.273 OA
BRANCH  21  24
HETATM   24  C   UNL     1     -40.900  53.785 -54.066  1.00  0.00     0.036 A 
HETATM   25  C   UNL     1     -40.466  52.542 -54.547  1.00  0.00     0.056 A 
HETATM   26  C   UNL     1     -39.914  51.602 -53.675  1.00  0.00     0.074 A 
HETATM   27 CL   UNL     1     -39.390  50.083 -54.293  1.00  0.00    -0.081 Cl
HETATM   28  C   UNL     1     -39.796  51.896 -52.321  1.00  0.00     0.138 A 
HETATM   29  F   UNL     1     -39.271  51.005 -51.466  1.00  0.00    -0.204 F 
HETATM   30  C   UNL     1     -40.222  53.124 -51.830  1.00  0.00     0.046 A 
HETATM   31  C   UNL     1     -40.771  54.070 -52.703  1.00  0.00     0.032 A 
ENDBRANCH  21  24
ENDBRANCH  19  20
ENDBRANCH   4  19
TORSDOF 5
ENDMDL
MODEL 3
REMARK VINA RESULT:      -8.0      4.132      6.009
REMARK  5 active torsions:
REMARK  status: ('A' for Active; 'I' for Inactive)
REMARK    1  A    between atoms: C_4  and  N_5 
REMARK       I    between atoms: N_5  and  C_6 
REMARK       I    between atoms: C_6  and  N_7 
REMARK    2  A    between atoms: N_7  and  C_8 
REMARK    3  A    between atoms: C_11  and  C_12 
REMARK    4  A    between atoms: C_12  and  C_13 
REMARK       I    between atoms: C_13  and  N_14 
REMARK    5  A    between atoms: N_14  and  C_15 
ROOT
HETATM    1  C   UNL     1     -42.437  58.165 -51.936  1.00  0.00     0.174 A 
HETATM    2  S   UNL     1     -40.737  58.066 -51.821  1.00  0.00    -0.062 SA
HETATM    3  C   UNL     1     -40.609  58.994 -53.252  1.00  0.00     0.081 A 
HETATM    4  C   UNL     1     -41.867  59.354 -53.700  1.00  0.00     0.052 A 
HETATM    5  N   UNL     1     -42.917  58.895 -52.912  1.00  0.00    -0.228 NA
ENDROOT
BRANCH   1   6
HETATM    6  N   UNL     1     -43.087  57.458 -50.961  1.00  0.00    -0.287 N 
HETATM    7  C   UNL     1     -44.051  56.549 -51.193  1.00  0.00     0.326 C 
HETATM    8  N   UNL     1     -43.951  55.578 -52.132  1.00  0.00    -0.309 N 
HETATM    9  O   UNL     1     -45.065  56.576 -50.488  1.00  0.00    -0.247 OA
HETATM   10  H   UNL     1     -44.846  55.124 -52.269  1.00  0.00     0.170 HD
HETATM   11  H   UNL     1     -43.167  57.946 -50.081  1.00  0.00     0.172 HD
BRANCH   8  12
HETATM   12  C   UNL     1     -42.852  54.934 -52.733  1.00  0.00     0.036 A 
HETATM   13  C   UNL     1     -42.009  54.024 -52.091  1.00  0.00     0.036 A 
HETATM   14  C   UNL     1     -40.925  53.437 -52.765  1.00  0.00    -0.060 A 
HETATM   15  C   UNL     1     -39.976  52.546 -52.019  1.00  0.00     0.048 C 
HETATM   16  C   UNL     1     -40.712  53.738 -54.112  1.00  0.00     0.007 A 
HETATM   17  C   UNL     1     -41.583  54.594 -54.781  1.00  0.00     0.003 A 
HETATM   18  C   UNL     1     -42.642  55.191 -54.094  1.00  0.00     0.029 A 
ENDBRANCH   8  12
ENDBRANCH   1   6
BRANCH   4  19
HETATM   19  C   UNL     1     -42.162  60.215 -54.876  1.00  0.00     0.163 C 
BRANCH  19  20
HETATM   20  C   UNL     1     -42.191  59.430 -56.175  1.00  0.00     0.227 C 
HETATM   21  N   UNL     1     -43.076  58.364 -56.128  1.00  0.00    -0.327 N 
HETATM   22  H   UNL     1     -43.379  58.091 -55.198  1.00  0.00     0.169 HD
HETATM   23  O   UNL     1     -41.528  59.789 -57.145  1.00  0.00    -0.273 OA
BRANCH  21  24
HETATM   24  C   UNL     1     -43.520  57.562 -57.196  1.00  0.00     0.036 A 
HETATM   25  C   UNL     1     -44.727  57.931 -57.808  1.00  0.00     0.056 A 
HETATM   26  C   UNL     1     -45.224  57.198 -58.886  1.00  0.00     0.074 A 
HETATM   27 CL   UNL     1     -46.708  57.673 -59.618  1.00  0.00    -0.081 Cl
HETATM   28  C   UNL     1     -44.522  56.093 -59.357  1.00  0.00     0.138 A 
HETATM   29  F   UNL     1     -44.985  55.374 -60.390  1.00  0.00    -0.204 F 
HETATM   30  C   UNL     1     -43.326  55.716 -58.761  1.00  0.00     0.046 A 
HETATM   31  C   UNL     1     -42.823  56.452 -57.683  1.00  0.00     0.032 A 
ENDBRANCH  21  24
ENDBRANCH  19  20
ENDBRANCH   4  19
TORSDOF 5
ENDMDL
MODEL 4
REMARK VINA RESULT:      -7.9      4.333      6.183
REMARK  5 active torsions:
REMARK  status: ('A' for Active; 'I' for Inactive)
REMARK    1  A    between atoms: C_4  and  N_5 
REMARK       I    between atoms: N_5  and  C_6 
REMARK       I    between atoms: C_6  and  N_7 
REMARK    2  A    between atoms: N_7  and  C_8 
REMARK    3  A    between atoms: C_11  and  C_12 
REMARK    4  A    between atoms: C_12  and  C_13 
REMARK       I    between atoms: C_13  and  N_14 
REMARK    5  A    between atoms: N_14  and  C_15 
ROOT
HETATM    1  C   UNL     1     -42.466  57.915 -52.066  1.00  0.00     0.174 A 
HETATM    2  S   UNL     1     -40.834  58.306 -51.754  1.00  0.00    -0.062 SA
HETATM    3  C   UNL     1     -40.637  58.704 -53.407  1.00  0.00     0.081 A 
HETATM    4  C   UNL     1     -41.837  58.554 -54.078  1.00  0.00     0.052 A 
HETATM    5  N   UNL     1     -42.897  58.126 -53.285  1.00  0.00    -0.228 NA
ENDROOT
BRANCH   1   6
HETATM    6  N   UNL     1     -43.125  57.429 -50.970  1.00  0.00    -0.287 N 
HETATM    7  C   UNL     1     -44.000  56.408 -50.997  1.00  0.00     0.326 C 
HETATM    8  N   UNL     1     -43.764  55.240 -51.639  1.00  0.00    -0.309 N 
HETATM    9  O   UNL     1     -45.058  56.524 -50.370  1.00  0.00    -0.247 OA
HETATM   10  H   UNL     1     -44.610  54.686 -51.692  1.00  0.00     0.170 HD
HETATM   11  H   UNL     1     -43.301  58.120 -50.254  1.00  0.00     0.172 HD
BRANCH   8  12
HETATM   12  C   UNL     1     -42.581  54.563 -51.998  1.00  0.00     0.036 A 
HETATM   13  C   UNL     1     -42.037  54.530 -53.284  1.00  0.00     0.036 A 
HETATM   14  C   UNL     1     -40.857  53.818 -53.557  1.00  0.00    -0.060 A 
HETATM   15  C   UNL     1     -40.356  53.714 -54.966  1.00  0.00     0.048 C 
HETATM   16  C   UNL     1     -40.195  53.166 -52.514  1.00  0.00     0.007 A 
HETATM   17  C   UNL     1     -40.692  53.245 -51.216  1.00  0.00     0.003 A 
HETATM   18  C   UNL     1     -41.878  53.934 -50.961  1.00  0.00     0.029 A 
ENDBRANCH   8  12
ENDBRANCH   1   6
BRANCH   4  19
HETATM   19  C   UNL     1     -42.080  58.866 -55.511  1.00  0.00     0.163 C 
BRANCH  19  20
HETATM   20  C   UNL     1     -42.502  57.644 -56.306  1.00  0.00     0.227 C 
HETATM   21  N   UNL     1     -43.426  57.949 -57.294  1.00  0.00    -0.327 N 
HETATM   22  H   UNL     1     -43.884  58.849 -57.198  1.00  0.00     0.169 HD
HETATM   23  O   UNL     1     -41.996  56.545 -56.091  1.00  0.00    -0.273 OA
BRANCH  21  24
HETATM   24  C   UNL     1     -43.869  57.126 -58.346  1.00  0.00     0.036 A 
HETATM   25  C   UNL     1     -45.138  57.401 -58.876  1.00  0.00     0.056 A 
HETATM   26  C   UNL     1     -45.640  56.642 -59.935  1.00  0.00     0.074 A 
HETATM   27 CL   UNL     1     -47.201  57.001 -60.566  1.00  0.00    -0.081 Cl
HETATM   28  C   UNL     1     -44.881  55.605 -60.467  1.00  0.00     0.138 A 
HETATM   29  F   UNL     1     -45.346  54.862 -61.482  1.00  0.00    -0.204 F 
HETATM   30  C   UNL     1     -43.622  55.321 -59.951  1.00  0.00     0.046 A 
HETATM   31  C   UNL     1     -43.115  56.084 -58.894  1.00  0.00     0.032 A 
ENDBRANCH  21  24
ENDBRANCH  19  20
ENDBRANCH   4  19
TORSDOF 5
ENDMDL
MODEL 5
REMARK VINA RESULT:      -7.9      1.735      2.304
REMARK  5 active torsions:
REMARK  status: ('A' for Active; 'I' for Inactive)
REMARK    1  A    between atoms: C_4  and  N_5 
REMARK       I    between atoms: N_5  and  C_6 
REMARK       I    between atoms: C_6  and  N_7 
REMARK    2  A    between atoms: N_7  and  C_8 
REMARK    3  A    between atoms: C_11  and  C_12 
REMARK    4  A    between atoms: C_12  and  C_13 
REMARK       I    between atoms: C_13  and  N_14 
REMARK    5  A    between atoms: N_14  and  C_15 
ROOT
HETATM    1  C   UNL     1     -42.708  59.252 -54.980  1.00  0.00     0.174 A 
HETATM    2  S   UNL     1     -44.397  59.342 -55.211  1.00  0.00    -0.062 SA
HETATM    3  C   UNL     1     -44.353  57.804 -55.960  1.00  0.00     0.081 A 
HETATM    4  C   UNL     1     -43.063  57.305 -55.946  1.00  0.00     0.052 A 
HETATM    5  N   UNL     1     -42.124  58.138 -55.348  1.00  0.00    -0.228 NA
ENDROOT
BRANCH   1   6
HETATM    6  N   UNL     1     -42.178  60.380 -54.416  1.00  0.00    -0.287 N 
HETATM    7  C   UNL     1     -42.646  60.967 -53.300  1.00  0.00     0.326 C 
HETATM    8  N   UNL     1     -42.950  60.285 -52.170  1.00  0.00    -0.309 N 
HETATM    9  O   UNL     1     -42.769  62.196 -53.289  1.00  0.00    -0.247 OA
HETATM   10  H   UNL     1     -43.453  60.879 -51.522  1.00  0.00     0.170 HD
HETATM   11  H   UNL     1     -41.748  61.010 -55.078  1.00  0.00     0.172 HD
BRANCH   8  12
HETATM   12  C   UNL     1     -42.502  59.060 -51.638  1.00  0.00     0.036 A 
HETATM   13  C   UNL     1     -43.243  57.876 -51.621  1.00  0.00     0.036 A 
HETATM   14  C   UNL     1     -42.722  56.700 -51.056  1.00  0.00    -0.060 A 
HETATM   15  C   UNL     1     -43.580  55.474 -50.958  1.00  0.00     0.048 C 
HETATM   16  C   UNL     1     -41.424  56.706 -50.540  1.00  0.00     0.007 A 
HETATM   17  C   UNL     1     -40.652  57.862 -50.608  1.00  0.00     0.003 A 
HETATM   18  C   UNL     1     -41.189  59.031 -51.149  1.00  0.00     0.029 A 
ENDBRANCH   8  12
ENDBRANCH   1   6
BRANCH   4  19
HETATM   19  C   UNL     1     -42.639  55.970 -56.446  1.00  0.00     0.163 C 
BRANCH  19  20
HETATM   20  C   UNL     1     -42.562  54.936 -55.337  1.00  0.00     0.227 C 
HETATM   21  N   UNL     1     -41.294  54.393 -55.208  1.00  0.00    -0.327 N 
HETATM   22  H   UNL     1     -40.673  54.544 -55.997  1.00  0.00     0.169 HD
HETATM   23  O   UNL     1     -43.536  54.698 -54.626  1.00  0.00    -0.273 OA
BRANCH  21  24
HETATM   24  C   UNL     1     -40.802  53.581 -54.168  1.00  0.00     0.036 A 
HETATM   25  C   UNL     1     -40.413  52.278 -54.509  1.00  0.00     0.056 A 
HETATM   26  C   UNL     1     -39.896  51.419 -53.537  1.00  0.00     0.074 A 
HETATM   27 CL   UNL     1     -39.426  49.824 -53.984  1.00  0.00    -0.081 Cl
HETATM   28  C   UNL     1     -39.770  51.855 -52.222  1.00  0.00     0.138 A 
HETATM   29  F   UNL     1     -39.279  51.044 -51.273  1.00  0.00    -0.204 F 
HETATM   30  C   UNL     1     -40.152  53.143 -51.870  1.00  0.00     0.046 A 
HETATM   31  C   UNL     1     -40.665  54.008 -52.843  1.00  0.00     0.032 A 
ENDBRANCH  21  24
ENDBRANCH  19  20
ENDBRANCH   4  19
TORSDOF 5
ENDMDL
MODEL 6
REMARK VINA RESULT:      -7.6      4.070      5.946
REMARK  5 active torsions:
REMARK  status: ('A' for Active; 'I' for Inactive)
REMARK    1  A    between atoms: C_4  and  N_5 
REMARK       I    between atoms: N_5  and  C_6 
REMARK       I    between atoms: C_6  and  N_7 
REMARK    2  A    between atoms: N_7  and  C_8 
REMARK    3  A    between atoms: C_11  and  C_12 
REMARK    4  A    between atoms: C_12  and  C_13 
REMARK       I    between atoms: C_13  and  N_14 
REMARK    5  A    between atoms: N_14  and  C_15 
ROOT
HETATM    1  C   UNL     1     -41.043  53.777 -51.373  1.00  0.00     0.174 A 
HETATM    2  S   UNL     1     -40.124  52.341 -51.449  1.00  0.00    -0.062 SA
HETATM    3  C   UNL     1     -39.886  52.608 -53.122  1.00  0.00     0.081 A 
HETATM    4  C   UNL     1     -40.487  53.795 -53.504  1.00  0.00     0.052 A 
HETATM    5  N   UNL     1     -41.127  54.479 -52.477  1.00  0.00    -0.228 NA
ENDROOT
BRANCH   1   6
HETATM    6  N   UNL     1     -41.575  54.015 -50.135  1.00  0.00    -0.287 N 
HETATM    7  C   UNL     1     -41.322  55.108 -49.394  1.00  0.00     0.326 C 
HETATM    8  N   UNL     1     -41.354  56.369 -49.886  1.00  0.00    -0.309 N 
HETATM    9  O   UNL     1     -41.084  54.959 -48.190  1.00  0.00    -0.247 OA
HETATM   10  H   UNL     1     -40.958  57.020 -49.220  1.00  0.00     0.170 HD
HETATM   11  H   UNL     1     -41.777  53.179 -49.605  1.00  0.00     0.172 HD
BRANCH   8  12
HETATM   12  C   UNL     1     -42.032  56.957 -50.973  1.00  0.00     0.036 A 
HETATM   13  C   UNL     1     -41.419  57.672 -52.004  1.00  0.00     0.036 A 
HETATM   14  C   UNL     1     -42.175  58.239 -53.045  1.00  0.00    -0.060 A 
HETATM   15  C   UNL     1     -41.501  59.090 -54.080  1.00  0.00     0.048 C 
HETATM   16  C   UNL     1     -43.558  58.048 -53.068  1.00  0.00     0.007 A 
HETATM   17  C   UNL     1     -44.173  57.283 -52.081  1.00  0.00     0.003 A 
HETATM   18  C   UNL     1     -43.415  56.746 -51.038  1.00  0.00     0.029 A 
ENDBRANCH   8  12
ENDBRANCH   1   6
BRANCH   4  19
HETATM   19  C   UNL     1     -40.442  54.397 -54.863  1.00  0.00     0.163 C 
BRANCH  19  20
HETATM   20  C   UNL     1     -41.824  54.743 -55.388  1.00  0.00     0.227 C 
HETATM   21  N   UNL     1     -41.823  55.896 -56.157  1.00  0.00    -0.327 N 
HETATM   22  H   UNL     1     -41.001  56.483 -56.060  1.00  0.00     0.169 HD
HETATM   23  O   UNL     1     -42.784  54.007 -55.173  1.00  0.00    -0.273 OA
BRANCH  21  24
HETATM   24  C   UNL     1     -42.859  56.392 -56.972  1.00  0.00     0.036 A 
HETATM   25  C   UNL     1     -43.082  55.732 -58.189  1.00  0.00     0.056 A 
HETATM   26  C   UNL     1     -44.103  56.152 -59.042  1.00  0.00     0.074 A 
HETATM   27 CL   UNL     1     -44.354  55.322 -60.530  1.00  0.00    -0.081 Cl
HETATM   28  C   UNL     1     -44.904  57.233 -58.688  1.00  0.00     0.138 A 
HETATM   29  F   UNL     1     -45.888  57.653 -59.496  1.00  0.00    -0.204 F 
HETATM   30  C   UNL     1     -44.694  57.896 -57.486  1.00  0.00     0.046 A 
HETATM   31  C   UNL     1     -43.674  57.474 -56.626  1.00  0.00     0.032 A 
ENDBRANCH  21  24
ENDBRANCH  19  20
ENDBRANCH   4  19
TORSDOF 5
ENDMDL
MODEL 7
REMARK VINA RESULT:      -7.5      4.080      6.219
REMARK  5 active torsions:
REMARK  status: ('A' for Active; 'I' for Inactive)
REMARK    1  A    between atoms: C_4  and  N_5 
REMARK       I    between atoms: N_5  and  C_6 
REMARK       I    between atoms: C_6  and  N_7 
REMARK    2  A    between atoms: N_7  and  C_8 
REMARK    3  A    between atoms: C_11  and  C_12 
REMARK    4  A    between atoms: C_12  and  C_13 
REMARK       I    between atoms: C_13  and  N_14 
REMARK    5  A    between atoms: N_14  and  C_15 
ROOT
HETATM    1  C   UNL     1     -41.529  57.485 -51.492  1.00  0.00     0.174 A 
HETATM    2  S   UNL     1     -40.477  58.185 -52.640  1.00  0.00    -0.062 SA
HETATM    3  C   UNL     1     -41.838  58.733 -53.520  1.00  0.00     0.081 A 
HETATM    4  C   UNL     1     -43.003  58.384 -52.860  1.00  0.00     0.052 A 
HETATM    5  N   UNL     1     -42.811  57.689 -51.671  1.00  0.00    -0.228 NA
ENDROOT
BRANCH   1   6
HETATM    6  N   UNL     1     -40.874  56.796 -50.508  1.00  0.00    -0.287 N 
HETATM    7  C   UNL     1     -41.335  55.673 -49.928  1.00  0.00     0.326 C 
HETATM    8  N   UNL     1     -41.840  54.627 -50.623  1.00  0.00    -0.309 N 
HETATM    9  O   UNL     1     -41.259  55.574 -48.699  1.00  0.00    -0.247 OA
HETATM   10  H   UNL     1     -42.295  53.972 -49.998  1.00  0.00     0.170 HD
HETATM   11  H   UNL     1     -40.294  57.373 -49.916  1.00  0.00     0.172 HD
BRANCH   8  12
HETATM   12  C   UNL     1     -41.642  54.163 -51.939  1.00  0.00     0.036 A 
HETATM   13  C   UNL     1     -42.481  54.441 -53.020  1.00  0.00     0.036 A 
HETATM   14  C   UNL     1     -42.215  53.925 -54.299  1.00  0.00    -0.060 A 
HETATM   15  C   UNL     1     -43.190  54.153 -55.415  1.00  0.00     0.048 C 
HETATM   16  C   UNL     1     -41.067  53.154 -54.500  1.00  0.00     0.007 A 
HETATM   17  C   UNL     1     -40.189  52.923 -53.445  1.00  0.00     0.003 A 
HETATM   18  C   UNL     1     -40.477  53.420 -52.173  1.00  0.00     0.029 A 
ENDBRANCH   8  12
ENDBRANCH   1   6
BRANCH   4  19
HETATM   19  C   UNL     1     -44.384  58.740 -53.280  1.00  0.00     0.163 C 
BRANCH  19  20
HETATM   20  C   UNL     1     -44.877  57.883 -54.432  1.00  0.00     0.227 C 
HETATM   21  N   UNL     1     -44.982  58.599 -55.614  1.00  0.00    -0.327 N 
HETATM   22  H   UNL     1     -44.977  59.609 -55.514  1.00  0.00     0.169 HD
HETATM   23  O   UNL     1     -45.081  56.681 -54.283  1.00  0.00    -0.273 OA
BRANCH  21  24
HETATM   24  C   UNL     1     -45.194  58.096 -56.912  1.00  0.00     0.036 A 
HETATM   25  C   UNL     1     -44.118  57.434 -57.521  1.00  0.00     0.056 A 
HETATM   26  C   UNL     1     -44.255  56.891 -58.799  1.00  0.00     0.074 A 
HETATM   27 CL   UNL     1     -42.917  56.084 -59.521  1.00  0.00    -0.081 Cl
HETATM   28  C   UNL     1     -45.464  57.007 -59.477  1.00  0.00     0.138 A 
HETATM   29  F   UNL     1     -45.615  56.495 -60.707  1.00  0.00    -0.204 F 
HETATM   30  C   UNL     1     -46.539  57.661 -58.887  1.00  0.00     0.046 A 
HETATM   31  C   UNL     1     -46.405  58.202 -57.603  1.00  0.00     0.032 A 
ENDBRANCH  21  24
ENDBRANCH  19  20
ENDBRANCH   4  19
TORSDOF 5
ENDMDL
MODEL 8
REMARK VINA RESULT:      -7.5      5.629      8.130
REMARK  5 active torsions:
REMARK  status: ('A' for Active; 'I' for Inactive)
REMARK    1  A    between atoms: C_4  and  N_5 
REMARK       I    between atoms: N_5  and  C_6 
REMARK       I    between atoms: C_6  and  N_7 
REMARK    2  A    between atoms: N_7  and  C_8 
REMARK    3  A    between atoms: C_11  and  C_12 
REMARK    4  A    between atoms: C_12  and  C_13 
REMARK       I    between atoms: C_13  and  N_14 
REMARK    5  A    between atoms: N_14  and  C_15 
ROOT
HETATM    1  C   UNL     1     -41.762  56.982 -50.868  1.00  0.00     0.174 A 
HETATM    2  S   UNL     1     -40.925  57.623 -52.211  1.00  0.00    -0.062 SA
HETATM    3  C   UNL     1     -42.408  58.220 -52.822  1.00  0.00     0.081 A 
HETATM    4  C   UNL     1     -43.436  57.929 -51.942  1.00  0.00     0.052 A 
HETATM    5  N   UNL     1     -43.044  57.239 -50.799  1.00  0.00    -0.228 NA
ENDROOT
BRANCH   1   6
HETATM    6  N   UNL     1     -40.957  56.276 -50.016  1.00  0.00    -0.287 N 
HETATM    7  C   UNL     1     -41.246  55.055 -49.532  1.00  0.00     0.326 C 
HETATM    8  N   UNL     1     -41.693  54.034 -50.299  1.00  0.00    -0.309 N 
HETATM    9  O   UNL     1     -41.056  54.841 -48.330  1.00  0.00    -0.247 OA
HETATM   10  H   UNL     1     -42.021  53.271 -49.720  1.00  0.00     0.170 HD
HETATM   11  H   UNL     1     -40.393  56.853 -49.408  1.00  0.00     0.172 HD
BRANCH   8  12
HETATM   12  C   UNL     1     -41.558  53.732 -51.669  1.00  0.00     0.036 A 
HETATM   13  C   UNL     1     -42.425  54.167 -52.673  1.00  0.00     0.036 A 
HETATM   14  C   UNL     1     -42.223  53.807 -54.016  1.00  0.00    -0.060 A 
HETATM   15  C   UNL     1     -43.229  54.201 -55.056  1.00  0.00     0.048 C 
HETATM   16  C   UNL     1     -41.111  53.033 -54.356  1.00  0.00     0.007 A 
HETATM   17  C   UNL     1     -40.204  52.646 -53.374  1.00  0.00     0.003 A 
HETATM   18  C   UNL     1     -40.429  52.990 -52.039  1.00  0.00     0.029 A 
ENDBRANCH   8  12
ENDBRANCH   1   6
BRANCH   4  19
HETATM   19  C   UNL     1     -44.856  58.340 -52.094  1.00  0.00     0.163 C 
BRANCH  19  20
HETATM   20  C   UNL     1     -45.353  59.151 -50.909  1.00  0.00     0.227 C 
HETATM   21  N   UNL     1     -44.411  60.064 -50.463  1.00  0.00    -0.327 N 
HETATM   22  H   UNL     1     -43.462  59.905 -50.787  1.00  0.00     0.169 HD
HETATM   23  O   UNL     1     -46.496  59.010 -50.483  1.00  0.00    -0.273 OA
BRANCH  21  24
HETATM   24  C   UNL     1     -44.595  61.115 -49.544  1.00  0.00     0.036 A 
HETATM   25  C   UNL     1     -44.762  60.760 -48.198  1.00  0.00     0.056 A 
HETATM   26  C   UNL     1     -44.929  61.746 -47.224  1.00  0.00     0.074 A 
HETATM   27 CL   UNL     1     -45.133  61.281 -45.578  1.00  0.00    -0.081 Cl
HETATM   28  C   UNL     1     -44.933  63.088 -47.588  1.00  0.00     0.138 A 
HETATM   29  F   UNL     1     -45.096  64.050 -46.668  1.00  0.00    -0.204 F 
HETATM   30  C   UNL     1     -44.769  63.454 -48.918  1.00  0.00     0.046 A 
HETATM   31  C   UNL     1     -44.596  62.468 -49.895  1.00  0.00     0.032 A 
ENDBRANCH  21  24
ENDBRANCH  19  20
ENDBRANCH   4  19
TORSDOF 5
ENDMDL
MODEL 9
REMARK VINA RESULT:      -7.5      2.512      4.416
REMARK  5 active torsions:
REMARK  status: ('A' for Active; 'I' for Inactive)
REMARK    1  A    between atoms: C_4  and  N_5 
REMARK       I    between atoms: N_5  and  C_6 
REMARK       I    between atoms: C_6  and  N_7 
REMARK    2  A    between atoms: N_7  and  C_8 
REMARK    3  A    between atoms: C_11  and  C_12 
REMARK    4  A    between atoms: C_12  and  C_13 
REMARK       I    between atoms: C_13  and  N_14 
REMARK    5  A    between atoms: N_14  and  C_15 
ROOT
HETATM    1  C   UNL     1     -41.627  57.832 -53.731  1.00  0.00     0.174 A 
HETATM    2  S   UNL     1     -40.850  59.173 -53.015  1.00  0.00    -0.062 SA
HETATM    3  C   UNL     1     -40.890  58.362 -51.508  1.00  0.00     0.081 A 
HETATM    4  C   UNL     1     -41.453  57.107 -51.658  1.00  0.00     0.052 A 
HETATM    5  N   UNL     1     -41.848  56.799 -52.956  1.00  0.00    -0.228 NA
ENDROOT
BRANCH   1   6
HETATM    6  N   UNL     1     -41.913  58.017 -55.056  1.00  0.00    -0.287 N 
HETATM    7  C   UNL     1     -43.040  57.596 -55.659  1.00  0.00     0.326 C 
HETATM    8  N   UNL     1     -44.278  57.785 -55.144  1.00  0.00    -0.309 N 
HETATM    9  O   UNL     1     -42.945  57.042 -56.759  1.00  0.00    -0.247 OA
HETATM   10  H   UNL     1     -44.961  57.238 -55.652  1.00  0.00     0.170 HD
HETATM   11  H   UNL     1     -41.100  58.052 -55.653  1.00  0.00     0.172 HD
BRANCH   8  12
HETATM   12  C   UNL     1     -44.813  58.740 -54.257  1.00  0.00     0.036 A 
HETATM   13  C   UNL     1     -44.950  58.564 -52.878  1.00  0.00     0.036 A 
HETATM   14  C   UNL     1     -45.508  59.567 -52.068  1.00  0.00    -0.060 A 
HETATM   15  C   UNL     1     -45.739  59.307 -50.610  1.00  0.00     0.048 C 
HETATM   16  C   UNL     1     -45.894  60.778 -52.648  1.00  0.00     0.007 A 
HETATM   17  C   UNL     1     -45.704  60.991 -54.010  1.00  0.00     0.003 A 
HETATM   18  C   UNL     1     -45.171  59.977 -54.809  1.00  0.00     0.029 A 
ENDBRANCH   8  12
ENDBRANCH   1   6
BRANCH   4  19
HETATM   19  C   UNL     1     -41.601  56.084 -50.590  1.00  0.00     0.163 C 
BRANCH  19  20
HETATM   20  C   UNL     1     -41.729  54.678 -51.150  1.00  0.00     0.227 C 
HETATM   21  N   UNL     1     -40.658  54.333 -51.960  1.00  0.00    -0.327 N 
HETATM   22  H   UNL     1     -40.087  55.109 -52.280  1.00  0.00     0.169 HD
HETATM   23  O   UNL     1     -42.668  53.954 -50.830  1.00  0.00    -0.273 OA
BRANCH  21  24
HETATM   24  C   UNL     1     -40.332  53.061 -52.466  1.00  0.00     0.036 A 
HETATM   25  C   UNL     1     -39.930  52.091 -51.536  1.00  0.00     0.056 A 
HETATM   26  C   UNL     1     -39.610  50.800 -51.957  1.00  0.00     0.074 A 
HETATM   27 CL   UNL     1     -39.119  49.629 -50.793  1.00  0.00    -0.081 Cl
HETATM   28  C   UNL     1     -39.685  50.470 -53.306  1.00  0.00     0.138 A 
HETATM   29  F   UNL     1     -39.378  49.236 -53.731  1.00  0.00    -0.204 F 
HETATM   30  C   UNL     1     -40.081  51.421 -54.239  1.00  0.00     0.046 A 
HETATM   31  C   UNL     1     -40.408  52.715 -53.818  1.00  0.00     0.032 A 
ENDBRANCH  21  24
ENDBRANCH  19  20
ENDBRANCH   4  19
TORSDOF 5
ENDMDL
MODEL 10
REMARK VINA RESULT:      -7.5      2.138      4.409
REMARK  5 active torsions:
REMARK  status: ('A' for Active; 'I' for Inactive)
REMARK    1  A    between atoms: C_4  and  N_5 
REMARK       I    between atoms: N_5  and  C_6 
REMARK       I    between atoms: C_6  and  N_7 
REMARK    2  A    between atoms: N_7  and  C_8 
REMARK    3  A    between atoms: C_11  and  C_12 
REMARK    4  A    between atoms: C_12  and  C_13 
REMARK       I    between atoms: C_13  and  N_14 
REMARK    5  A    between atoms: N_14  and  C_15 
ROOT
HETATM    1  C   UNL     1     -43.652  58.755 -52.077  1.00  0.00     0.174 A 
HETATM    2  S   UNL     1     -45.227  58.312 -51.588  1.00  0.00    -0.062 SA
HETATM    3  C   UNL     1     -44.580  56.903 -50.863  1.00  0.00     0.081 A 
HETATM    4  C   UNL     1     -43.204  56.884 -51.004  1.00  0.00     0.052 A 
HETATM    5  N   UNL     1     -42.675  57.978 -51.682  1.00  0.00    -0.228 NA
ENDROOT
BRANCH   1   6
HETATM    6  N   UNL     1     -43.621  59.898 -52.828  1.00  0.00    -0.287 N 
HETATM    7  C   UNL     1     -42.545  60.336 -53.505  1.00  0.00     0.326 C 
HETATM    8  N   UNL     1     -41.785  59.541 -54.295  1.00  0.00    -0.309 N 
HETATM    9  O   UNL     1     -42.256  61.536 -53.436  1.00  0.00    -0.247 OA
HETATM   10  H   UNL     1     -40.931  60.016 -54.559  1.00  0.00     0.170 HD
HETATM   11  H   UNL     1     -44.241  60.625 -52.500  1.00  0.00     0.172 HD
BRANCH   8  12
HETATM   12  C   UNL     1     -42.051  58.348 -54.996  1.00  0.00     0.036 A 
HETATM   13  C   UNL     1     -42.796  58.263 -56.175  1.00  0.00     0.036 A 
HETATM   14  C   UNL     1     -43.025  57.027 -56.802  1.00  0.00    -0.060 A 
HETATM   15  C   UNL     1     -43.915  56.954 -58.007  1.00  0.00     0.048 C 
HETATM   16  C   UNL     1     -42.462  55.870 -56.259  1.00  0.00     0.007 A 
HETATM   17  C   UNL     1     -41.665  55.950 -55.121  1.00  0.00     0.003 A 
HETATM   18  C   UNL     1     -41.465  57.180 -54.492  1.00  0.00     0.029 A 
ENDBRANCH   8  12
ENDBRANCH   1   6
BRANCH   4  19
HETATM   19  C   UNL     1     -42.284  55.856 -50.451  1.00  0.00     0.163 C 
BRANCH  19  20
HETATM   20  C   UNL     1     -42.235  54.603 -51.306  1.00  0.00     0.227 C 
HETATM   21  N   UNL     1     -40.946  54.282 -51.699  1.00  0.00    -0.327 N 
HETATM   22  H   UNL     1     -40.262  55.026 -51.601  1.00  0.00     0.169 HD
HETATM   23  O   UNL     1     -43.253  53.954 -51.534  1.00  0.00    -0.273 OA
BRANCH  21  24
HETATM   24  C   UNL     1     -40.498  53.092 -52.304  1.00  0.00     0.036 A 
HETATM   25  C   UNL     1     -40.034  52.081 -51.450  1.00  0.00     0.056 A 
HETATM   26  C   UNL     1     -39.592  50.864 -51.973  1.00  0.00     0.074 A 
HETATM   27 CL   UNL     1     -39.028  49.640 -50.901  1.00  0.00    -0.081 Cl
HETATM   28  C   UNL     1     -39.607  50.652 -53.347  1.00  0.00     0.138 A 
HETATM   29  F   UNL     1     -39.183  49.492 -53.869  1.00  0.00    -0.204 F 
HETATM   30  C   UNL     1     -40.063  51.645 -54.205  1.00  0.00     0.046 A 
HETATM   31  C   UNL     1     -40.512  52.863 -53.684  1.00  0.00     0.032 A 
ENDBRANCH  21  24
ENDBRANCH  19  20
ENDBRANCH   4  19
TORSDOF 5
ENDMDL
