MODEL 1
REMARK VINA RESULT:      -7.1      0.000      0.000
REMARK  5 active torsions:
REMARK  status: ('A' for Active; 'I' for Inactive)
REMARK    1  A    between atoms: C_3  and  N_4 
REMARK       I    between atoms: N_4  and  C_5 
REMARK       I    between atoms: C_5  and  N_6 
REMARK    2  A    between atoms: N_6  and  C_7 
REMARK    3  A    between atoms: C_7  and  C_8 
REMARK    4  A    between atoms: C_8  and  O_9 
REMARK    5  A    between atoms: O_9  and  C_10 
ROOT
HETATM    1  N   UNL     1     -40.006  52.950 -54.389  1.00  0.00    -0.307 N 
HETATM    2  C   UNL     1     -41.186  53.611 -54.647  1.00  0.00     0.320 C 
HETATM    3  N   UNL     1     -40.975  54.651 -55.527  1.00  0.00    -0.340 N 
HETATM    4  O   UNL     1     -42.297  53.318 -54.227  1.00  0.00    -0.247 OA
HETATM    5  H   UNL     1     -39.367  52.996 -55.170  1.00  0.00     0.170 HD
HETATM    6  H   UNL     1     -40.055  55.070 -55.535  1.00  0.00     0.164 HD
ENDROOT
BRANCH   3   7
HETATM    7  C   UNL     1     -42.070  55.497 -55.978  1.00  0.00     0.156 C 
BRANCH   7   8
HETATM    8  C   UNL     1     -42.146  56.851 -55.249  1.00  0.00     0.142 C 
HETATM    9  C   UNL     1     -42.816  57.932 -56.095  1.00  0.00     0.042 C 
BRANCH   8  10
HETATM   10  O   UNL     1     -42.920  56.721 -54.045  1.00  0.00    -0.345 OA
BRANCH  10  11
HETATM   11  C   UNL     1     -42.303  56.869 -52.834  1.00  0.00     0.070 A 
HETATM   12  C   UNL     1     -41.366  57.845 -52.494  1.00  0.00     0.060 A 
HETATM   13  C   UNL     1     -40.811  57.858 -51.211  1.00  0.00     0.036 A 
HETATM   14 CL   UNL     1     -39.651  59.064 -50.800  1.00  0.00    -0.084 Cl
HETATM   15  C   UNL     1     -41.179  56.907 -50.263  1.00  0.00     0.024 A 
HETATM   16  C   UNL     1     -42.111  55.930 -50.599  1.00  0.00     0.004 A 
HETATM   17  C   UNL     1     -42.667  55.913 -51.881  1.00  0.00     0.037 A 
ENDBRANCH  10  11
ENDBRANCH   8  10
ENDBRANCH   7   8
ENDBRANCH   3   7
BRANCH   1  18
HETATM   18  C   UNL     1     -39.842  51.843 -53.521  1.00  0.00     0.059 A 
HETATM   19  C   UNL     1     -39.767  51.892 -52.121  1.00  0.00    -0.032 A 
HETATM   20  C   UNL     1     -39.760  53.154 -51.307  1.00  0.00     0.050 C 
HETATM   21  C   UNL     1     -39.661  50.678 -51.420  1.00  0.00     0.028 A 
HETATM   22  C   UNL     1     -39.569  49.485 -52.121  1.00  0.00     0.117 A 
HETATM   23  N   UNL     1     -39.566  49.412 -53.463  1.00  0.00    -0.271 NA
HETATM   24  C   UNL     1     -39.702  50.587 -54.122  1.00  0.00     0.146 A 
ENDBRANCH   1  18
TORSDOF 5
ENDMDL
MODEL 2
REMARK VINA RESULT:      -7.0      2.413      3.900
REMARK  5 active torsions:
REMARK  status: ('A' for Active; 'I' for Inactive)
REMARK    1  A    between atoms: C_3  and  N_4 
REMARK       I    between atoms: N_4  and  C_5 
REMARK       I    between atoms: C_5  and  N_6 
REMARK    2  A    between atoms: N_6  and  C_7 
REMARK    3  A    between atoms: C_7  and  C_8 
REMARK    4  A    between atoms: C_8  and  O_9 
REMARK    5  A    between atoms: O_9  and  C_10 
ROOT
HETATM    1  N   UNL     1     -39.784  53.247 -51.435  1.00  0.00    -0.307 N 
HETATM    2  C   UNL     1     -40.898  53.971 -51.077  1.00  0.00     0.320 C 
HETATM    3  N   UNL     1     -40.535  55.103 -50.378  1.00  0.00    -0.340 N 
HETATM    4  O   UNL     1     -42.060  53.721 -51.367  1.00  0.00    -0.247 OA
HETATM    5  H   UNL     1     -38.974  53.836 -51.565  1.00  0.00     0.170 HD
HETATM    6  H   UNL     1     -39.668  55.067 -49.859  1.00  0.00     0.164 HD
ENDROOT
BRANCH   3   7
HETATM    7  C   UNL     1     -41.530  56.052 -49.902  1.00  0.00     0.156 C 
BRANCH   7   8
HETATM    8  C   UNL     1     -41.663  57.305 -50.788  1.00  0.00     0.142 C 
HETATM    9  C   UNL     1     -40.802  58.464 -50.290  1.00  0.00     0.042 C 
BRANCH   8  10
HETATM   10  O   UNL     1     -41.233  57.009 -52.128  1.00  0.00    -0.345 OA
BRANCH  10  11
HETATM   11  C   UNL     1     -42.169  56.868 -53.114  1.00  0.00     0.070 A 
HETATM   12  C   UNL     1     -41.982  56.260 -54.356  1.00  0.00     0.060 A 
HETATM   13  C   UNL     1     -43.039  56.205 -55.268  1.00  0.00     0.036 A 
HETATM   14 CL   UNL     1     -42.799  55.457 -56.801  1.00  0.00    -0.084 Cl
HETATM   15  C   UNL     1     -44.281  56.752 -54.958  1.00  0.00     0.024 A 
HETATM   16  C   UNL     1     -44.471  57.362 -53.721  1.00  0.00     0.004 A 
HETATM   17  C   UNL     1     -43.417  57.420 -52.807  1.00  0.00     0.037 A 
ENDBRANCH  10  11
ENDBRANCH   8  10
ENDBRANCH   7   8
ENDBRANCH   3   7
BRANCH   1  18
HETATM   18  C   UNL     1     -39.777  52.023 -52.147  1.00  0.00     0.059 A 
HETATM   19  C   UNL     1     -39.946  51.869 -53.531  1.00  0.00    -0.032 A 
HETATM   20  C   UNL     1     -40.254  52.986 -54.486  1.00  0.00     0.050 C 
HETATM   21  C   UNL     1     -39.850  50.574 -54.071  1.00  0.00     0.028 A 
HETATM   22  C   UNL     1     -39.660  49.490 -53.228  1.00  0.00     0.117 A 
HETATM   23  N   UNL     1     -39.566  49.598 -51.891  1.00  0.00    -0.271 NA
HETATM   24  C   UNL     1     -39.627  50.854 -51.391  1.00  0.00     0.146 A 
ENDBRANCH   1  18
TORSDOF 5
ENDMDL
MODEL 3
REMARK VINA RESULT:      -6.8      3.337      6.814
REMARK  5 active torsions:
REMARK  status: ('A' for Active; 'I' for Inactive)
REMARK    1  A    between atoms: C_3  and  N_4 
REMARK       I    between atoms: N_4  and  C_5 
REMARK       I    between atoms: C_5  and  N_6 
REMARK    2  A    between atoms: N_6  and  C_7 
REMARK    3  A    between atoms: C_7  and  C_8 
REMARK    4  A    between atoms: C_8  and  O_9 
REMARK    5  A    between atoms: O_9  and  C_10 
ROOT
HETATM    1  N   UNL     1     -43.560  56.105 -56.784  1.00  0.00    -0.307 N 
HETATM    2  C   UNL     1     -42.890  55.316 -55.876  1.00  0.00     0.320 C 
HETATM    3  N   UNL     1     -43.741  54.905 -54.872  1.00  0.00    -0.340 N 
HETATM    4  O   UNL     1     -41.723  54.954 -55.940  1.00  0.00    -0.247 OA
HETATM    5  H   UNL     1     -44.539  55.864 -56.846  1.00  0.00     0.170 HD
HETATM    6  H   UNL     1     -44.528  55.504 -54.660  1.00  0.00     0.164 HD
ENDROOT
BRANCH   3   7
HETATM    7  C   UNL     1     -43.282  54.042 -53.794  1.00  0.00     0.156 C 
BRANCH   7   8
HETATM    8  C   UNL     1     -42.629  54.806 -52.626  1.00  0.00     0.142 C 
HETATM    9  C   UNL     1     -43.083  54.286 -51.264  1.00  0.00     0.042 C 
BRANCH   8  10
HETATM   10  O   UNL     1     -41.200  54.656 -52.677  1.00  0.00    -0.345 OA
BRANCH  10  11
HETATM   11  C   UNL     1     -40.656  53.405 -52.587  1.00  0.00     0.070 A 
HETATM   12  C   UNL     1     -40.457  52.509 -53.638  1.00  0.00     0.060 A 
HETATM   13  C   UNL     1     -39.898  51.254 -53.383  1.00  0.00     0.036 A 
HETATM   14 CL   UNL     1     -39.661  50.150 -54.685  1.00  0.00    -0.084 Cl
HETATM   15  C   UNL     1     -39.535  50.881 -52.092  1.00  0.00     0.024 A 
HETATM   16  C   UNL     1     -39.733  51.771 -51.040  1.00  0.00     0.004 A 
HETATM   17  C   UNL     1     -40.294  53.026 -51.291  1.00  0.00     0.037 A 
ENDBRANCH  10  11
ENDBRANCH   8  10
ENDBRANCH   7   8
ENDBRANCH   3   7
BRANCH   1  18
HETATM   18  C   UNL     1     -43.000  56.714 -57.933  1.00  0.00     0.059 A 
HETATM   19  C   UNL     1     -42.415  57.988 -57.994  1.00  0.00    -0.032 A 
HETATM   20  C   UNL     1     -42.365  58.964 -56.853  1.00  0.00     0.050 C 
HETATM   21  C   UNL     1     -41.857  58.404 -59.216  1.00  0.00     0.028 A 
HETATM   22  C   UNL     1     -41.955  57.585 -60.330  1.00  0.00     0.117 A 
HETATM   23  N   UNL     1     -42.572  56.391 -60.321  1.00  0.00    -0.271 NA
HETATM   24  C   UNL     1     -43.074  55.991 -59.129  1.00  0.00     0.146 A 
ENDBRANCH   1  18
TORSDOF 5
ENDMDL
MODEL 4
REMARK VINA RESULT:      -6.8      3.234      7.018
REMARK  5 active torsions:
REMARK  status: ('A' for Active; 'I' for Inactive)
REMARK    1  A    between atoms: C_3  and  N_4 
REMARK       I    between atoms: N_4  and  C_5 
REMARK       I    between atoms: C_5  and  N_6 
REMARK    2  A    between atoms: N_6  and  C_7 
REMARK    3  A    between atoms: C_7  and  C_8 
REMARK    4  A    between atoms: C_8  and  O_9 
REMARK    5  A    between atoms: O_9  and  C_10 
ROOT
HETATM    1  N   UNL     1     -43.762  56.654 -51.976  1.00  0.00    -0.307 N 
HETATM    2  C   UNL     1     -42.524  56.787 -51.389  1.00  0.00     0.320 C 
HETATM    3  N   UNL     1     -42.444  56.015 -50.249  1.00  0.00    -0.340 N 
HETATM    4  O   UNL     1     -41.578  57.437 -51.813  1.00  0.00    -0.247 OA
HETATM    5  H   UNL     1     -44.171  55.748 -51.798  1.00  0.00     0.170 HD
HETATM    6  H   UNL     1     -43.307  55.825 -49.759  1.00  0.00     0.164 HD
ENDROOT
BRANCH   3   7
HETATM    7  C   UNL     1     -41.227  55.964 -49.452  1.00  0.00     0.156 C 
BRANCH   7   8
HETATM    8  C   UNL     1     -40.506  54.604 -49.513  1.00  0.00     0.142 C 
HETATM    9  C   UNL     1     -40.319  53.982 -48.131  1.00  0.00     0.042 C 
BRANCH   8  10
HETATM   10  O   UNL     1     -41.275  53.673 -50.292  1.00  0.00    -0.345 OA
BRANCH  10  11
HETATM   11  C   UNL     1     -40.742  53.166 -51.445  1.00  0.00     0.070 A 
HETATM   12  C   UNL     1     -40.794  53.750 -52.711  1.00  0.00     0.060 A 
HETATM   13  C   UNL     1     -40.211  53.100 -53.801  1.00  0.00     0.036 A 
HETATM   14 CL   UNL     1     -40.284  53.825 -55.362  1.00  0.00    -0.084 Cl
HETATM   15  C   UNL     1     -39.576  51.871 -53.644  1.00  0.00     0.024 A 
HETATM   16  C   UNL     1     -39.524  51.282 -52.383  1.00  0.00     0.004 A 
HETATM   17  C   UNL     1     -40.108  51.930 -51.291  1.00  0.00     0.037 A 
ENDBRANCH  10  11
ENDBRANCH   8  10
ENDBRANCH   7   8
ENDBRANCH   3   7
BRANCH   1  18
HETATM   18  C   UNL     1     -44.204  57.310 -53.150  1.00  0.00     0.059 A 
HETATM   19  C   UNL     1     -44.110  56.816 -54.460  1.00  0.00    -0.032 A 
HETATM   20  C   UNL     1     -43.436  55.530 -54.845  1.00  0.00     0.050 C 
HETATM   21  C   UNL     1     -44.659  57.586 -55.501  1.00  0.00     0.028 A 
HETATM   22  C   UNL     1     -45.213  58.825 -55.220  1.00  0.00     0.117 A 
HETATM   23  N   UNL     1     -45.253  59.357 -53.986  1.00  0.00    -0.271 NA
HETATM   24  C   UNL     1     -44.751  58.589 -52.992  1.00  0.00     0.146 A 
ENDBRANCH   1  18
TORSDOF 5
ENDMDL
MODEL 5
REMARK VINA RESULT:      -6.8      1.670      2.350
REMARK  5 active torsions:
REMARK  status: ('A' for Active; 'I' for Inactive)
REMARK    1  A    between atoms: C_3  and  N_4 
REMARK       I    between atoms: N_4  and  C_5 
REMARK       I    between atoms: C_5  and  N_6 
REMARK    2  A    between atoms: N_6  and  C_7 
REMARK    3  A    between atoms: C_7  and  C_8 
REMARK    4  A    between atoms: C_8  and  O_9 
REMARK    5  A    between atoms: O_9  and  C_10 
ROOT
HETATM    1  N   UNL     1     -40.018  52.884 -54.061  1.00  0.00    -0.307 N 
HETATM    2  C   UNL     1     -41.195  53.411 -54.541  1.00  0.00     0.320 C 
HETATM    3  N   UNL     1     -40.940  54.438 -55.426  1.00  0.00    -0.340 N 
HETATM    4  O   UNL     1     -42.328  53.020 -54.296  1.00  0.00    -0.247 OA
HETATM    5  H   UNL     1     -39.264  52.969 -54.728  1.00  0.00     0.170 HD
HETATM    6  H   UNL     1     -40.076  54.948 -55.303  1.00  0.00     0.164 HD
ENDROOT
BRANCH   3   7
HETATM    7  C   UNL     1     -42.020  55.151 -56.092  1.00  0.00     0.156 C 
BRANCH   7   8
HETATM    8  C   UNL     1     -42.053  56.658 -55.774  1.00  0.00     0.142 C 
HETATM    9  C   UNL     1     -42.402  57.504 -56.997  1.00  0.00     0.042 C 
BRANCH   8  10
HETATM   10  O   UNL     1     -43.052  56.930 -54.777  1.00  0.00    -0.345 OA
BRANCH  10  11
HETATM   11  C   UNL     1     -42.792  56.625 -53.470  1.00  0.00     0.070 A 
HETATM   12  C   UNL     1     -43.541  55.781 -52.649  1.00  0.00     0.060 A 
HETATM   13  C   UNL     1     -43.152  55.578 -51.323  1.00  0.00     0.036 A 
HETATM   14 CL   UNL     1     -44.085  54.539 -50.314  1.00  0.00    -0.084 Cl
HETATM   15  C   UNL     1     -42.024  56.208 -50.803  1.00  0.00     0.024 A 
HETATM   16  C   UNL     1     -41.276  57.053 -51.618  1.00  0.00     0.004 A 
HETATM   17  C   UNL     1     -41.662  57.259 -52.944  1.00  0.00     0.037 A 
ENDBRANCH  10  11
ENDBRANCH   8  10
ENDBRANCH   7   8
ENDBRANCH   3   7
BRANCH   1  18
HETATM   18  C   UNL     1     -39.896  51.829 -53.125  1.00  0.00     0.059 A 
HETATM   19  C   UNL     1     -39.753  50.466 -53.426  1.00  0.00    -0.032 A 
HETATM   20  C   UNL     1     -39.795  49.886 -54.811  1.00  0.00     0.050 C 
HETATM   21  C   UNL     1     -39.587  49.565 -52.360  1.00  0.00     0.028 A 
HETATM   22  C   UNL     1     -39.632  50.029 -51.055  1.00  0.00     0.117 A 
HETATM   23  N   UNL     1     -39.839  51.317 -50.732  1.00  0.00    -0.271 NA
HETATM   24  C   UNL     1     -39.965  52.176 -51.771  1.00  0.00     0.146 A 
ENDBRANCH   1  18
TORSDOF 5
ENDMDL
MODEL 6
REMARK VINA RESULT:      -6.6      2.934      4.635
REMARK  5 active torsions:
REMARK  status: ('A' for Active; 'I' for Inactive)
REMARK    1  A    between atoms: C_3  and  N_4 
REMARK       I    between atoms: N_4  and  C_5 
REMARK       I    between atoms: C_5  and  N_6 
REMARK    2  A    between atoms: N_6  and  C_7 
REMARK    3  A    between atoms: C_7  and  C_8 
REMARK    4  A    between atoms: C_8  and  O_9 
REMARK    5  A    between atoms: O_9  and  C_10 
ROOT
HETATM    1  N   UNL     1     -40.735  53.714 -53.781  1.00  0.00    -0.307 N 
HETATM    2  C   UNL     1     -41.915  54.343 -53.455  1.00  0.00     0.320 C 
HETATM    3  N   UNL     1     -41.988  55.578 -54.065  1.00  0.00    -0.340 N 
HETATM    4  O   UNL     1     -42.825  53.888 -52.776  1.00  0.00    -0.247 OA
HETATM    5  H   UNL     1     -40.397  53.988 -54.693  1.00  0.00     0.170 HD
HETATM    6  H   UNL     1     -41.114  56.042 -54.274  1.00  0.00     0.164 HD
ENDROOT
BRANCH   3   7
HETATM    7  C   UNL     1     -43.149  56.439 -53.896  1.00  0.00     0.156 C 
BRANCH   7   8
HETATM    8  C   UNL     1     -43.777  56.897 -55.226  1.00  0.00     0.142 C 
HETATM    9  C   UNL     1     -44.984  57.809 -55.017  1.00  0.00     0.042 C 
BRANCH   8  10
HETATM   10  O   UNL     1     -42.817  57.642 -55.994  1.00  0.00    -0.345 OA
BRANCH  10  11
HETATM   11  C   UNL     1     -42.706  57.404 -57.336  1.00  0.00     0.070 A 
HETATM   12  C   UNL     1     -42.315  58.321 -58.312  1.00  0.00     0.060 A 
HETATM   13  C   UNL     1     -42.262  57.929 -59.652  1.00  0.00     0.036 A 
HETATM   14 CL   UNL     1     -41.784  59.068 -60.852  1.00  0.00    -0.084 Cl
HETATM   15  C   UNL     1     -42.596  56.631 -60.032  1.00  0.00     0.024 A 
HETATM   16  C   UNL     1     -42.989  55.714 -59.061  1.00  0.00     0.004 A 
HETATM   17  C   UNL     1     -43.044  56.103 -57.721  1.00  0.00     0.037 A 
ENDBRANCH  10  11
ENDBRANCH   8  10
ENDBRANCH   7   8
ENDBRANCH   3   7
BRANCH   1  18
HETATM   18  C   UNL     1     -40.315  52.440 -53.327  1.00  0.00     0.059 A 
HETATM   19  C   UNL     1     -39.867  52.128 -52.034  1.00  0.00    -0.032 A 
HETATM   20  C   UNL     1     -39.673  53.128 -50.930  1.00  0.00     0.050 C 
HETATM   21  C   UNL     1     -39.545  50.789 -51.748  1.00  0.00     0.028 A 
HETATM   22  C   UNL     1     -39.615  49.837 -52.753  1.00  0.00     0.117 A 
HETATM   23  N   UNL     1     -39.971  50.118 -54.018  1.00  0.00    -0.271 NA
HETATM   24  C   UNL     1     -40.309  51.404 -54.268  1.00  0.00     0.146 A 
ENDBRANCH   1  18
TORSDOF 5
ENDMDL
MODEL 7
REMARK VINA RESULT:      -6.6      3.077      4.874
REMARK  5 active torsions:
REMARK  status: ('A' for Active; 'I' for Inactive)
REMARK    1  A    between atoms: C_3  and  N_4 
REMARK       I    between atoms: N_4  and  C_5 
REMARK       I    between atoms: C_5  and  N_6 
REMARK    2  A    between atoms: N_6  and  C_7 
REMARK    3  A    between atoms: C_7  and  C_8 
REMARK    4  A    between atoms: C_8  and  O_9 
REMARK    5  A    between atoms: O_9  and  C_10 
ROOT
HETATM    1  N   UNL     1     -40.628  53.462 -53.838  1.00  0.00    -0.307 N 
HETATM    2  C   UNL     1     -41.743  54.164 -53.441  1.00  0.00     0.320 C 
HETATM    3  N   UNL     1     -41.797  55.387 -54.076  1.00  0.00    -0.340 N 
HETATM    4  O   UNL     1     -42.620  53.777 -52.681  1.00  0.00    -0.247 OA
HETATM    5  H   UNL     1     -40.348  53.696 -54.781  1.00  0.00     0.170 HD
HETATM    6  H   UNL     1     -40.919  55.796 -54.365  1.00  0.00     0.164 HD
ENDROOT
BRANCH   3   7
HETATM    7  C   UNL     1     -42.893  56.315 -53.843  1.00  0.00     0.156 C 
BRANCH   7   8
HETATM    8  C   UNL     1     -43.398  57.009 -55.122  1.00  0.00     0.142 C 
HETATM    9  C   UNL     1     -43.920  58.419 -54.853  1.00  0.00     0.042 C 
BRANCH   8  10
HETATM   10  O   UNL     1     -42.326  57.133 -56.072  1.00  0.00    -0.345 OA
BRANCH  10  11
HETATM   11  C   UNL     1     -42.589  56.963 -57.402  1.00  0.00     0.070 A 
HETATM   12  C   UNL     1     -43.286  55.902 -57.982  1.00  0.00     0.060 A 
HETATM   13  C   UNL     1     -43.464  55.862 -59.368  1.00  0.00     0.036 A 
HETATM   14 CL   UNL     1     -44.321  54.547 -60.077  1.00  0.00    -0.084 Cl
HETATM   15  C   UNL     1     -42.953  56.869 -60.183  1.00  0.00     0.024 A 
HETATM   16  C   UNL     1     -42.254  57.927 -59.609  1.00  0.00     0.004 A 
HETATM   17  C   UNL     1     -42.074  57.969 -58.225  1.00  0.00     0.037 A 
ENDBRANCH  10  11
ENDBRANCH   8  10
ENDBRANCH   7   8
ENDBRANCH   3   7
BRANCH   1  18
HETATM   18  C   UNL     1     -40.243  52.178 -53.382  1.00  0.00     0.059 A 
HETATM   19  C   UNL     1     -39.807  51.855 -52.088  1.00  0.00    -0.032 A 
HETATM   20  C   UNL     1     -39.592  52.849 -50.983  1.00  0.00     0.050 C 
HETATM   21  C   UNL     1     -39.522  50.508 -51.802  1.00  0.00     0.028 A 
HETATM   22  C   UNL     1     -39.614  49.557 -52.806  1.00  0.00     0.117 A 
HETATM   23  N   UNL     1     -39.958  49.847 -54.073  1.00  0.00    -0.271 NA
HETATM   24  C   UNL     1     -40.261  51.142 -54.324  1.00  0.00     0.146 A 
ENDBRANCH   1  18
TORSDOF 5
ENDMDL
MODEL 8
REMARK VINA RESULT:      -6.3      3.605      7.360
REMARK  5 active torsions:
REMARK  status: ('A' for Active; 'I' for Inactive)
REMARK    1  A    between atoms: C_3  and  N_4 
REMARK       I    between atoms: N_4  and  C_5 
REMARK       I    between atoms: C_5  and  N_6 
REMARK    2  A    between atoms: N_6  and  C_7 
REMARK    3  A    between atoms: C_7  and  C_8 
REMARK    4  A    between atoms: C_8  and  O_9 
REMARK    5  A    between atoms: O_9  and  C_10 
ROOT
HETATM    1  N   UNL     1     -43.147  57.613 -57.013  1.00  0.00    -0.307 N 
HETATM    2  C   UNL     1     -42.511  56.539 -56.432  1.00  0.00     0.320 C 
HETATM    3  N   UNL     1     -41.762  56.949 -55.349  1.00  0.00    -0.340 N 
HETATM    4  O   UNL     1     -42.611  55.364 -56.757  1.00  0.00    -0.247 OA
HETATM    5  H   UNL     1     -43.353  58.340 -56.342  1.00  0.00     0.170 HD
HETATM    6  H   UNL     1     -41.418  57.899 -55.359  1.00  0.00     0.164 HD
ENDROOT
BRANCH   3   7
HETATM    7  C   UNL     1     -41.006  55.999 -54.547  1.00  0.00     0.156 C 
BRANCH   7   8
HETATM    8  C   UNL     1     -41.721  55.578 -53.249  1.00  0.00     0.142 C 
HETATM    9  C   UNL     1     -42.967  56.418 -52.973  1.00  0.00     0.042 C 
BRANCH   8  10
HETATM   10  O   UNL     1     -42.150  54.210 -53.343  1.00  0.00    -0.345 OA
BRANCH  10  11
HETATM   11  C   UNL     1     -41.251  53.210 -53.099  1.00  0.00     0.070 A 
HETATM   12  C   UNL     1     -40.886  52.188 -53.977  1.00  0.00     0.060 A 
HETATM   13  C   UNL     1     -39.956  51.226 -53.574  1.00  0.00     0.036 A 
HETATM   14 CL   UNL     1     -39.515  49.965 -54.662  1.00  0.00    -0.084 Cl
HETATM   15  C   UNL     1     -39.386  51.268 -52.305  1.00  0.00     0.024 A 
HETATM   16  C   UNL     1     -39.750  52.284 -51.424  1.00  0.00     0.004 A 
HETATM   17  C   UNL     1     -40.680  53.247 -51.823  1.00  0.00     0.037 A 
ENDBRANCH  10  11
ENDBRANCH   8  10
ENDBRANCH   7   8
ENDBRANCH   3   7
BRANCH   1  18
HETATM   18  C   UNL     1     -43.986  57.569 -58.152  1.00  0.00     0.059 A 
HETATM   19  C   UNL     1     -43.581  57.308 -59.470  1.00  0.00    -0.032 A 
HETATM   20  C   UNL     1     -42.157  57.115 -59.906  1.00  0.00     0.050 C 
HETATM   21  C   UNL     1     -44.569  57.248 -60.468  1.00  0.00     0.028 A 
HETATM   22  C   UNL     1     -45.891  57.509 -60.143  1.00  0.00     0.117 A 
HETATM   23  N   UNL     1     -46.300  57.833 -58.904  1.00  0.00    -0.271 NA
HETATM   24  C   UNL     1     -45.341  57.854 -57.949  1.00  0.00     0.146 A 
ENDBRANCH   1  18
TORSDOF 5
ENDMDL
MODEL 9
REMARK VINA RESULT:      -6.2      3.463      5.429
REMARK  5 active torsions:
REMARK  status: ('A' for Active; 'I' for Inactive)
REMARK    1  A    between atoms: C_3  and  N_4 
REMARK       I    between atoms: N_4  and  C_5 
REMARK       I    between atoms: C_5  and  N_6 
REMARK    2  A    between atoms: N_6  and  C_7 
REMARK    3  A    between atoms: C_7  and  C_8 
REMARK    4  A    between atoms: C_8  and  O_9 
REMARK    5  A    between atoms: O_9  and  C_10 
ROOT
HETATM    1  N   UNL     1     -42.860  54.473 -52.629  1.00  0.00    -0.307 N 
HETATM    2  C   UNL     1     -42.796  55.769 -53.088  1.00  0.00     0.320 C 
HETATM    3  N   UNL     1     -44.056  56.233 -53.404  1.00  0.00    -0.340 N 
HETATM    4  O   UNL     1     -41.797  56.471 -53.164  1.00  0.00    -0.247 OA
HETATM    5  H   UNL     1     -43.738  54.275 -52.171  1.00  0.00     0.170 HD
HETATM    6  H   UNL     1     -44.744  55.546 -53.682  1.00  0.00     0.164 HD
ENDROOT
BRANCH   3   7
HETATM    7  C   UNL     1     -44.264  57.587 -53.895  1.00  0.00     0.156 C 
BRANCH   7   8
HETATM    8  C   UNL     1     -44.432  57.671 -55.424  1.00  0.00     0.142 C 
HETATM    9  C   UNL     1     -45.240  58.894 -55.854  1.00  0.00     0.042 C 
BRANCH   8  10
HETATM   10  O   UNL     1     -43.145  57.775 -56.056  1.00  0.00    -0.345 OA
BRANCH  10  11
HETATM   11  C   UNL     1     -43.008  57.385 -57.359  1.00  0.00     0.070 A 
HETATM   12  C   UNL     1     -43.616  56.285 -57.965  1.00  0.00     0.060 A 
HETATM   13  C   UNL     1     -43.365  56.008 -59.312  1.00  0.00     0.036 A 
HETATM   14 CL   UNL     1     -44.116  54.645 -60.052  1.00  0.00    -0.084 Cl
HETATM   15  C   UNL     1     -42.513  56.813 -60.062  1.00  0.00     0.024 A 
HETATM   16  C   UNL     1     -41.901  57.910 -59.460  1.00  0.00     0.004 A 
HETATM   17  C   UNL     1     -42.149  58.190 -58.114  1.00  0.00     0.037 A 
ENDBRANCH  10  11
ENDBRANCH   8  10
ENDBRANCH   7   8
ENDBRANCH   3   7
BRANCH   1  18
HETATM   18  C   UNL     1     -41.762  53.674 -52.227  1.00  0.00     0.059 A 
HETATM   19  C   UNL     1     -40.859  53.019 -53.078  1.00  0.00    -0.032 A 
HETATM   20  C   UNL     1     -40.962  52.986 -54.576  1.00  0.00     0.050 C 
HETATM   21  C   UNL     1     -39.790  52.315 -52.495  1.00  0.00     0.028 A 
HETATM   22  C   UNL     1     -39.693  52.233 -51.115  1.00  0.00     0.117 A 
HETATM   23  N   UNL     1     -40.583  52.789 -50.274  1.00  0.00    -0.271 NA
HETATM   24  C   UNL     1     -41.587  53.490 -50.851  1.00  0.00     0.146 A 
ENDBRANCH   1  18
TORSDOF 5
ENDMDL
MODEL 10
REMARK VINA RESULT:      -6.2      3.284      5.433
REMARK  5 active torsions:
REMARK  status: ('A' for Active; 'I' for Inactive)
REMARK    1  A    between atoms: C_3  and  N_4 
REMARK       I    between atoms: N_4  and  C_5 
REMARK       I    between atoms: C_5  and  N_6 
REMARK    2  A    between atoms: N_6  and  C_7 
REMARK    3  A    between atoms: C_7  and  C_8 
REMARK    4  A    between atoms: C_8  and  O_9 
REMARK    5  A    between atoms: O_9  and  C_10 
ROOT
HETATM    1  N   UNL     1     -40.794  54.503 -54.386  1.00  0.00    -0.307 N 
HETATM    2  C   UNL     1     -41.971  54.546 -55.100  1.00  0.00     0.320 C 
HETATM    3  N   UNL     1     -41.820  55.317 -56.234  1.00  0.00    -0.340 N 
HETATM    4  O   UNL     1     -43.009  53.955 -54.838  1.00  0.00    -0.247 OA
HETATM    5  H   UNL     1     -39.985  54.595 -54.984  1.00  0.00     0.170 HD
HETATM    6  H   UNL     1     -41.125  56.050 -56.205  1.00  0.00     0.164 HD
ENDROOT
BRANCH   3   7
HETATM    7  C   UNL     1     -42.916  55.506 -57.172  1.00  0.00     0.156 C 
BRANCH   7   8
HETATM    8  C   UNL     1     -43.272  56.986 -57.416  1.00  0.00     0.142 C 
HETATM    9  C   UNL     1     -44.141  57.566 -56.302  1.00  0.00     0.042 C 
BRANCH   8  10
HETATM   10  O   UNL     1     -42.074  57.778 -57.469  1.00  0.00    -0.345 OA
BRANCH  10  11
HETATM   11  C   UNL     1     -41.961  58.754 -58.420  1.00  0.00     0.070 A 
HETATM   12  C   UNL     1     -41.747  60.114 -58.193  1.00  0.00     0.060 A 
HETATM   13  C   UNL     1     -41.667  60.995 -59.274  1.00  0.00     0.036 A 
HETATM   14 CL   UNL     1     -41.408  62.674 -58.985  1.00  0.00    -0.084 Cl
HETATM   15  C   UNL     1     -41.799  60.536 -60.582  1.00  0.00     0.024 A 
HETATM   16  C   UNL     1     -42.015  59.180 -60.813  1.00  0.00     0.004 A 
HETATM   17  C   UNL     1     -42.097  58.297 -59.734  1.00  0.00     0.037 A 
ENDBRANCH  10  11
ENDBRANCH   8  10
ENDBRANCH   7   8
ENDBRANCH   3   7
BRANCH   1  18
HETATM   18  C   UNL     1     -40.584  53.820 -53.164  1.00  0.00     0.059 A 
HETATM   19  C   UNL     1     -40.193  52.480 -53.020  1.00  0.00    -0.032 A 
HETATM   20  C   UNL     1     -40.017  51.512 -54.155  1.00  0.00     0.050 C 
HETATM   21  C   UNL     1     -39.975  51.988 -51.721  1.00  0.00     0.028 A 
HETATM   22  C   UNL     1     -40.211  52.807 -50.628  1.00  0.00     0.117 A 
HETATM   23  N   UNL     1     -40.654  54.072 -50.731  1.00  0.00    -0.271 NA
HETATM   24  C   UNL     1     -40.827  54.540 -51.989  1.00  0.00     0.146 A 
ENDBRANCH   1  18
TORSDOF 5
ENDMDL
