MODEL 1
REMARK VINA RESULT:      -8.0      0.000      0.000
REMARK  6 active torsions:
REMARK  status: ('A' for Active; 'I' for Inactive)
REMARK    1  A    between atoms: C_3  and  O_4 
REMARK    2  A    between atoms: O_4  and  C_5 
REMARK    3  A    between atoms: C_13  and  N_14 
REMARK       I    between atoms: N_14  and  C_15 
REMARK       I    between atoms: C_15  and  N_16 
REMARK    4  A    between atoms: N_16  and  C_17 
REMARK    5  A    between atoms: C_17  and  C_18 
REMARK    6  A    between atoms: C_18  and  C_19 
ROOT
HETATM    1  N   UNL     1     -42.328  55.476 -56.221  1.00  0.00    -0.308 N 
HETATM    2  C   UNL     1     -42.358  56.771 -56.692  1.00  0.00     0.320 C 
HETATM    3  N   UNL     1     -42.362  56.780 -58.073  1.00  0.00    -0.342 N 
HETATM    4  O   UNL     1     -42.423  57.798 -56.030  1.00  0.00    -0.247 OA
HETATM    5  H   UNL     1     -42.515  54.785 -56.930  1.00  0.00     0.170 HD
HETATM    6  H   UNL     1     -41.791  56.066 -58.512  1.00  0.00     0.164 HD
ENDROOT
BRANCH   1   7
HETATM    7  C   UNL     1     -42.315  55.039 -54.875  1.00  0.00     0.045 A 
HETATM    8  C   UNL     1     -41.177  54.353 -54.385  1.00  0.00    -0.002 A 
HETATM    9  C   UNL     1     -39.972  54.111 -55.260  1.00  0.00     0.053 C 
HETATM   10  C   UNL     1     -41.203  53.843 -53.071  1.00  0.00     0.077 A 
HETATM   11  C   UNL     1     -42.282  54.098 -52.224  1.00  0.00     0.037 A 
HETATM   12  C   UNL     1     -43.376  54.811 -52.697  1.00  0.00     0.005 A 
HETATM   13  C   UNL     1     -43.396  55.268 -54.016  1.00  0.00     0.030 A 
BRANCH  10  14
HETATM   14  O   UNL     1     -40.114  53.125 -52.641  1.00  0.00    -0.345 OA
BRANCH  14  15
HETATM   15  C   UNL     1     -40.356  51.731 -52.445  1.00  0.00     0.129 C 
HETATM   16  C   UNL     1     -39.576  50.822 -53.394  1.00  0.00     0.032 C 
HETATM   17  C   UNL     1     -39.581  49.485 -52.672  1.00  0.00     0.002 C 
HETATM   18  C   UNL     1     -39.455  49.839 -51.194  1.00  0.00     0.002 C 
HETATM   19  C   UNL     1     -39.800  51.322 -51.078  1.00  0.00     0.032 C 
ENDBRANCH  14  15
ENDBRANCH  10  14
ENDBRANCH   1   7
BRANCH   3  20
HETATM   20  C   UNL     1     -42.393  58.042 -58.798  1.00  0.00     0.132 C 
BRANCH  20  21
HETATM   21  C   UNL     1     -43.151  57.953 -60.124  1.00  0.00     0.102 C 
BRANCH  21  22
HETATM   22  C   UNL     1     -44.185  56.882 -60.114  1.00  0.00     0.148 A 
HETATM   23  N   UNL     1     -45.301  56.962 -59.376  1.00  0.00    -0.158 NA
HETATM   24  N   UNL     1     -45.915  55.810 -59.689  1.00  0.00    -0.270 N 
HETATM   25  H   UNL     1     -46.815  55.596 -59.273  1.00  0.00     0.190 HD
HETATM   26  C   UNL     1     -45.175  55.081 -60.565  1.00  0.00     0.227 A 
HETATM   27  N   UNL     1     -44.071  55.728 -60.854  1.00  0.00    -0.226 NA
ENDBRANCH  21  22
ENDBRANCH  20  21
ENDBRANCH   3  20
TORSDOF 6
ENDMDL
MODEL 2
REMARK VINA RESULT:      -7.1      1.581      2.038
REMARK  6 active torsions:
REMARK  status: ('A' for Active; 'I' for Inactive)
REMARK    1  A    between atoms: C_3  and  O_4 
REMARK    2  A    between atoms: O_4  and  C_5 
REMARK    3  A    between atoms: C_13  and  N_14 
REMARK       I    between atoms: N_14  and  C_15 
REMARK       I    between atoms: C_15  and  N_16 
REMARK    4  A    between atoms: N_16  and  C_17 
REMARK    5  A    between atoms: C_17  and  C_18 
REMARK    6  A    between atoms: C_18  and  C_19 
ROOT
HETATM    1  N   UNL     1     -43.565  57.229 -55.973  1.00  0.00    -0.308 N 
HETATM    2  C   UNL     1     -43.156  58.014 -57.028  1.00  0.00     0.320 C 
HETATM    3  N   UNL     1     -44.178  58.156 -57.947  1.00  0.00    -0.342 N 
HETATM    4  O   UNL     1     -42.074  58.572 -57.162  1.00  0.00    -0.247 OA
HETATM    5  H   UNL     1     -44.560  57.071 -55.949  1.00  0.00     0.170 HD
HETATM    6  H   UNL     1     -44.751  57.330 -58.086  1.00  0.00     0.164 HD
ENDROOT
BRANCH   1   7
HETATM    7  C   UNL     1     -42.820  56.848 -54.831  1.00  0.00     0.045 A 
HETATM    8  C   UNL     1     -42.692  55.473 -54.521  1.00  0.00    -0.002 A 
HETATM    9  C   UNL     1     -43.304  54.412 -55.401  1.00  0.00     0.053 C 
HETATM   10  C   UNL     1     -42.023  55.101 -53.336  1.00  0.00     0.077 A 
HETATM   11  C   UNL     1     -41.403  56.058 -52.533  1.00  0.00     0.037 A 
HETATM   12  C   UNL     1     -41.495  57.404 -52.867  1.00  0.00     0.005 A 
HETATM   13  C   UNL     1     -42.208  57.795 -54.002  1.00  0.00     0.030 A 
BRANCH  10  14
HETATM   14  O   UNL     1     -41.968  53.765 -53.024  1.00  0.00    -0.345 OA
BRANCH  14  15
HETATM   15  C   UNL     1     -40.652  53.210 -53.005  1.00  0.00     0.129 C 
HETATM   16  C   UNL     1     -40.321  52.431 -51.732  1.00  0.00     0.032 C 
HETATM   17  C   UNL     1     -39.164  51.546 -52.162  1.00  0.00     0.002 C 
HETATM   18  C   UNL     1     -39.488  51.148 -53.598  1.00  0.00     0.002 C 
HETATM   19  C   UNL     1     -40.560  52.124 -54.080  1.00  0.00     0.032 C 
ENDBRANCH  14  15
ENDBRANCH  10  14
ENDBRANCH   1   7
BRANCH   3  20
HETATM   20  C   UNL     1     -43.977  58.947 -59.153  1.00  0.00     0.132 C 
BRANCH  20  21
HETATM   21  C   UNL     1     -43.934  58.100 -60.425  1.00  0.00     0.102 C 
BRANCH  21  22
HETATM   22  C   UNL     1     -44.465  56.725 -60.209  1.00  0.00     0.148 A 
HETATM   23  N   UNL     1     -45.764  56.477 -59.999  1.00  0.00    -0.158 NA
HETATM   24  N   UNL     1     -45.767  55.141 -59.872  1.00  0.00    -0.270 N 
HETATM   25  H   UNL     1     -46.644  54.658 -59.710  1.00  0.00     0.190 HD
HETATM   26  C   UNL     1     -44.512  54.633 -59.990  1.00  0.00     0.227 A 
HETATM   27  N   UNL     1     -43.661  55.609 -60.201  1.00  0.00    -0.226 NA
ENDBRANCH  21  22
ENDBRANCH  20  21
ENDBRANCH   3  20
TORSDOF 6
ENDMDL
MODEL 3
REMARK VINA RESULT:      -7.0      6.078      8.159
REMARK  6 active torsions:
REMARK  status: ('A' for Active; 'I' for Inactive)
REMARK    1  A    between atoms: C_3  and  O_4 
REMARK    2  A    between atoms: O_4  and  C_5 
REMARK    3  A    between atoms: C_13  and  N_14 
REMARK       I    between atoms: N_14  and  C_15 
REMARK       I    between atoms: C_15  and  N_16 
REMARK    4  A    between atoms: N_16  and  C_17 
REMARK    5  A    between atoms: C_17  and  C_18 
REMARK    6  A    between atoms: C_18  and  C_19 
ROOT
HETATM    1  N   UNL     1     -43.781  58.349 -50.981  1.00  0.00    -0.308 N 
HETATM    2  C   UNL     1     -43.757  59.726 -51.019  1.00  0.00     0.320 C 
HETATM    3  N   UNL     1     -44.062  60.246 -49.776  1.00  0.00    -0.342 N 
HETATM    4  O   UNL     1     -43.467  60.436 -51.972  1.00  0.00    -0.247 OA
HETATM    5  H   UNL     1     -43.810  57.971 -50.048  1.00  0.00     0.170 HD
HETATM    6  H   UNL     1     -44.770  59.738 -49.257  1.00  0.00     0.164 HD
ENDROOT
BRANCH   1   7
HETATM    7  C   UNL     1     -43.525  57.444 -52.040  1.00  0.00     0.045 A 
HETATM    8  C   UNL     1     -42.338  56.673 -52.014  1.00  0.00    -0.002 A 
HETATM    9  C   UNL     1     -41.364  56.774 -50.867  1.00  0.00     0.053 C 
HETATM   10  C   UNL     1     -42.045  55.838 -53.112  1.00  0.00     0.077 A 
HETATM   11  C   UNL     1     -42.953  55.686 -54.160  1.00  0.00     0.037 A 
HETATM   12  C   UNL     1     -44.138  56.412 -54.157  1.00  0.00     0.005 A 
HETATM   13  C   UNL     1     -44.415  57.293 -53.109  1.00  0.00     0.030 A 
BRANCH  10  14
HETATM   14  O   UNL     1     -40.857  55.149 -53.094  1.00  0.00    -0.345 OA
BRANCH  14  15
HETATM   15  C   UNL     1     -40.985  53.734 -53.240  1.00  0.00     0.129 C 
HETATM   16  C   UNL     1     -40.311  53.171 -54.491  1.00  0.00     0.032 C 
HETATM   17  C   UNL     1     -40.126  51.702 -54.152  1.00  0.00     0.002 C 
HETATM   18  C   UNL     1     -39.791  51.684 -52.663  1.00  0.00     0.002 C 
HETATM   19  C   UNL     1     -40.200  53.050 -52.116  1.00  0.00     0.032 C 
ENDBRANCH  14  15
ENDBRANCH  10  14
ENDBRANCH   1   7
BRANCH   3  20
HETATM   20  C   UNL     1     -44.098  61.687 -49.572  1.00  0.00     0.132 C 
BRANCH  20  21
HETATM   21  C   UNL     1     -45.277  62.140 -48.709  1.00  0.00     0.102 C 
BRANCH  21  22
HETATM   22  C   UNL     1     -45.420  61.323 -47.472  1.00  0.00     0.148 A 
HETATM   23  N   UNL     1     -46.136  60.191 -47.431  1.00  0.00    -0.158 NA
HETATM   24  N   UNL     1     -45.972  59.813 -46.154  1.00  0.00    -0.270 N 
HETATM   25  H   UNL     1     -46.408  58.957 -45.828  1.00  0.00     0.190 HD
HETATM   26  C   UNL     1     -45.201  60.701 -45.474  1.00  0.00     0.227 A 
HETATM   27  N   UNL     1     -44.835  61.672 -46.276  1.00  0.00    -0.226 NA
ENDBRANCH  21  22
ENDBRANCH  20  21
ENDBRANCH   3  20
TORSDOF 6
ENDMDL
MODEL 4
REMARK VINA RESULT:      -7.0      2.018      2.507
REMARK  6 active torsions:
REMARK  status: ('A' for Active; 'I' for Inactive)
REMARK    1  A    between atoms: C_3  and  O_4 
REMARK    2  A    between atoms: O_4  and  C_5 
REMARK    3  A    between atoms: C_13  and  N_14 
REMARK       I    between atoms: N_14  and  C_15 
REMARK       I    between atoms: C_15  and  N_16 
REMARK    4  A    between atoms: N_16  and  C_17 
REMARK    5  A    between atoms: C_17  and  C_18 
REMARK    6  A    between atoms: C_18  and  C_19 
ROOT
HETATM    1  N   UNL     1     -42.864  57.249 -53.328  1.00  0.00    -0.308 N 
HETATM    2  C   UNL     1     -43.972  57.387 -54.135  1.00  0.00     0.320 C 
HETATM    3  N   UNL     1     -43.959  58.618 -54.761  1.00  0.00    -0.342 N 
HETATM    4  O   UNL     1     -44.845  56.555 -54.344  1.00  0.00    -0.247 OA
HETATM    5  H   UNL     1     -42.160  57.952 -53.485  1.00  0.00     0.170 HD
HETATM    6  H   UNL     1     -43.610  59.386 -54.198  1.00  0.00     0.164 HD
ENDROOT
BRANCH   1   7
HETATM    7  C   UNL     1     -42.507  56.142 -52.521  1.00  0.00     0.045 A 
HETATM    8  C   UNL     1     -41.417  55.328 -52.913  1.00  0.00    -0.002 A 
HETATM    9  C   UNL     1     -40.614  55.638 -54.152  1.00  0.00     0.053 C 
HETATM   10  C   UNL     1     -41.119  54.177 -52.155  1.00  0.00     0.077 A 
HETATM   11  C   UNL     1     -41.811  53.896 -50.977  1.00  0.00     0.037 A 
HETATM   12  C   UNL     1     -42.851  54.725 -50.573  1.00  0.00     0.005 A 
HETATM   13  C   UNL     1     -43.202  55.833 -51.346  1.00  0.00     0.030 A 
BRANCH  10  14
HETATM   14  O   UNL     1     -40.099  53.368 -52.592  1.00  0.00    -0.345 OA
BRANCH  14  15
HETATM   15  C   UNL     1     -40.495  52.037 -52.927  1.00  0.00     0.129 C 
HETATM   16  C   UNL     1     -40.281  51.673 -54.396  1.00  0.00     0.032 C 
HETATM   17  C   UNL     1     -40.259  50.154 -54.375  1.00  0.00     0.002 C 
HETATM   18  C   UNL     1     -39.548  49.792 -53.075  1.00  0.00     0.002 C 
HETATM   19  C   UNL     1     -39.564  51.053 -52.213  1.00  0.00     0.032 C 
ENDBRANCH  14  15
ENDBRANCH  10  14
ENDBRANCH   1   7
BRANCH   3  20
HETATM   20  C   UNL     1     -45.036  58.991 -55.669  1.00  0.00     0.132 C 
BRANCH  20  21
HETATM   21  C   UNL     1     -44.574  59.130 -57.120  1.00  0.00     0.102 C 
BRANCH  21  22
HETATM   22  C   UNL     1     -44.350  57.811 -57.772  1.00  0.00     0.148 A 
HETATM   23  N   UNL     1     -45.223  57.272 -58.634  1.00  0.00    -0.158 NA
HETATM   24  N   UNL     1     -44.611  56.123 -58.959  1.00  0.00    -0.270 N 
HETATM   25  H   UNL     1     -45.050  55.495 -59.622  1.00  0.00     0.190 HD
HETATM   26  C   UNL     1     -43.431  55.992 -58.297  1.00  0.00     0.227 A 
HETATM   27  N   UNL     1     -43.234  57.041 -57.534  1.00  0.00    -0.226 NA
ENDBRANCH  21  22
ENDBRANCH  20  21
ENDBRANCH   3  20
TORSDOF 6
ENDMDL
MODEL 5
REMARK VINA RESULT:      -6.8     15.156     17.552
REMARK  6 active torsions:
REMARK  status: ('A' for Active; 'I' for Inactive)
REMARK    1  A    between atoms: C_3  and  O_4 
REMARK    2  A    between atoms: O_4  and  C_5 
REMARK    3  A    between atoms: C_13  and  N_14 
REMARK       I    between atoms: N_14  and  C_15 
REMARK       I    between atoms: C_15  and  N_16 
REMARK    4  A    between atoms: N_16  and  C_17 
REMARK    5  A    between atoms: C_17  and  C_18 
REMARK    6  A    between atoms: C_18  and  C_19 
ROOT
HETATM    1  N   UNL     1     -37.944  39.313 -50.248  1.00  0.00    -0.308 N 
HETATM    2  C   UNL     1     -38.163  39.070 -48.910  1.00  0.00     0.320 C 
HETATM    3  N   UNL     1     -39.306  38.313 -48.740  1.00  0.00    -0.342 N 
HETATM    4  O   UNL     1     -37.456  39.408 -47.970  1.00  0.00    -0.247 OA
HETATM    5  H   UNL     1     -38.511  38.748 -50.860  1.00  0.00     0.170 HD
HETATM    6  H   UNL     1     -40.067  38.531 -49.375  1.00  0.00     0.164 HD
ENDROOT
BRANCH   1   7
HETATM    7  C   UNL     1     -36.886  40.045 -50.839  1.00  0.00     0.045 A 
HETATM    8  C   UNL     1     -37.172  40.927 -51.908  1.00  0.00    -0.002 A 
HETATM    9  C   UNL     1     -38.583  41.124 -52.404  1.00  0.00     0.053 C 
HETATM   10  C   UNL     1     -36.104  41.588 -52.550  1.00  0.00     0.077 A 
HETATM   11  C   UNL     1     -34.798  41.466 -52.078  1.00  0.00     0.037 A 
HETATM   12  C   UNL     1     -34.529  40.632 -50.999  1.00  0.00     0.005 A 
HETATM   13  C   UNL     1     -35.565  39.920 -50.391  1.00  0.00     0.030 A 
BRANCH  10  14
HETATM   14  O   UNL     1     -36.401  42.389 -53.626  1.00  0.00    -0.345 OA
BRANCH  14  15
HETATM   15  C   UNL     1     -36.207  41.772 -54.900  1.00  0.00     0.129 C 
HETATM   16  C   UNL     1     -37.298  42.092 -55.921  1.00  0.00     0.032 C 
HETATM   17  C   UNL     1     -36.624  41.796 -57.250  1.00  0.00     0.002 C 
HETATM   18  C   UNL     1     -35.178  42.244 -57.063  1.00  0.00     0.002 C 
HETATM   19  C   UNL     1     -34.964  42.380 -55.556  1.00  0.00     0.032 C 
ENDBRANCH  14  15
ENDBRANCH  10  14
ENDBRANCH   1   7
BRANCH   3  20
HETATM   20  C   UNL     1     -39.741  37.930 -47.404  1.00  0.00     0.132 C 
BRANCH  20  21
HETATM   21  C   UNL     1     -41.197  38.302 -47.120  1.00  0.00     0.102 C 
BRANCH  21  22
HETATM   22  C   UNL     1     -41.317  39.412 -46.135  1.00  0.00     0.148 A 
HETATM   23  N   UNL     1     -41.971  40.550 -46.403  1.00  0.00    -0.158 NA
HETATM   24  N   UNL     1     -41.826  41.224 -45.252  1.00  0.00    -0.270 N 
HETATM   25  H   UNL     1     -42.240  42.145 -45.159  1.00  0.00     0.190 HD
HETATM   26  C   UNL     1     -41.102  40.508 -44.352  1.00  0.00     0.227 A 
HETATM   27  N   UNL     1     -40.760  39.356 -44.878  1.00  0.00    -0.226 NA
ENDBRANCH  21  22
ENDBRANCH  20  21
ENDBRANCH   3  20
TORSDOF 6
ENDMDL
MODEL 6
REMARK VINA RESULT:      -6.7      2.178      2.897
REMARK  6 active torsions:
REMARK  status: ('A' for Active; 'I' for Inactive)
REMARK    1  A    between atoms: C_3  and  O_4 
REMARK    2  A    between atoms: O_4  and  C_5 
REMARK    3  A    between atoms: C_13  and  N_14 
REMARK       I    between atoms: N_14  and  C_15 
REMARK       I    between atoms: C_15  and  N_16 
REMARK    4  A    between atoms: N_16  and  C_17 
REMARK    5  A    between atoms: C_17  and  C_18 
REMARK    6  A    between atoms: C_18  and  C_19 
ROOT
HETATM    1  N   UNL     1     -43.472  56.429 -56.147  1.00  0.00    -0.308 N 
HETATM    2  C   UNL     1     -43.249  57.410 -57.088  1.00  0.00     0.320 C 
HETATM    3  N   UNL     1     -44.446  57.831 -57.635  1.00  0.00    -0.342 N 
HETATM    4  O   UNL     1     -42.176  57.909 -57.400  1.00  0.00    -0.247 OA
HETATM    5  H   UNL     1     -44.438  56.338 -55.880  1.00  0.00     0.170 HD
HETATM    6  H   UNL     1     -45.137  57.102 -57.776  1.00  0.00     0.164 HD
ENDROOT
BRANCH   1   7
HETATM    7  C   UNL     1     -42.514  55.742 -55.363  1.00  0.00     0.045 A 
HETATM    8  C   UNL     1     -42.325  56.126 -54.014  1.00  0.00    -0.002 A 
HETATM    9  C   UNL     1     -43.146  57.228 -53.392  1.00  0.00     0.053 C 
HETATM   10  C   UNL     1     -41.311  55.498 -53.262  1.00  0.00     0.077 A 
HETATM   11  C   UNL     1     -40.573  54.441 -53.796  1.00  0.00     0.037 A 
HETATM   12  C   UNL     1     -40.795  54.039 -55.107  1.00  0.00     0.005 A 
HETATM   13  C   UNL     1     -41.751  54.692 -55.887  1.00  0.00     0.030 A 
BRANCH  10  14
HETATM   14  O   UNL     1     -41.104  55.933 -51.976  1.00  0.00    -0.345 OA
BRANCH  14  15
HETATM   15  C   UNL     1     -41.316  54.942 -50.969  1.00  0.00     0.129 C 
HETATM   16  C   UNL     1     -40.127  54.007 -50.752  1.00  0.00     0.032 C 
HETATM   17  C   UNL     1     -40.377  53.449 -49.361  1.00  0.00     0.002 C 
HETATM   18  C   UNL     1     -40.973  54.613 -48.575  1.00  0.00     0.002 C 
HETATM   19  C   UNL     1     -41.430  55.639 -49.610  1.00  0.00     0.032 C 
ENDBRANCH  14  15
ENDBRANCH  10  14
ENDBRANCH   1   7
BRANCH   3  20
HETATM   20  C   UNL     1     -44.461  58.868 -58.658  1.00  0.00     0.132 C 
BRANCH  20  21
HETATM   21  C   UNL     1     -44.667  58.314 -60.068  1.00  0.00     0.102 C 
BRANCH  21  22
HETATM   22  C   UNL     1     -44.880  56.840 -60.073  1.00  0.00     0.148 A 
HETATM   23  N   UNL     1     -46.058  56.279 -59.770  1.00  0.00    -0.158 NA
HETATM   24  N   UNL     1     -45.781  54.973 -59.915  1.00  0.00    -0.270 N 
HETATM   25  H   UNL     1     -46.511  54.289 -59.754  1.00  0.00     0.190 HD
HETATM   26  C   UNL     1     -44.484  54.784 -60.274  1.00  0.00     0.227 A 
HETATM   27  N   UNL     1     -43.882  55.944 -60.381  1.00  0.00    -0.226 NA
ENDBRANCH  21  22
ENDBRANCH  20  21
ENDBRANCH   3  20
TORSDOF 6
ENDMDL
MODEL 7
REMARK VINA RESULT:      -6.7      2.210      2.995
REMARK  6 active torsions:
REMARK  status: ('A' for Active; 'I' for Inactive)
REMARK    1  A    between atoms: C_3  and  O_4 
REMARK    2  A    between atoms: O_4  and  C_5 
REMARK    3  A    between atoms: C_13  and  N_14 
REMARK       I    between atoms: N_14  and  C_15 
REMARK       I    between atoms: C_15  and  N_16 
REMARK    4  A    between atoms: N_16  and  C_17 
REMARK    5  A    between atoms: C_17  and  C_18 
REMARK    6  A    between atoms: C_18  and  C_19 
ROOT
HETATM    1  N   UNL     1     -44.182  56.321 -55.701  1.00  0.00    -0.308 N 
HETATM    2  C   UNL     1     -43.241  56.507 -56.691  1.00  0.00     0.320 C 
HETATM    3  N   UNL     1     -43.770  56.181 -57.924  1.00  0.00    -0.342 N 
HETATM    4  O   UNL     1     -42.105  56.943 -56.560  1.00  0.00    -0.247 OA
HETATM    5  H   UNL     1     -45.116  56.185 -56.053  1.00  0.00     0.170 HD
HETATM    6  H   UNL     1     -44.399  55.384 -57.928  1.00  0.00     0.164 HD
ENDROOT
BRANCH   1   7
HETATM    7  C   UNL     1     -44.038  56.542 -54.310  1.00  0.00     0.045 A 
HETATM    8  C   UNL     1     -43.493  55.514 -53.503  1.00  0.00    -0.002 A 
HETATM    9  C   UNL     1     -43.036  54.208 -54.103  1.00  0.00     0.053 C 
HETATM   10  C   UNL     1     -43.432  55.704 -52.107  1.00  0.00     0.077 A 
HETATM   11  C   UNL     1     -43.799  56.921 -51.533  1.00  0.00     0.037 A 
HETATM   12  C   UNL     1     -44.291  57.942 -52.336  1.00  0.00     0.005 A 
HETATM   13  C   UNL     1     -44.419  57.749 -53.713  1.00  0.00     0.030 A 
BRANCH  10  14
HETATM   14  O   UNL     1     -42.960  54.667 -51.340  1.00  0.00    -0.345 OA
BRANCH  14  15
HETATM   15  C   UNL     1     -41.624  54.837 -50.864  1.00  0.00     0.129 C 
HETATM   16  C   UNL     1     -41.469  54.642 -49.356  1.00  0.00     0.032 C 
HETATM   17  C   UNL     1     -39.987  54.349 -49.198  1.00  0.00     0.002 C 
HETATM   18  C   UNL     1     -39.621  53.514 -50.421  1.00  0.00     0.002 C 
HETATM   19  C   UNL     1     -40.755  53.707 -51.426  1.00  0.00     0.032 C 
ENDBRANCH  14  15
ENDBRANCH  10  14
ENDBRANCH   1   7
BRANCH   3  20
HETATM   20  C   UNL     1     -42.957  56.299 -59.126  1.00  0.00     0.132 C 
BRANCH  20  21
HETATM   21  C   UNL     1     -43.667  57.042 -60.258  1.00  0.00     0.102 C 
BRANCH  21  22
HETATM   22  C   UNL     1     -45.144  56.866 -60.213  1.00  0.00     0.148 A 
HETATM   23  N   UNL     1     -45.726  55.669 -60.054  1.00  0.00    -0.158 NA
HETATM   24  N   UNL     1     -47.027  55.997 -60.065  1.00  0.00    -0.270 N 
HETATM   25  H   UNL     1     -47.725  55.269 -59.951  1.00  0.00     0.190 HD
HETATM   26  C   UNL     1     -47.195  57.334 -60.239  1.00  0.00     0.227 A 
HETATM   27  N   UNL     1     -46.024  57.916 -60.339  1.00  0.00    -0.226 NA
ENDBRANCH  21  22
ENDBRANCH  20  21
ENDBRANCH   3  20
TORSDOF 6
ENDMDL
MODEL 8
REMARK VINA RESULT:      -6.5     16.159     20.092
REMARK  6 active torsions:
REMARK  status: ('A' for Active; 'I' for Inactive)
REMARK    1  A    between atoms: C_3  and  O_4 
REMARK    2  A    between atoms: O_4  and  C_5 
REMARK    3  A    between atoms: C_13  and  N_14 
REMARK       I    between atoms: N_14  and  C_15 
REMARK       I    between atoms: C_15  and  N_16 
REMARK    4  A    between atoms: N_16  and  C_17 
REMARK    5  A    between atoms: C_17  and  C_18 
REMARK    6  A    between atoms: C_18  and  C_19 
ROOT
HETATM    1  N   UNL     1     -31.605  39.958 -50.276  1.00  0.00    -0.308 N 
HETATM    2  C   UNL     1     -31.901  39.351 -49.076  1.00  0.00     0.320 C 
HETATM    3  N   UNL     1     -31.071  39.826 -48.079  1.00  0.00    -0.342 N 
HETATM    4  O   UNL     1     -32.791  38.539 -48.855  1.00  0.00    -0.247 OA
HETATM    5  H   UNL     1     -31.001  40.759 -50.185  1.00  0.00     0.170 HD
HETATM    6  H   UNL     1     -30.115  40.007 -48.364  1.00  0.00     0.164 HD
ENDROOT
BRANCH   1   7
HETATM    7  C   UNL     1     -32.222  39.750 -51.533  1.00  0.00     0.045 A 
HETATM    8  C   UNL     1     -33.328  40.555 -51.898  1.00  0.00    -0.002 A 
HETATM    9  C   UNL     1     -33.835  41.646 -50.989  1.00  0.00     0.053 C 
HETATM   10  C   UNL     1     -33.994  40.288 -53.112  1.00  0.00     0.077 A 
HETATM   11  C   UNL     1     -33.514  39.320 -53.995  1.00  0.00     0.037 A 
HETATM   12  C   UNL     1     -32.401  38.564 -53.651  1.00  0.00     0.005 A 
HETATM   13  C   UNL     1     -31.766  38.771 -52.424  1.00  0.00     0.030 A 
BRANCH  10  14
HETATM   14  O   UNL     1     -35.103  41.039 -53.413  1.00  0.00    -0.345 OA
BRANCH  14  15
HETATM   15  C   UNL     1     -35.510  40.982 -54.781  1.00  0.00     0.129 C 
HETATM   16  C   UNL     1     -36.905  41.550 -55.042  1.00  0.00     0.032 C 
HETATM   17  C   UNL     1     -36.878  41.858 -56.529  1.00  0.00     0.002 C 
HETATM   18  C   UNL     1     -35.460  42.353 -56.800  1.00  0.00     0.002 C 
HETATM   19  C   UNL     1     -34.621  41.924 -55.599  1.00  0.00     0.032 C 
ENDBRANCH  14  15
ENDBRANCH  10  14
ENDBRANCH   1   7
BRANCH   3  20
HETATM   20  C   UNL     1     -31.200  39.326 -46.717  1.00  0.00     0.132 C 
BRANCH  20  21
HETATM   21  C   UNL     1     -29.853  39.005 -46.068  1.00  0.00     0.102 C 
BRANCH  21  22
HETATM   22  C   UNL     1     -28.715  39.660 -46.771  1.00  0.00     0.148 A 
HETATM   23  N   UNL     1     -28.526  40.986 -46.762  1.00  0.00    -0.158 NA
HETATM   24  N   UNL     1     -27.407  41.106 -47.493  1.00  0.00    -0.270 N 
HETATM   25  H   UNL     1     -27.012  42.026 -47.652  1.00  0.00     0.190 HD
HETATM   26  C   UNL     1     -26.970  39.893 -47.923  1.00  0.00     0.227 A 
HETATM   27  N   UNL     1     -27.775  38.954 -47.487  1.00  0.00    -0.226 NA
ENDBRANCH  21  22
ENDBRANCH  20  21
ENDBRANCH   3  20
TORSDOF 6
ENDMDL
MODEL 9
REMARK VINA RESULT:      -6.5     14.734     16.793
REMARK  6 active torsions:
REMARK  status: ('A' for Active; 'I' for Inactive)
REMARK    1  A    between atoms: C_3  and  O_4 
REMARK    2  A    between atoms: O_4  and  C_5 
REMARK    3  A    between atoms: C_13  and  N_14 
REMARK       I    between atoms: N_14  and  C_15 
REMARK       I    between atoms: C_15  and  N_16 
REMARK    4  A    between atoms: N_16  and  C_17 
REMARK    5  A    between atoms: C_17  and  C_18 
REMARK    6  A    between atoms: C_18  and  C_19 
ROOT
HETATM    1  N   UNL     1     -37.697  40.946 -52.930  1.00  0.00    -0.308 N 
HETATM    2  C   UNL     1     -37.576  39.720 -52.314  1.00  0.00     0.320 C 
HETATM    3  N   UNL     1     -38.448  39.631 -51.246  1.00  0.00    -0.342 N 
HETATM    4  O   UNL     1     -36.854  38.790 -52.649  1.00  0.00    -0.247 OA
HETATM    5  H   UNL     1     -38.510  41.465 -52.640  1.00  0.00     0.170 HD
HETATM    6  H   UNL     1     -38.569  40.486 -50.715  1.00  0.00     0.164 HD
ENDROOT
BRANCH   1   7
HETATM    7  C   UNL     1     -36.986  41.429 -54.055  1.00  0.00     0.045 A 
HETATM    8  C   UNL     1     -37.646  41.508 -55.305  1.00  0.00    -0.002 A 
HETATM    9  C   UNL     1     -39.096  41.119 -55.450  1.00  0.00     0.053 C 
HETATM   10  C   UNL     1     -36.911  41.906 -56.440  1.00  0.00     0.077 A 
HETATM   11  C   UNL     1     -35.584  42.322 -56.325  1.00  0.00     0.037 A 
HETATM   12  C   UNL     1     -34.954  42.284 -55.087  1.00  0.00     0.005 A 
HETATM   13  C   UNL     1     -35.648  41.831 -53.963  1.00  0.00     0.030 A 
BRANCH  10  14
HETATM   14  O   UNL     1     -37.556  41.913 -57.652  1.00  0.00    -0.345 OA
BRANCH  14  15
HETATM   15  C   UNL     1     -37.197  40.841 -58.526  1.00  0.00     0.129 C 
HETATM   16  C   UNL     1     -38.224  39.711 -58.582  1.00  0.00     0.032 C 
HETATM   17  C   UNL     1     -37.900  39.017 -59.894  1.00  0.00     0.002 C 
HETATM   18  C   UNL     1     -37.504  40.143 -60.844  1.00  0.00     0.002 C 
HETATM   19  C   UNL     1     -37.207  41.358 -59.968  1.00  0.00     0.032 C 
ENDBRANCH  14  15
ENDBRANCH  10  14
ENDBRANCH   1   7
BRANCH   3  20
HETATM   20  C   UNL     1     -38.499  38.420 -50.439  1.00  0.00     0.132 C 
BRANCH  20  21
HETATM   21  C   UNL     1     -39.849  38.216 -49.750  1.00  0.00     0.102 C 
BRANCH  21  22
HETATM   22  C   UNL     1     -40.984  38.230 -50.713  1.00  0.00     0.148 A 
HETATM   23  N   UNL     1     -41.700  39.332 -50.973  1.00  0.00    -0.158 NA
HETATM   24  N   UNL     1     -42.579  38.877 -51.879  1.00  0.00    -0.270 N 
HETATM   25  H   UNL     1     -43.262  39.515 -52.274  1.00  0.00     0.190 HD
HETATM   26  C   UNL     1     -42.389  37.555 -52.127  1.00  0.00     0.227 A 
HETATM   27  N   UNL     1     -41.389  37.110 -51.404  1.00  0.00    -0.226 NA
ENDBRANCH  21  22
ENDBRANCH  20  21
ENDBRANCH   3  20
TORSDOF 6
ENDMDL
MODEL 10
REMARK VINA RESULT:      -6.4     14.998     17.164
REMARK  6 active torsions:
REMARK  status: ('A' for Active; 'I' for Inactive)
REMARK    1  A    between atoms: C_3  and  O_4 
REMARK    2  A    between atoms: O_4  and  C_5 
REMARK    3  A    between atoms: C_13  and  N_14 
REMARK       I    between atoms: N_14  and  C_15 
REMARK       I    between atoms: C_15  and  N_16 
REMARK    4  A    between atoms: N_16  and  C_17 
REMARK    5  A    between atoms: C_17  and  C_18 
REMARK    6  A    between atoms: C_18  and  C_19 
ROOT
HETATM    1  N   UNL     1     -37.581  39.927 -50.573  1.00  0.00    -0.308 N 
HETATM    2  C   UNL     1     -38.059  38.645 -50.411  1.00  0.00     0.320 C 
HETATM    3  N   UNL     1     -38.869  38.571 -49.294  1.00  0.00    -0.342 N 
HETATM    4  O   UNL     1     -37.868  37.684 -51.145  1.00  0.00    -0.247 OA
HETATM    5  H   UNL     1     -38.048  40.608 -49.996  1.00  0.00     0.170 HD
HETATM    6  H   UNL     1     -38.567  39.133 -48.504  1.00  0.00     0.164 HD
ENDROOT
BRANCH   1   7
HETATM    7  C   UNL     1     -36.726  40.415 -51.589  1.00  0.00     0.045 A 
HETATM    8  C   UNL     1     -37.293  41.063 -52.714  1.00  0.00    -0.002 A 
HETATM    9  C   UNL     1     -38.783  41.268 -52.829  1.00  0.00     0.053 C 
HETATM   10  C   UNL     1     -36.446  41.470 -53.764  1.00  0.00     0.077 A 
HETATM   11  C   UNL     1     -35.061  41.340 -53.660  1.00  0.00     0.037 A 
HETATM   12  C   UNL     1     -34.507  40.744 -52.533  1.00  0.00     0.005 A 
HETATM   13  C   UNL     1     -35.335  40.276 -51.511  1.00  0.00     0.030 A 
BRANCH  10  14
HETATM   14  O   UNL     1     -37.026  42.037 -54.872  1.00  0.00    -0.345 OA
BRANCH  14  15
HETATM   15  C   UNL     1     -36.974  41.232 -56.051  1.00  0.00     0.129 C 
HETATM   16  C   UNL     1     -38.345  40.854 -56.611  1.00  0.00     0.032 C 
HETATM   17  C   UNL     1     -38.042  40.499 -58.056  1.00  0.00     0.002 C 
HETATM   18  C   UNL     1     -36.954  41.481 -58.480  1.00  0.00     0.002 C 
HETATM   19  C   UNL     1     -36.380  42.066 -57.190  1.00  0.00     0.032 C 
ENDBRANCH  14  15
ENDBRANCH  10  14
ENDBRANCH   1   7
BRANCH   3  20
HETATM   20  C   UNL     1     -39.491  37.309 -48.920  1.00  0.00     0.132 C 
BRANCH  20  21
HETATM   21  C   UNL     1     -40.982  37.445 -48.610  1.00  0.00     0.102 C 
BRANCH  21  22
HETATM   22  C   UNL     1     -41.763  37.926 -49.783  1.00  0.00     0.148 A 
HETATM   23  N   UNL     1     -42.879  38.657 -49.659  1.00  0.00    -0.158 NA
HETATM   24  N   UNL     1     -43.216  38.858 -50.942  1.00  0.00    -0.270 N 
HETATM   25  H   UNL     1     -44.041  39.405 -51.160  1.00  0.00     0.190 HD
HETATM   26  C   UNL     1     -42.334  38.254 -51.781  1.00  0.00     0.227 A 
HETATM   27  N   UNL     1     -41.402  37.651 -51.082  1.00  0.00    -0.226 NA
ENDBRANCH  21  22
ENDBRANCH  20  21
ENDBRANCH   3  20
TORSDOF 6
ENDMDL
