MODEL 1
REMARK VINA RESULT:      -8.3      0.000      0.000
REMARK  3 active torsions:
REMARK  status: ('A' for Active; 'I' for Inactive)
REMARK    1  A    between atoms: C_9  and  C_10 
REMARK    2  A    between atoms: C_16  and  C_17 
REMARK       I    between atoms: C_17  and  N_18 
REMARK    3  A    between atoms: N_18  and  C_19 
ROOT
HETATM    1  C   UNL     1     -41.619  54.840 -49.136  1.00  0.00     0.070 C 
HETATM    2  C   UNL     1     -41.456  55.844 -50.252  1.00  0.00     0.037 C 
HETATM    3  N   UNL     1     -41.279  57.165 -49.850  1.00  0.00    -0.191 N 
HETATM    4  C   UNL     1     -40.866  58.135 -50.691  1.00  0.00     0.735 A 
HETATM    5  N   UNL     1     -40.771  57.863 -52.027  1.00  0.00    -0.092 N 
HETATM    6  N   UNL     1     -40.285  58.926 -52.685  1.00  0.00     0.012 NA
HETATM    7  N   UNL     1     -40.122  59.852 -51.745  1.00  0.00     0.033 NA
HETATM    8  N   UNL     1     -40.481  59.373 -50.499  1.00  0.00     0.030 NA
HETATM    9  C   UNL     1     -41.121  56.586 -52.640  1.00  0.00     0.199 C 
HETATM   10  C   UNL     1     -41.402  55.532 -51.571  1.00  0.00     0.062 C 
HETATM   11  H   UNL     1     -41.239  57.350 -48.849  1.00  0.00     0.184 HD
ENDROOT
BRANCH  10  12
HETATM   12  C   UNL     1     -41.479  54.145 -52.101  1.00  0.00     0.256 C 
HETATM   13  N   UNL     1     -40.274  53.481 -52.102  1.00  0.00    -0.322 N 
HETATM   14  H   UNL     1     -39.473  53.960 -51.708  1.00  0.00     0.169 HD
HETATM   15  O   UNL     1     -42.570  53.699 -52.426  1.00  0.00    -0.267 OA
BRANCH  13  16
HETATM   16  C   UNL     1     -40.034  52.186 -52.612  1.00  0.00     0.052 A 
HETATM   17  C   UNL     1     -39.678  51.076 -51.849  1.00  0.00     0.145 A 
HETATM   18  N   UNL     1     -39.477  49.834 -52.360  1.00  0.00    -0.271 NA
HETATM   19  C   UNL     1     -39.639  49.686 -53.689  1.00  0.00     0.116 A 
HETATM   20  C   UNL     1     -39.991  50.723 -54.535  1.00  0.00     0.021 A 
HETATM   21  C   UNL     1     -40.188  51.989 -53.986  1.00  0.00     0.032 A 
ENDBRANCH  13  16
ENDBRANCH  10  12
BRANCH   9  22
HETATM   22  C   UNL     1     -42.296  56.745 -53.591  1.00  0.00    -0.011 A 
HETATM   23  C   UNL     1     -42.163  56.604 -54.973  1.00  0.00     0.125 A 
HETATM   24  N   UNL     1     -43.171  56.789 -55.855  1.00  0.00    -0.272 NA
HETATM   25  C   UNL     1     -44.378  57.112 -55.347  1.00  0.00     0.116 A 
HETATM   26  C   UNL     1     -44.618  57.283 -53.994  1.00  0.00     0.020 A 
HETATM   27  C   UNL     1     -43.560  57.103 -53.108  1.00  0.00     0.012 A 
ENDBRANCH   9  22
TORSDOF 3
ENDMDL
MODEL 2
REMARK VINA RESULT:      -7.7      1.880      4.241
REMARK  3 active torsions:
REMARK  status: ('A' for Active; 'I' for Inactive)
REMARK    1  A    between atoms: C_9  and  C_10 
REMARK    2  A    between atoms: C_16  and  C_17 
REMARK       I    between atoms: C_17  and  N_18 
REMARK    3  A    between atoms: N_18  and  C_19 
ROOT
HETATM    1  C   UNL     1     -42.879  55.164 -56.606  1.00  0.00     0.070 C 
HETATM    2  C   UNL     1     -43.144  56.326 -55.680  1.00  0.00     0.037 C 
HETATM    3  N   UNL     1     -43.631  57.480 -56.290  1.00  0.00    -0.191 N 
HETATM    4  C   UNL     1     -44.158  58.507 -55.593  1.00  0.00     0.735 A 
HETATM    5  N   UNL     1     -44.070  58.503 -54.230  1.00  0.00    -0.092 N 
HETATM    6  N   UNL     1     -44.705  59.568 -53.718  1.00  0.00     0.012 NA
HETATM    7  N   UNL     1     -45.144  60.234 -54.782  1.00  0.00     0.033 NA
HETATM    8  N   UNL     1     -44.810  59.584 -55.956  1.00  0.00     0.030 NA
HETATM    9  C   UNL     1     -43.405  57.467 -53.444  1.00  0.00     0.199 C 
HETATM   10  C   UNL     1     -43.009  56.288 -54.330  1.00  0.00     0.062 C 
HETATM   11  H   UNL     1     -43.801  57.444 -57.294  1.00  0.00     0.184 HD
ENDROOT
BRANCH  10  12
HETATM   12  C   UNL     1     -42.596  55.079 -53.571  1.00  0.00     0.256 C 
HETATM   13  N   UNL     1     -41.262  54.766 -53.704  1.00  0.00    -0.322 N 
HETATM   14  H   UNL     1     -40.684  55.394 -54.249  1.00  0.00     0.169 HD
HETATM   15  O   UNL     1     -43.423  54.514 -52.869  1.00  0.00    -0.267 OA
BRANCH  13  16
HETATM   16  C   UNL     1     -40.611  53.639 -53.158  1.00  0.00     0.052 A 
HETATM   17  C   UNL     1     -40.315  53.457 -51.809  1.00  0.00     0.145 A 
HETATM   18  N   UNL     1     -39.709  52.351 -51.304  1.00  0.00    -0.271 NA
HETATM   19  C   UNL     1     -39.383  51.379 -52.179  1.00  0.00     0.116 A 
HETATM   20  C   UNL     1     -39.632  51.461 -53.538  1.00  0.00     0.021 A 
HETATM   21  C   UNL     1     -40.252  52.609 -54.030  1.00  0.00     0.032 A 
ENDBRANCH  13  16
ENDBRANCH  10  12
BRANCH   9  22
HETATM   22  C   UNL     1     -42.207  58.035 -52.702  1.00  0.00    -0.011 A 
HETATM   23  C   UNL     1     -41.122  58.610 -53.364  1.00  0.00     0.125 A 
HETATM   24  N   UNL     1     -40.015  59.078 -52.743  1.00  0.00    -0.272 NA
HETATM   25  C   UNL     1     -39.985  58.991 -51.397  1.00  0.00     0.116 A 
HETATM   26  C   UNL     1     -41.004  58.434 -50.643  1.00  0.00     0.020 A 
HETATM   27  C   UNL     1     -42.125  57.944 -51.307  1.00  0.00     0.012 A 
ENDBRANCH   9  22
TORSDOF 3
ENDMDL
MODEL 3
REMARK VINA RESULT:      -7.7      2.356      4.881
REMARK  3 active torsions:
REMARK  status: ('A' for Active; 'I' for Inactive)
REMARK    1  A    between atoms: C_9  and  C_10 
REMARK    2  A    between atoms: C_16  and  C_17 
REMARK       I    between atoms: C_17  and  N_18 
REMARK    3  A    between atoms: N_18  and  C_19 
ROOT
HETATM    1  C   UNL     1     -40.773  53.836 -55.069  1.00  0.00     0.070 C 
HETATM    2  C   UNL     1     -41.666  55.048 -55.176  1.00  0.00     0.037 C 
HETATM    3  N   UNL     1     -41.776  55.602 -56.449  1.00  0.00    -0.191 N 
HETATM    4  C   UNL     1     -42.717  56.513 -56.770  1.00  0.00     0.735 A 
HETATM    5  N   UNL     1     -43.495  57.045 -55.781  1.00  0.00    -0.092 N 
HETATM    6  N   UNL     1     -44.408  57.877 -56.303  1.00  0.00     0.012 NA
HETATM    7  N   UNL     1     -44.153  57.873 -57.608  1.00  0.00     0.033 NA
HETATM    8  N   UNL     1     -43.102  57.027 -57.912  1.00  0.00     0.030 NA
HETATM    9  C   UNL     1     -43.366  56.726 -54.362  1.00  0.00     0.199 C 
HETATM   10  C   UNL     1     -42.396  55.565 -54.155  1.00  0.00     0.062 C 
HETATM   11  H   UNL     1     -41.281  55.135 -57.208  1.00  0.00     0.184 HD
ENDROOT
BRANCH  10  12
HETATM   12  C   UNL     1     -42.430  54.991 -52.785  1.00  0.00     0.256 C 
HETATM   13  N   UNL     1     -41.324  55.295 -52.024  1.00  0.00    -0.322 N 
HETATM   14  H   UNL     1     -40.626  55.906 -52.433  1.00  0.00     0.169 HD
HETATM   15  O   UNL     1     -43.423  54.370 -52.432  1.00  0.00    -0.267 OA
BRANCH  13  16
HETATM   16  C   UNL     1     -41.053  54.829 -50.720  1.00  0.00     0.052 A 
HETATM   17  C   UNL     1     -41.283  55.545 -49.547  1.00  0.00     0.145 A 
HETATM   18  N   UNL     1     -41.038  55.066 -48.301  1.00  0.00    -0.271 NA
HETATM   19  C   UNL     1     -40.543  53.815 -48.213  1.00  0.00     0.116 A 
HETATM   20  C   UNL     1     -40.278  53.021 -49.315  1.00  0.00     0.021 A 
HETATM   21  C   UNL     1     -40.536  53.539 -50.583  1.00  0.00     0.032 A 
ENDBRANCH  13  16
ENDBRANCH  10  12
BRANCH   9  22
HETATM   22  C   UNL     1     -42.950  57.952 -53.566  1.00  0.00    -0.011 A 
HETATM   23  C   UNL     1     -41.733  58.601 -53.777  1.00  0.00     0.125 A 
HETATM   24  N   UNL     1     -41.304  59.661 -53.056  1.00  0.00    -0.272 NA
HETATM   25  C   UNL     1     -42.125  60.115 -52.087  1.00  0.00     0.116 A 
HETATM   26  C   UNL     1     -43.349  59.542 -51.789  1.00  0.00     0.020 A 
HETATM   27  C   UNL     1     -43.761  58.441 -52.535  1.00  0.00     0.012 A 
ENDBRANCH   9  22
TORSDOF 3
ENDMDL
MODEL 4
REMARK VINA RESULT:      -7.6      2.619      5.275
REMARK  3 active torsions:
REMARK  status: ('A' for Active; 'I' for Inactive)
REMARK    1  A    between atoms: C_9  and  C_10 
REMARK    2  A    between atoms: C_16  and  C_17 
REMARK       I    between atoms: C_17  and  N_18 
REMARK    3  A    between atoms: N_18  and  C_19 
ROOT
HETATM    1  C   UNL     1     -41.286  52.837 -53.563  1.00  0.00     0.070 C 
HETATM    2  C   UNL     1     -41.399  53.789 -52.398  1.00  0.00     0.037 C 
HETATM    3  N   UNL     1     -41.385  53.199 -51.136  1.00  0.00    -0.191 N 
HETATM    4  C   UNL     1     -41.219  53.907 -50.001  1.00  0.00     0.735 A 
HETATM    5  N   UNL     1     -41.226  55.272 -50.059  1.00  0.00    -0.092 N 
HETATM    6  N   UNL     1     -40.982  55.791 -48.846  1.00  0.00     0.012 NA
HETATM    7  N   UNL     1     -40.865  54.733 -48.050  1.00  0.00     0.033 NA
HETATM    8  N   UNL     1     -41.010  53.553 -48.756  1.00  0.00     0.030 NA
HETATM    9  C   UNL     1     -41.439  56.050 -51.276  1.00  0.00     0.199 C 
HETATM   10  C   UNL     1     -41.439  55.142 -52.504  1.00  0.00     0.062 C 
HETATM   11  H   UNL     1     -41.268  52.188 -51.093  1.00  0.00     0.184 HD
ENDROOT
BRANCH  10  12
HETATM   12  C   UNL     1     -41.357  55.876 -53.793  1.00  0.00     0.256 C 
HETATM   13  N   UNL     1     -42.510  55.821 -54.541  1.00  0.00    -0.322 N 
HETATM   14  H   UNL     1     -43.308  55.342 -54.141  1.00  0.00     0.169 HD
HETATM   15  O   UNL     1     -40.336  56.498 -54.052  1.00  0.00    -0.267 OA
BRANCH  13  16
HETATM   16  C   UNL     1     -42.696  56.362 -55.832  1.00  0.00     0.052 A 
HETATM   17  C   UNL     1     -42.684  57.720 -56.143  1.00  0.00     0.145 A 
HETATM   18  N   UNL     1     -42.840  58.215 -57.398  1.00  0.00    -0.271 NA
HETATM   19  C   UNL     1     -43.014  57.321 -58.391  1.00  0.00     0.116 A 
HETATM   20  C   UNL     1     -43.042  55.952 -58.189  1.00  0.00     0.021 A 
HETATM   21  C   UNL     1     -42.883  55.470 -56.891  1.00  0.00     0.032 A 
ENDBRANCH  13  16
ENDBRANCH  10  12
BRANCH   9  22
HETATM   22  C   UNL     1     -42.719  56.864 -51.183  1.00  0.00    -0.011 A 
HETATM   23  C   UNL     1     -43.953  56.284 -50.886  1.00  0.00     0.125 A 
HETATM   24  N   UNL     1     -45.120  56.964 -50.846  1.00  0.00    -0.272 NA
HETATM   25  C   UNL     1     -45.066  58.289 -51.093  1.00  0.00     0.116 A 
HETATM   26  C   UNL     1     -43.898  58.964 -51.403  1.00  0.00     0.020 A 
HETATM   27  C   UNL     1     -42.711  58.237 -51.455  1.00  0.00     0.012 A 
ENDBRANCH   9  22
TORSDOF 3
ENDMDL
MODEL 5
REMARK VINA RESULT:      -7.5      2.773      6.013
REMARK  3 active torsions:
REMARK  status: ('A' for Active; 'I' for Inactive)
REMARK    1  A    between atoms: C_9  and  C_10 
REMARK    2  A    between atoms: C_16  and  C_17 
REMARK       I    between atoms: C_17  and  N_18 
REMARK    3  A    between atoms: N_18  and  C_19 
ROOT
HETATM    1  C   UNL     1     -42.083  60.047 -55.789  1.00  0.00     0.070 C 
HETATM    2  C   UNL     1     -41.920  58.988 -54.725  1.00  0.00     0.037 C 
HETATM    3  N   UNL     1     -41.098  59.334 -53.655  1.00  0.00    -0.191 N 
HETATM    4  C   UNL     1     -41.049  58.620 -52.512  1.00  0.00     0.735 A 
HETATM    5  N   UNL     1     -41.701  57.421 -52.446  1.00  0.00    -0.092 N 
HETATM    6  N   UNL     1     -41.591  56.898 -51.215  1.00  0.00     0.012 NA
HETATM    7  N   UNL     1     -40.838  57.770 -50.551  1.00  0.00     0.033 NA
HETATM    8  N   UNL     1     -40.494  58.847 -51.347  1.00  0.00     0.030 NA
HETATM    9  C   UNL     1     -42.437  56.815 -53.551  1.00  0.00     0.199 C 
HETATM   10  C   UNL     1     -42.562  57.793 -54.718  1.00  0.00     0.062 C 
HETATM   11  H   UNL     1     -40.701  60.272 -53.653  1.00  0.00     0.184 HD
ENDROOT
BRANCH  10  12
HETATM   12  C   UNL     1     -43.536  57.367 -55.756  1.00  0.00     0.256 C 
HETATM   13  N   UNL     1     -42.961  57.052 -56.965  1.00  0.00    -0.322 N 
HETATM   14  H   UNL     1     -41.951  57.088 -57.029  1.00  0.00     0.169 HD
HETATM   15  O   UNL     1     -44.717  57.274 -55.451  1.00  0.00    -0.267 OA
BRANCH  13  16
HETATM   16  C   UNL     1     -43.645  56.688 -58.146  1.00  0.00     0.052 A 
HETATM   17  C   UNL     1     -44.434  57.543 -58.913  1.00  0.00     0.145 A 
HETATM   18  N   UNL     1     -45.062  57.176 -60.059  1.00  0.00    -0.271 NA
HETATM   19  C   UNL     1     -44.897  55.902 -60.467  1.00  0.00     0.116 A 
HETATM   20  C   UNL     1     -44.135  54.974 -59.779  1.00  0.00     0.021 A 
HETATM   21  C   UNL     1     -43.503  55.376 -58.602  1.00  0.00     0.032 A 
ENDBRANCH  13  16
ENDBRANCH  10  12
BRANCH   9  22
HETATM   22  C   UNL     1     -41.790  55.509 -53.982  1.00  0.00    -0.011 A 
HETATM   23  C   UNL     1     -42.337  54.265 -53.669  1.00  0.00     0.125 A 
HETATM   24  N   UNL     1     -41.765  53.082 -53.988  1.00  0.00    -0.272 NA
HETATM   25  C   UNL     1     -40.601  53.129 -54.668  1.00  0.00     0.116 A 
HETATM   26  C   UNL     1     -39.969  54.308 -55.024  1.00  0.00     0.020 A 
HETATM   27  C   UNL     1     -40.570  55.512 -54.669  1.00  0.00     0.012 A 
ENDBRANCH   9  22
TORSDOF 3
ENDMDL
MODEL 6
REMARK VINA RESULT:      -7.2      1.816      2.012
REMARK  3 active torsions:
REMARK  status: ('A' for Active; 'I' for Inactive)
REMARK    1  A    between atoms: C_9  and  C_10 
REMARK    2  A    between atoms: C_16  and  C_17 
REMARK       I    between atoms: C_17  and  N_18 
REMARK    3  A    between atoms: N_18  and  C_19 
ROOT
HETATM    1  C   UNL     1     -44.042  55.921 -50.434  1.00  0.00     0.070 C 
HETATM    2  C   UNL     1     -43.502  56.872 -51.474  1.00  0.00     0.037 C 
HETATM    3  N   UNL     1     -43.667  58.226 -51.192  1.00  0.00    -0.191 N 
HETATM    4  C   UNL     1     -43.025  59.197 -51.874  1.00  0.00     0.735 A 
HETATM    5  N   UNL     1     -42.309  58.867 -52.990  1.00  0.00    -0.092 N 
HETATM    6  N   UNL     1     -41.695  59.951 -53.487  1.00  0.00     0.012 NA
HETATM    7  N   UNL     1     -42.074  60.943 -52.687  1.00  0.00     0.033 NA
HETATM    8  N   UNL     1     -42.902  60.487 -51.678  1.00  0.00     0.030 NA
HETATM    9  C   UNL     1     -42.206  57.519 -53.541  1.00  0.00     0.199 C 
HETATM   10  C   UNL     1     -42.825  56.498 -52.589  1.00  0.00     0.062 C 
HETATM   11  H   UNL     1     -44.103  58.472 -50.305  1.00  0.00     0.184 HD
ENDROOT
BRANCH  10  12
HETATM   12  C   UNL     1     -42.506  55.088 -52.932  1.00  0.00     0.256 C 
HETATM   13  N   UNL     1     -41.255  54.683 -52.525  1.00  0.00    -0.322 N 
HETATM   14  H   UNL     1     -40.695  55.344 -52.000  1.00  0.00     0.169 HD
HETATM   15  O   UNL     1     -43.365  54.405 -53.473  1.00  0.00    -0.267 OA
BRANCH  13  16
HETATM   16  C   UNL     1     -40.659  53.428 -52.778  1.00  0.00     0.052 A 
HETATM   17  C   UNL     1     -40.036  52.629 -51.822  1.00  0.00     0.145 A 
HETATM   18  N   UNL     1     -39.492  51.413 -52.085  1.00  0.00    -0.271 NA
HETATM   19  C   UNL     1     -39.572  50.968 -53.354  1.00  0.00     0.116 A 
HETATM   20  C   UNL     1     -40.169  51.683 -54.377  1.00  0.00     0.021 A 
HETATM   21  C   UNL     1     -40.717  52.931 -54.081  1.00  0.00     0.032 A 
ENDBRANCH  13  16
ENDBRANCH  10  12
BRANCH   9  22
HETATM   22  C   UNL     1     -42.835  57.448 -54.923  1.00  0.00    -0.011 A 
HETATM   23  C   UNL     1     -42.133  56.996 -56.040  1.00  0.00     0.125 A 
HETATM   24  N   UNL     1     -42.639  56.967 -57.293  1.00  0.00    -0.272 NA
HETATM   25  C   UNL     1     -43.910  57.391 -57.450  1.00  0.00     0.116 A 
HETATM   26  C   UNL     1     -44.693  57.865 -56.412  1.00  0.00     0.020 A 
HETATM   27  C   UNL     1     -44.143  57.900 -55.134  1.00  0.00     0.012 A 
ENDBRANCH   9  22
TORSDOF 3
ENDMDL
MODEL 7
REMARK VINA RESULT:      -6.8     15.037     17.049
REMARK  3 active torsions:
REMARK  status: ('A' for Active; 'I' for Inactive)
REMARK    1  A    between atoms: C_9  and  C_10 
REMARK    2  A    between atoms: C_16  and  C_17 
REMARK       I    between atoms: C_17  and  N_18 
REMARK    3  A    between atoms: N_18  and  C_19 
ROOT
HETATM    1  C   UNL     1     -38.057  40.936 -52.290  1.00  0.00     0.070 C 
HETATM    2  C   UNL     1     -37.145  41.082 -53.484  1.00  0.00     0.037 C 
HETATM    3  N   UNL     1     -37.783  41.195 -54.716  1.00  0.00    -0.191 N 
HETATM    4  C   UNL     1     -37.142  41.586 -55.837  1.00  0.00     0.735 A 
HETATM    5  N   UNL     1     -35.783  41.722 -55.815  1.00  0.00    -0.092 N 
HETATM    6  N   UNL     1     -35.341  42.178 -56.997  1.00  0.00     0.012 NA
HETATM    7  N   UNL     1     -36.437  42.281 -57.743  1.00  0.00     0.033 NA
HETATM    8  N   UNL     1     -37.566  41.915 -57.033  1.00  0.00     0.030 NA
HETATM    9  C   UNL     1     -34.940  41.439 -54.657  1.00  0.00     0.199 C 
HETATM   10  C   UNL     1     -35.793  41.178 -53.418  1.00  0.00     0.062 C 
HETATM   11  H   UNL     1     -38.802  41.205 -54.718  1.00  0.00     0.184 HD
ENDROOT
BRANCH  10  12
HETATM   12  C   UNL     1     -35.021  41.171 -52.149  1.00  0.00     0.256 C 
HETATM   13  N   UNL     1     -34.595  39.922 -51.761  1.00  0.00    -0.322 N 
HETATM   14  H   UNL     1     -34.794  39.144 -52.380  1.00  0.00     0.169 HD
HETATM   15  O   UNL     1     -34.781  42.238 -51.600  1.00  0.00    -0.267 OA
BRANCH  13  16
HETATM   16  C   UNL     1     -33.907  39.605 -50.569  1.00  0.00     0.052 A 
HETATM   17  C   UNL     1     -34.412  38.820 -49.535  1.00  0.00     0.145 A 
HETATM   18  N   UNL     1     -33.722  38.508 -48.408  1.00  0.00    -0.271 NA
HETATM   19  C   UNL     1     -32.470  38.998 -48.303  1.00  0.00     0.116 A 
HETATM   20  C   UNL     1     -31.876  39.787 -49.271  1.00  0.00     0.021 A 
HETATM   21  C   UNL     1     -32.608  40.095 -50.417  1.00  0.00     0.032 A 
ENDBRANCH  13  16
ENDBRANCH  10  12
BRANCH   9  22
HETATM   22  C   UNL     1     -33.999  40.280 -54.942  1.00  0.00    -0.011 A 
HETATM   23  C   UNL     1     -34.461  38.999 -55.243  1.00  0.00     0.125 A 
HETATM   24  N   UNL     1     -33.658  37.931 -55.450  1.00  0.00    -0.272 NA
HETATM   25  C   UNL     1     -32.328  38.142 -55.375  1.00  0.00     0.116 A 
HETATM   26  C   UNL     1     -31.762  39.370 -55.078  1.00  0.00     0.020 A 
HETATM   27  C   UNL     1     -32.612  40.450 -54.852  1.00  0.00     0.012 A 
ENDBRANCH   9  22
TORSDOF 3
ENDMDL
MODEL 8
REMARK VINA RESULT:      -6.8      3.054      4.845
REMARK  3 active torsions:
REMARK  status: ('A' for Active; 'I' for Inactive)
REMARK    1  A    between atoms: C_9  and  C_10 
REMARK    2  A    between atoms: C_16  and  C_17 
REMARK       I    between atoms: C_17  and  N_18 
REMARK    3  A    between atoms: N_18  and  C_19 
ROOT
HETATM    1  C   UNL     1     -43.869  58.793 -53.207  1.00  0.00     0.070 C 
HETATM    2  C   UNL     1     -43.411  58.900 -54.642  1.00  0.00     0.037 C 
HETATM    3  N   UNL     1     -43.422  60.184 -55.181  1.00  0.00    -0.191 N 
HETATM    4  C   UNL     1     -42.810  60.493 -56.342  1.00  0.00     0.735 A 
HETATM    5  N   UNL     1     -42.296  59.489 -57.113  1.00  0.00    -0.092 N 
HETATM    6  N   UNL     1     -41.674  59.998 -58.188  1.00  0.00     0.012 NA
HETATM    7  N   UNL     1     -41.849  61.311 -58.080  1.00  0.00     0.033 NA
HETATM    8  N   UNL     1     -42.554  61.633 -56.935  1.00  0.00     0.030 NA
HETATM    9  C   UNL     1     -42.386  58.067 -56.792  1.00  0.00     0.199 C 
HETATM   10  C   UNL     1     -42.939  57.866 -55.383  1.00  0.00     0.062 C 
HETATM   11  H   UNL     1     -43.700  60.948 -54.567  1.00  0.00     0.184 HD
ENDROOT
BRANCH  10  12
HETATM   12  C   UNL     1     -42.791  56.478 -54.873  1.00  0.00     0.256 C 
HETATM   13  N   UNL     1     -41.518  56.171 -54.452  1.00  0.00    -0.322 N 
HETATM   14  H   UNL     1     -40.824  56.908 -54.477  1.00  0.00     0.169 HD
HETATM   15  O   UNL     1     -43.783  55.764 -54.814  1.00  0.00    -0.267 OA
BRANCH  13  16
HETATM   16  C   UNL     1     -41.070  54.914 -53.991  1.00  0.00     0.052 A 
HETATM   17  C   UNL     1     -41.070  54.500 -52.661  1.00  0.00     0.145 A 
HETATM   18  N   UNL     1     -40.658  53.275 -52.244  1.00  0.00    -0.271 NA
HETATM   19  C   UNL     1     -40.227  52.419 -53.192  1.00  0.00     0.116 A 
HETATM   20  C   UNL     1     -40.187  52.731 -54.540  1.00  0.00     0.021 A 
HETATM   21  C   UNL     1     -40.613  53.997 -54.940  1.00  0.00     0.032 A 
ENDBRANCH  13  16
ENDBRANCH  10  12
BRANCH   9  22
HETATM   22  C   UNL     1     -43.215  57.329 -57.830  1.00  0.00    -0.011 A 
HETATM   23  C   UNL     1     -44.513  57.716 -58.162  1.00  0.00     0.125 A 
HETATM   24  N   UNL     1     -45.302  57.055 -59.039  1.00  0.00    -0.272 NA
HETATM   25  C   UNL     1     -44.775  55.965 -59.634  1.00  0.00     0.116 A 
HETATM   26  C   UNL     1     -43.502  55.489 -59.373  1.00  0.00     0.020 A 
HETATM   27  C   UNL     1     -42.716  56.178 -58.453  1.00  0.00     0.012 A 
ENDBRANCH   9  22
TORSDOF 3
ENDMDL
MODEL 9
REMARK VINA RESULT:      -6.7      3.139      5.962
REMARK  3 active torsions:
REMARK  status: ('A' for Active; 'I' for Inactive)
REMARK    1  A    between atoms: C_9  and  C_10 
REMARK    2  A    between atoms: C_16  and  C_17 
REMARK       I    between atoms: C_17  and  N_18 
REMARK    3  A    between atoms: N_18  and  C_19 
ROOT
HETATM    1  C   UNL     1     -42.257  60.644 -54.333  1.00  0.00     0.070 C 
HETATM    2  C   UNL     1     -42.938  59.653 -53.421  1.00  0.00     0.037 C 
HETATM    3  N   UNL     1     -43.569  60.199 -52.306  1.00  0.00    -0.191 N 
HETATM    4  C   UNL     1     -44.430  59.500 -51.539  1.00  0.00     0.735 A 
HETATM    5  N   UNL     1     -44.577  58.159 -51.753  1.00  0.00    -0.092 N 
HETATM    6  N   UNL     1     -45.519  57.658 -50.941  1.00  0.00     0.012 NA
HETATM    7  N   UNL     1     -45.914  58.696 -50.211  1.00  0.00     0.033 NA
HETATM    8  N   UNL     1     -45.244  59.850 -50.573  1.00  0.00     0.030 NA
HETATM    9  C   UNL     1     -43.833  57.391 -52.747  1.00  0.00     0.199 C 
HETATM   10  C   UNL     1     -43.029  58.320 -53.656  1.00  0.00     0.062 C 
HETATM   11  H   UNL     1     -43.553  61.213 -52.207  1.00  0.00     0.184 HD
ENDROOT
BRANCH  10  12
HETATM   12  C   UNL     1     -42.481  57.650 -54.864  1.00  0.00     0.256 C 
HETATM   13  N   UNL     1     -43.200  57.893 -56.012  1.00  0.00    -0.322 N 
HETATM   14  H   UNL     1     -43.987  58.528 -55.948  1.00  0.00     0.169 HD
HETATM   15  O   UNL     1     -41.444  57.010 -54.762  1.00  0.00    -0.267 OA
BRANCH  13  16
HETATM   16  C   UNL     1     -42.955  57.334 -57.285  1.00  0.00     0.052 A 
HETATM   17  C   UNL     1     -43.300  56.041 -57.674  1.00  0.00     0.145 A 
HETATM   18  N   UNL     1     -43.077  55.534 -58.913  1.00  0.00    -0.271 NA
HETATM   19  C   UNL     1     -42.487  56.348 -59.810  1.00  0.00     0.116 A 
HETATM   20  C   UNL     1     -42.105  57.647 -59.526  1.00  0.00     0.021 A 
HETATM   21  C   UNL     1     -42.342  58.142 -58.244  1.00  0.00     0.032 A 
ENDBRANCH  13  16
ENDBRANCH  10  12
BRANCH   9  22
HETATM   22  C   UNL     1     -42.943  56.356 -52.079  1.00  0.00    -0.011 A 
HETATM   23  C   UNL     1     -43.120  54.985 -52.267  1.00  0.00     0.125 A 
HETATM   24  N   UNL     1     -42.385  54.033 -51.650  1.00  0.00    -0.272 NA
HETATM   25  C   UNL     1     -41.411  54.456 -50.817  1.00  0.00     0.116 A 
HETATM   26  C   UNL     1     -41.154  55.790 -50.554  1.00  0.00     0.020 A 
HETATM   27  C   UNL     1     -41.936  56.751 -51.189  1.00  0.00     0.012 A 
ENDBRANCH   9  22
TORSDOF 3
ENDMDL
MODEL 10
REMARK VINA RESULT:      -6.6      4.032      6.777
REMARK  3 active torsions:
REMARK  status: ('A' for Active; 'I' for Inactive)
REMARK    1  A    between atoms: C_9  and  C_10 
REMARK    2  A    between atoms: C_16  and  C_17 
REMARK       I    between atoms: C_17  and  N_18 
REMARK    3  A    between atoms: N_18  and  C_19 
ROOT
HETATM    1  C   UNL     1     -43.775  60.423 -55.852  1.00  0.00     0.070 C 
HETATM    2  C   UNL     1     -43.414  59.771 -57.164  1.00  0.00     0.037 C 
HETATM    3  N   UNL     1     -43.253  60.639 -58.241  1.00  0.00    -0.191 N 
HETATM    4  C   UNL     1     -42.687  60.260 -59.406  1.00  0.00     0.735 A 
HETATM    5  N   UNL     1     -42.404  58.939 -59.611  1.00  0.00    -0.092 N 
HETATM    6  N   UNL     1     -41.788  58.773 -60.791  1.00  0.00     0.012 NA
HETATM    7  N   UNL     1     -41.736  59.995 -61.313  1.00  0.00     0.033 NA
HETATM    8  N   UNL     1     -42.291  60.930 -60.460  1.00  0.00     0.030 NA
HETATM    9  C   UNL     1     -42.702  57.870 -58.663  1.00  0.00     0.199 C 
HETATM   10  C   UNL     1     -43.175  58.445 -57.330  1.00  0.00     0.062 C 
HETATM   11  H   UNL     1     -43.356  61.636 -58.060  1.00  0.00     0.184 HD
ENDROOT
BRANCH  10  12
HETATM   12  C   UNL     1     -43.220  57.449 -56.229  1.00  0.00     0.256 C 
HETATM   13  N   UNL     1     -41.996  56.902 -55.920  1.00  0.00    -0.322 N 
HETATM   14  H   UNL     1     -41.186  57.251 -56.420  1.00  0.00     0.169 HD
HETATM   15  O   UNL     1     -44.286  57.243 -55.664  1.00  0.00    -0.267 OA
BRANCH  13  16
HETATM   16  C   UNL     1     -41.749  55.885 -54.973  1.00  0.00     0.052 A 
HETATM   17  C   UNL     1     -41.320  56.092 -53.664  1.00  0.00     0.145 A 
HETATM   18  N   UNL     1     -41.114  55.098 -52.763  1.00  0.00    -0.271 NA
HETATM   19  C   UNL     1     -41.347  53.837 -53.179  1.00  0.00     0.116 A 
HETATM   20  C   UNL     1     -41.775  53.523 -54.457  1.00  0.00     0.021 A 
HETATM   21  C   UNL     1     -41.976  54.563 -55.364  1.00  0.00     0.032 A 
ENDBRANCH  13  16
ENDBRANCH  10  12
BRANCH   9  22
HETATM   22  C   UNL     1     -43.717  56.898 -59.244  1.00  0.00    -0.011 A 
HETATM   23  C   UNL     1     -45.036  57.267 -59.511  1.00  0.00     0.125 A 
HETATM   24  N   UNL     1     -45.980  56.420 -59.978  1.00  0.00    -0.272 NA
HETATM   25  C   UNL     1     -45.600  55.146 -60.211  1.00  0.00     0.116 A 
HETATM   26  C   UNL     1     -44.320  54.674 -59.975  1.00  0.00     0.020 A 
HETATM   27  C   UNL     1     -43.370  55.562 -59.479  1.00  0.00     0.012 A 
ENDBRANCH   9  22
TORSDOF 3
ENDMDL
