MODEL 1
REMARK VINA RESULT:      -7.9      0.000      0.000
REMARK  5 active torsions:
REMARK  status: ('A' for Active; 'I' for Inactive)
REMARK    1  A    between atoms: C_2  and  O_3 
REMARK    2  A    between atoms: C_4  and  C_5 
REMARK    3  A    between atoms: C_5  and  O_6 
REMARK    4  A    between atoms: C_9  and  C_10 
REMARK    5  A    between atoms: C_22  and  O_23 
ROOT
HETATM    1  C   UNL     1     -42.114  58.835 -54.922  1.00  0.00     0.047 C 
HETATM    2  C   UNL     1     -42.390  57.577 -54.082  1.00  0.00     0.073 C 
HETATM    3  C   UNL     1     -41.112  57.084 -53.324  1.00  0.00     0.133 C 
HETATM    4  C   UNL     1     -41.312  55.971 -52.252  1.00  0.00     0.074 C 
HETATM    5  C   UNL     1     -42.684  55.981 -51.676  1.00  0.00     0.030 A 
HETATM    6  C   UNL     1     -43.700  56.805 -52.107  1.00  0.00     0.042 A 
HETATM    7  N   UNL     1     -44.781  56.554 -51.308  1.00  0.00    -0.279 N 
HETATM    8  H   UNL     1     -45.699  56.989 -51.326  1.00  0.00     0.189 HD
HETATM    9  N   UNL     1     -44.531  55.614 -50.372  1.00  0.00    -0.149 NA
HETATM   10  C   UNL     1     -43.261  55.308 -50.597  1.00  0.00     0.190 A 
HETATM   11  C   UNL     1     -43.628  57.833 -53.174  1.00  0.00     0.097 C 
ENDROOT
BRANCH   4  12
HETATM   12  C   UNL     1     -41.018  54.568 -52.781  1.00  0.00    -0.048 A 
HETATM   13  C   UNL     1     -40.305  53.688 -51.942  1.00  0.00     0.009 A 
HETATM   14  C   UNL     1     -39.986  52.391 -52.354  1.00  0.00     0.019 A 
HETATM   15  C   UNL     1     -40.366  51.956 -53.620  1.00  0.00     0.011 A 
HETATM   16 BR   UNL     1     -39.941  50.202 -54.180  1.00  0.00    -0.051 Br
HETATM   17  C   UNL     1     -41.064  52.806 -54.472  1.00  0.00     0.019 A 
HETATM   18  C   UNL     1     -41.388  54.100 -54.055  1.00  0.00     0.009 A 
ENDBRANCH   4  12
BRANCH   3  19
HETATM   19  C   UNL     1     -40.441  58.248 -52.625  1.00  0.00     0.266 C 
HETATM   20  O   UNL     1     -39.798  59.125 -53.185  1.00  0.00    -0.265 OA
BRANCH  19  21
HETATM   21  O   UNL     1     -40.653  58.175 -51.281  1.00  0.00    -0.326 OA
HETATM   22  C   UNL     1     -41.116  59.391 -50.692  1.00  0.00     0.213 C 
ENDBRANCH  19  21
ENDBRANCH   3  19
BRANCH   2  23
HETATM   23  O   UNL     1     -42.742  56.579 -55.064  1.00  0.00    -0.389 OA
HETATM   24  H   UNL     1     -42.363  56.848 -55.916  1.00  0.00     0.210 HD
ENDBRANCH   2  23
BRANCH  10  25
HETATM   25  O   UNL     1     -42.732  54.419 -49.765  1.00  0.00    -0.343 OA
HETATM   26  H   UNL     1     -43.412  54.289 -49.082  1.00  0.00     0.219 HD
ENDBRANCH  10  25
TORSDOF 5
ENDMDL
MODEL 2
REMARK VINA RESULT:      -7.3      2.924      4.178
REMARK  5 active torsions:
REMARK  status: ('A' for Active; 'I' for Inactive)
REMARK    1  A    between atoms: C_2  and  O_3 
REMARK    2  A    between atoms: C_4  and  C_5 
REMARK    3  A    between atoms: C_5  and  O_6 
REMARK    4  A    between atoms: C_9  and  C_10 
REMARK    5  A    between atoms: C_22  and  O_23 
ROOT
HETATM    1  C   UNL     1     -42.014  59.843 -52.604  1.00  0.00     0.047 C 
HETATM    2  C   UNL     1     -41.912  58.759 -53.690  1.00  0.00     0.073 C 
HETATM    3  C   UNL     1     -42.868  57.551 -53.406  1.00  0.00     0.133 C 
HETATM    4  C   UNL     1     -43.042  56.505 -54.548  1.00  0.00     0.074 C 
HETATM    5  C   UNL     1     -42.800  57.092 -55.893  1.00  0.00     0.030 A 
HETATM    6  C   UNL     1     -42.369  58.382 -56.111  1.00  0.00     0.042 A 
HETATM    7  N   UNL     1     -42.311  58.559 -57.466  1.00  0.00    -0.279 N 
HETATM    8  H   UNL     1     -42.051  59.390 -57.988  1.00  0.00     0.189 HD
HETATM    9  N   UNL     1     -42.686  57.458 -58.152  1.00  0.00    -0.149 NA
HETATM   10  C   UNL     1     -43.000  56.605 -57.187  1.00  0.00     0.190 A 
HETATM   11  C   UNL     1     -42.095  59.419 -55.087  1.00  0.00     0.097 C 
ENDROOT
BRANCH   4  12
HETATM   12  C   UNL     1     -42.144  55.281 -54.382  1.00  0.00    -0.048 A 
HETATM   13  C   UNL     1     -42.515  54.321 -53.419  1.00  0.00     0.009 A 
HETATM   14  C   UNL     1     -41.743  53.178 -53.198  1.00  0.00     0.019 A 
HETATM   15  C   UNL     1     -40.577  52.980 -53.931  1.00  0.00     0.011 A 
HETATM   16 BR   UNL     1     -39.532  51.433 -53.640  1.00  0.00    -0.051 Br
HETATM   17  C   UNL     1     -40.183  53.914 -54.884  1.00  0.00     0.019 A 
HETATM   18  C   UNL     1     -40.961  55.054 -55.109  1.00  0.00     0.009 A 
ENDBRANCH   4  12
BRANCH   3  19
HETATM   19  C   UNL     1     -44.254  58.055 -53.060  1.00  0.00     0.266 C 
HETATM   20  O   UNL     1     -44.964  58.717 -53.805  1.00  0.00    -0.265 OA
BRANCH  19  21
HETATM   21  O   UNL     1     -44.595  57.669 -51.800  1.00  0.00    -0.326 OA
HETATM   22  C   UNL     1     -45.335  58.645 -51.064  1.00  0.00     0.213 C 
ENDBRANCH  19  21
ENDBRANCH   3  19
BRANCH   2  23
HETATM   23  O   UNL     1     -40.552  58.290 -53.581  1.00  0.00    -0.389 OA
HETATM   24  H   UNL     1     -39.973  58.944 -54.002  1.00  0.00     0.210 HD
ENDBRANCH   2  23
BRANCH  10  25
HETATM   25  O   UNL     1     -43.459  55.427 -57.594  1.00  0.00    -0.343 OA
HETATM   26  H   UNL     1     -43.443  54.870 -56.797  1.00  0.00     0.219 HD
ENDBRANCH  10  25
TORSDOF 5
ENDMDL
MODEL 3
REMARK VINA RESULT:      -7.1      1.917      3.231
REMARK  5 active torsions:
REMARK  status: ('A' for Active; 'I' for Inactive)
REMARK    1  A    between atoms: C_2  and  O_3 
REMARK    2  A    between atoms: C_4  and  C_5 
REMARK    3  A    between atoms: C_5  and  O_6 
REMARK    4  A    between atoms: C_9  and  C_10 
REMARK    5  A    between atoms: C_22  and  O_23 
ROOT
HETATM    1  C   UNL     1     -45.493  58.016 -55.707  1.00  0.00     0.047 C 
HETATM    2  C   UNL     1     -44.515  57.497 -54.640  1.00  0.00     0.073 C 
HETATM    3  C   UNL     1     -43.045  57.428 -55.174  1.00  0.00     0.133 C 
HETATM    4  C   UNL     1     -41.925  57.156 -54.125  1.00  0.00     0.074 C 
HETATM    5  C   UNL     1     -42.307  57.607 -52.760  1.00  0.00     0.030 A 
HETATM    6  C   UNL     1     -43.544  58.112 -52.428  1.00  0.00     0.042 A 
HETATM    7  N   UNL     1     -43.492  58.455 -51.105  1.00  0.00    -0.279 N 
HETATM    8  H   UNL     1     -44.215  58.873 -50.528  1.00  0.00     0.189 HD
HETATM    9  N   UNL     1     -42.286  58.208 -50.550  1.00  0.00    -0.149 NA
HETATM   10  C   UNL     1     -41.588  57.727 -51.569  1.00  0.00     0.190 A 
HETATM   11  C   UNL     1     -44.697  58.329 -53.336  1.00  0.00     0.097 C 
ENDROOT
BRANCH   4  12
HETATM   12  C   UNL     1     -41.514  55.686 -54.055  1.00  0.00    -0.048 A 
HETATM   13  C   UNL     1     -40.578  55.221 -55.000  1.00  0.00     0.009 A 
HETATM   14  C   UNL     1     -40.156  53.889 -55.010  1.00  0.00     0.019 A 
HETATM   15  C   UNL     1     -40.675  52.994 -54.081  1.00  0.00     0.011 A 
HETATM   16 BR   UNL     1     -40.106  51.192 -54.088  1.00  0.00    -0.051 Br
HETATM   17  C   UNL     1     -41.607  53.423 -53.140  1.00  0.00     0.019 A 
HETATM   18  C   UNL     1     -42.021  54.758 -53.127  1.00  0.00     0.009 A 
ENDBRANCH   4  12
BRANCH   3  19
HETATM   19  C   UNL     1     -42.684  58.724 -55.871  1.00  0.00     0.266 C 
HETATM   20  O   UNL     1     -42.376  59.762 -55.302  1.00  0.00    -0.265 OA
BRANCH  19  21
HETATM   21  O   UNL     1     -42.756  58.568 -57.222  1.00  0.00    -0.326 OA
HETATM   22  C   UNL     1     -42.479  57.243 -57.678  1.00  0.00     0.213 C 
ENDBRANCH  19  21
ENDBRANCH   3  19
BRANCH   2  23
HETATM   23  O   UNL     1     -44.964  56.150 -54.388  1.00  0.00    -0.389 OA
HETATM   24  H   UNL     1     -44.547  55.565 -55.041  1.00  0.00     0.210 HD
ENDBRANCH   2  23
BRANCH  10  25
HETATM   25  O   UNL     1     -40.318  57.439 -51.306  1.00  0.00    -0.343 OA
HETATM   26  H   UNL     1     -39.915  58.295 -51.084  1.00  0.00     0.219 HD
ENDBRANCH  10  25
TORSDOF 5
ENDMDL
MODEL 4
REMARK VINA RESULT:      -6.9      3.242      4.684
REMARK  5 active torsions:
REMARK  status: ('A' for Active; 'I' for Inactive)
REMARK    1  A    between atoms: C_2  and  O_3 
REMARK    2  A    between atoms: C_4  and  C_5 
REMARK    3  A    between atoms: C_5  and  O_6 
REMARK    4  A    between atoms: C_9  and  C_10 
REMARK    5  A    between atoms: C_22  and  O_23 
ROOT
HETATM    1  C   UNL     1     -44.112  57.921 -51.474  1.00  0.00     0.047 C 
HETATM    2  C   UNL     1     -43.512  56.993 -52.543  1.00  0.00     0.073 C 
HETATM    3  C   UNL     1     -42.481  57.737 -53.456  1.00  0.00     0.133 C 
HETATM    4  C   UNL     1     -41.623  56.858 -54.415  1.00  0.00     0.074 C 
HETATM    5  C   UNL     1     -41.454  55.469 -53.909  1.00  0.00     0.030 A 
HETATM    6  C   UNL     1     -42.067  54.975 -52.778  1.00  0.00     0.042 A 
HETATM    7  N   UNL     1     -41.630  53.689 -52.619  1.00  0.00    -0.279 N 
HETATM    8  H   UNL     1     -41.860  53.027 -51.884  1.00  0.00     0.189 HD
HETATM    9  N   UNL     1     -40.760  53.311 -53.579  1.00  0.00    -0.149 NA
HETATM   10  C   UNL     1     -40.651  54.404 -54.322  1.00  0.00     0.190 A 
HETATM   11  C   UNL     1     -42.964  55.710 -51.853  1.00  0.00     0.097 C 
ENDROOT
BRANCH   4  12
HETATM   12  C   UNL     1     -42.186  56.793 -55.834  1.00  0.00    -0.048 A 
HETATM   13  C   UNL     1     -42.204  57.985 -56.586  1.00  0.00     0.009 A 
HETATM   14  C   UNL     1     -42.711  58.014 -57.888  1.00  0.00     0.019 A 
HETATM   15  C   UNL     1     -43.220  56.851 -58.456  1.00  0.00     0.011 A 
HETATM   16 BR   UNL     1     -43.903  56.884 -60.218  1.00  0.00    -0.051 Br
HETATM   17  C   UNL     1     -43.221  55.661 -57.735  1.00  0.00     0.019 A 
HETATM   18  C   UNL     1     -42.706  55.633 -56.435  1.00  0.00     0.009 A 
ENDBRANCH   4  12
BRANCH   3  19
HETATM   19  C   UNL     1     -41.510  58.529 -52.605  1.00  0.00     0.266 C 
HETATM   20  O   UNL     1     -41.030  58.143 -51.548  1.00  0.00    -0.265 OA
BRANCH  19  21
HETATM   21  O   UNL     1     -41.250  59.734 -53.184  1.00  0.00    -0.326 OA
HETATM   22  C   UNL     1     -42.406  60.411 -53.679  1.00  0.00     0.213 C 
ENDBRANCH  19  21
ENDBRANCH   3  19
BRANCH   2  23
HETATM   23  O   UNL     1     -44.647  56.626 -53.355  1.00  0.00    -0.389 OA
HETATM   24  H   UNL     1     -45.318  56.231 -52.775  1.00  0.00     0.210 HD
ENDBRANCH   2  23
BRANCH  10  25
HETATM   25  O   UNL     1     -39.797  54.322 -55.335  1.00  0.00    -0.343 OA
HETATM   26  H   UNL     1     -40.360  54.285 -56.127  1.00  0.00     0.219 HD
ENDBRANCH  10  25
TORSDOF 5
ENDMDL
MODEL 5
REMARK VINA RESULT:      -6.9     16.558     18.781
REMARK  5 active torsions:
REMARK  status: ('A' for Active; 'I' for Inactive)
REMARK    1  A    between atoms: C_2  and  O_3 
REMARK    2  A    between atoms: C_4  and  C_5 
REMARK    3  A    between atoms: C_5  and  O_6 
REMARK    4  A    between atoms: C_9  and  C_10 
REMARK    5  A    between atoms: C_22  and  O_23 
ROOT
HETATM    1  C   UNL     1     -34.224  38.216 -51.385  1.00  0.00     0.047 C 
HETATM    2  C   UNL     1     -33.734  38.485 -52.818  1.00  0.00     0.073 C 
HETATM    3  C   UNL     1     -33.697  40.015 -53.148  1.00  0.00     0.133 C 
HETATM    4  C   UNL     1     -32.991  40.434 -54.473  1.00  0.00     0.074 C 
HETATM    5  C   UNL     1     -31.956  39.453 -54.896  1.00  0.00     0.030 A 
HETATM    6  C   UNL     1     -31.712  38.258 -54.257  1.00  0.00     0.042 A 
HETATM    7  N   UNL     1     -30.666  37.665 -54.907  1.00  0.00    -0.279 N 
HETATM    8  H   UNL     1     -30.207  36.783 -54.701  1.00  0.00     0.189 HD
HETATM    9  N   UNL     1     -30.203  38.406 -55.936  1.00  0.00    -0.149 NA
HETATM   10  C   UNL     1     -30.975  39.484 -55.889  1.00  0.00     0.190 A 
HETATM   11  C   UNL     1     -32.389  37.736 -53.044  1.00  0.00     0.097 C 
ENDROOT
BRANCH   4  12
HETATM   12  C   UNL     1     -33.965  40.643 -55.632  1.00  0.00    -0.048 A 
HETATM   13  C   UNL     1     -34.553  41.916 -55.771  1.00  0.00     0.009 A 
HETATM   14  C   UNL     1     -35.462  42.187 -56.798  1.00  0.00     0.019 A 
HETATM   15  C   UNL     1     -35.806  41.184 -57.697  1.00  0.00     0.011 A 
HETATM   16 BR   UNL     1     -37.030  41.547 -59.090  1.00  0.00    -0.051 Br
HETATM   17  C   UNL     1     -35.246  39.915 -57.580  1.00  0.00     0.019 A 
HETATM   18  C   UNL     1     -34.332  39.649 -56.557  1.00  0.00     0.009 A 
ENDBRANCH   4  12
BRANCH   3  19
HETATM   19  C   UNL     1     -33.012  40.772 -52.030  1.00  0.00     0.266 C 
HETATM   20  O   UNL     1     -31.804  40.790 -51.835  1.00  0.00    -0.265 OA
BRANCH  19  21
HETATM   21  O   UNL     1     -33.933  41.427 -51.271  1.00  0.00    -0.326 OA
HETATM   22  C   UNL     1     -35.087  41.863 -51.991  1.00  0.00     0.213 C 
ENDBRANCH  19  21
ENDBRANCH   3  19
BRANCH   2  23
HETATM   23  O   UNL     1     -34.743  37.871 -53.647  1.00  0.00    -0.389 OA
HETATM   24  H   UNL     1     -34.581  36.914 -53.660  1.00  0.00     0.210 HD
ENDBRANCH   2  23
BRANCH  10  25
HETATM   25  O   UNL     1     -30.696  40.424 -56.785  1.00  0.00    -0.343 OA
HETATM   26  H   UNL     1     -31.565  40.733 -57.093  1.00  0.00     0.219 HD
ENDBRANCH  10  25
TORSDOF 5
ENDMDL
MODEL 6
REMARK VINA RESULT:      -6.6      3.971      6.262
REMARK  5 active torsions:
REMARK  status: ('A' for Active; 'I' for Inactive)
REMARK    1  A    between atoms: C_2  and  O_3 
REMARK    2  A    between atoms: C_4  and  C_5 
REMARK    3  A    between atoms: C_5  and  O_6 
REMARK    4  A    between atoms: C_9  and  C_10 
REMARK    5  A    between atoms: C_22  and  O_23 
ROOT
HETATM    1  C   UNL     1     -43.862  54.294 -50.351  1.00  0.00     0.047 C 
HETATM    2  C   UNL     1     -43.616  55.560 -51.188  1.00  0.00     0.073 C 
HETATM    3  C   UNL     1     -42.487  56.457 -50.579  1.00  0.00     0.133 C 
HETATM    4  C   UNL     1     -41.973  57.638 -51.457  1.00  0.00     0.074 C 
HETATM    5  C   UNL     1     -42.157  57.383 -52.911  1.00  0.00     0.030 A 
HETATM    6  C   UNL     1     -42.801  56.282 -53.430  1.00  0.00     0.042 A 
HETATM    7  N   UNL     1     -42.724  56.382 -54.792  1.00  0.00    -0.279 N 
HETATM    8  H   UNL     1     -43.076  55.740 -55.497  1.00  0.00     0.189 HD
HETATM    9  N   UNL     1     -42.061  57.485 -55.198  1.00  0.00    -0.149 NA
HETATM   10  C   UNL     1     -41.708  58.052 -54.052  1.00  0.00     0.190 A 
HETATM   11  C   UNL     1     -43.395  55.153 -52.674  1.00  0.00     0.097 C 
ENDROOT
BRANCH   4  12
HETATM   12  C   UNL     1     -42.629  58.973 -51.110  1.00  0.00    -0.048 A 
HETATM   13  C   UNL     1     -41.818  59.972 -50.535  1.00  0.00     0.009 A 
HETATM   14  C   UNL     1     -42.342  61.218 -50.180  1.00  0.00     0.019 A 
HETATM   15  C   UNL     1     -43.693  61.481 -50.384  1.00  0.00     0.011 A 
HETATM   16 BR   UNL     1     -44.406  63.165 -49.908  1.00  0.00    -0.051 Br
HETATM   17  C   UNL     1     -44.519  60.511 -50.943  1.00  0.00     0.019 A 
HETATM   18  C   UNL     1     -43.990  59.269 -51.305  1.00  0.00     0.009 A 
ENDBRANCH   4  12
BRANCH   3  19
HETATM   19  C   UNL     1     -41.279  55.610 -50.237  1.00  0.00     0.266 C 
HETATM   20  O   UNL     1     -40.577  55.029 -51.053  1.00  0.00    -0.265 OA
BRANCH  19  21
HETATM   21  O   UNL     1     -41.088  55.585 -48.888  1.00  0.00    -0.326 OA
HETATM   22  C   UNL     1     -40.657  54.322 -48.378  1.00  0.00     0.213 C 
ENDBRANCH  19  21
ENDBRANCH   3  19
BRANCH   2  23
HETATM   23  O   UNL     1     -44.862  56.282 -51.093  1.00  0.00    -0.389 OA
HETATM   24  H   UNL     1     -45.070  56.642 -51.971  1.00  0.00     0.210 HD
ENDBRANCH   2  23
BRANCH  10  25
HETATM   25  O   UNL     1     -40.982  59.158 -54.163  1.00  0.00    -0.343 OA
HETATM   26  H   UNL     1     -40.432  59.012 -54.951  1.00  0.00     0.219 HD
ENDBRANCH  10  25
TORSDOF 5
ENDMDL
MODEL 7
REMARK VINA RESULT:      -6.5     15.277     17.828
REMARK  5 active torsions:
REMARK  status: ('A' for Active; 'I' for Inactive)
REMARK    1  A    between atoms: C_2  and  O_3 
REMARK    2  A    between atoms: C_4  and  C_5 
REMARK    3  A    between atoms: C_5  and  O_6 
REMARK    4  A    between atoms: C_9  and  C_10 
REMARK    5  A    between atoms: C_22  and  O_23 
ROOT
HETATM    1  C   UNL     1     -31.522  38.504 -54.072  1.00  0.00     0.047 C 
HETATM    2  C   UNL     1     -32.622  39.577 -54.122  1.00  0.00     0.073 C 
HETATM    3  C   UNL     1     -34.023  38.966 -54.463  1.00  0.00     0.133 C 
HETATM    4  C   UNL     1     -35.259  39.902 -54.304  1.00  0.00     0.074 C 
HETATM    5  C   UNL     1     -35.029  40.977 -53.303  1.00  0.00     0.030 A 
HETATM    6  C   UNL     1     -33.830  41.196 -52.661  1.00  0.00     0.042 A 
HETATM    7  N   UNL     1     -34.028  42.232 -51.791  1.00  0.00    -0.279 N 
HETATM    8  H   UNL     1     -33.369  42.652 -51.142  1.00  0.00     0.189 HD
HETATM    9  N   UNL     1     -35.292  42.705 -51.821  1.00  0.00    -0.149 NA
HETATM   10  C   UNL     1     -35.877  41.918 -52.714  1.00  0.00     0.190 A 
HETATM   11  C   UNL     1     -32.578  40.414 -52.810  1.00  0.00     0.097 C 
ENDROOT
BRANCH   4  12
HETATM   12  C   UNL     1     -35.696  40.546 -55.619  1.00  0.00    -0.048 A 
HETATM   13  C   UNL     1     -36.753  39.939 -56.326  1.00  0.00     0.009 A 
HETATM   14  C   UNL     1     -37.207  40.459 -57.541  1.00  0.00     0.019 A 
HETATM   15  C   UNL     1     -36.602  41.592 -58.075  1.00  0.00     0.011 A 
HETATM   16 BR   UNL     1     -37.215  42.302 -59.716  1.00  0.00    -0.051 Br
HETATM   17  C   UNL     1     -35.552  42.209 -57.402  1.00  0.00     0.019 A 
HETATM   18  C   UNL     1     -35.105  41.690 -56.184  1.00  0.00     0.009 A 
ENDBRANCH   4  12
BRANCH   3  19
HETATM   19  C   UNL     1     -34.283  37.749 -53.600  1.00  0.00     0.266 C 
HETATM   20  O   UNL     1     -34.282  37.746 -52.376  1.00  0.00    -0.265 OA
BRANCH  19  21
HETATM   21  O   UNL     1     -34.514  36.658 -54.381  1.00  0.00    -0.326 OA
HETATM   22  C   UNL     1     -34.425  36.909 -55.785  1.00  0.00     0.213 C 
ENDBRANCH  19  21
ENDBRANCH   3  19
BRANCH   2  23
HETATM   23  O   UNL     1     -32.224  40.426 -55.219  1.00  0.00    -0.389 OA
HETATM   24  H   UNL     1     -32.238  41.346 -54.908  1.00  0.00     0.210 HD
ENDBRANCH   2  23
BRANCH  10  25
HETATM   25  O   UNL     1     -37.172  42.138 -52.908  1.00  0.00    -0.343 OA
HETATM   26  H   UNL     1     -37.393  42.852 -52.286  1.00  0.00     0.219 HD
ENDBRANCH  10  25
TORSDOF 5
ENDMDL
MODEL 8
REMARK VINA RESULT:      -6.4      3.371      5.179
REMARK  5 active torsions:
REMARK  status: ('A' for Active; 'I' for Inactive)
REMARK    1  A    between atoms: C_2  and  O_3 
REMARK    2  A    between atoms: C_4  and  C_5 
REMARK    3  A    between atoms: C_5  and  O_6 
REMARK    4  A    between atoms: C_9  and  C_10 
REMARK    5  A    between atoms: C_22  and  O_23 
ROOT
HETATM    1  C   UNL     1     -43.427  54.961 -50.633  1.00  0.00     0.047 C 
HETATM    2  C   UNL     1     -42.795  55.775 -51.775  1.00  0.00     0.073 C 
HETATM    3  C   UNL     1     -43.863  56.601 -52.568  1.00  0.00     0.133 C 
HETATM    4  C   UNL     1     -43.328  57.652 -53.587  1.00  0.00     0.074 C 
HETATM    5  C   UNL     1     -41.973  58.148 -53.228  1.00  0.00     0.030 A 
HETATM    6  C   UNL     1     -41.223  57.666 -52.178  1.00  0.00     0.042 A 
HETATM    7  N   UNL     1     -40.070  58.400 -52.143  1.00  0.00    -0.279 N 
HETATM    8  H   UNL     1     -39.294  58.333 -51.492  1.00  0.00     0.189 HD
HETATM    9  N   UNL     1     -40.021  59.342 -53.109  1.00  0.00    -0.149 NA
HETATM   10  C   UNL     1     -41.185  59.188 -53.726  1.00  0.00     0.190 A 
HETATM   11  C   UNL     1     -41.612  56.613 -51.209  1.00  0.00     0.097 C 
ENDROOT
BRANCH   4  12
HETATM   12  C   UNL     1     -43.291  57.130 -55.023  1.00  0.00    -0.048 A 
HETATM   13  C   UNL     1     -44.012  57.846 -55.999  1.00  0.00     0.009 A 
HETATM   14  C   UNL     1     -44.037  57.430 -57.333  1.00  0.00     0.019 A 
HETATM   15  C   UNL     1     -43.349  56.282 -57.711  1.00  0.00     0.011 A 
HETATM   16 BR   UNL     1     -43.377  55.718 -59.515  1.00  0.00    -0.051 Br
HETATM   17  C   UNL     1     -42.634  55.551 -56.767  1.00  0.00     0.019 A 
HETATM   18  C   UNL     1     -42.605  55.973 -55.435  1.00  0.00     0.009 A 
ENDBRANCH   4  12
BRANCH   3  19
HETATM   19  C   UNL     1     -44.764  57.346 -51.605  1.00  0.00     0.266 C 
HETATM   20  O   UNL     1     -45.136  56.918 -50.521  1.00  0.00    -0.265 OA
BRANCH  19  21
HETATM   21  O   UNL     1     -45.103  58.560 -52.121  1.00  0.00    -0.326 OA
HETATM   22  C   UNL     1     -45.327  59.575 -51.141  1.00  0.00     0.213 C 
ENDBRANCH  19  21
ENDBRANCH   3  19
BRANCH   2  23
HETATM   23  O   UNL     1     -42.260  54.768 -52.659  1.00  0.00    -0.389 OA
HETATM   24  H   UNL     1     -42.984  54.170 -52.909  1.00  0.00     0.210 HD
ENDBRANCH   2  23
BRANCH  10  25
HETATM   25  O   UNL     1     -41.425  60.043 -54.714  1.00  0.00    -0.343 OA
HETATM   26  H   UNL     1     -41.571  59.480 -55.493  1.00  0.00     0.219 HD
ENDBRANCH  10  25
TORSDOF 5
ENDMDL
MODEL 9
REMARK VINA RESULT:      -6.4     15.699     18.502
REMARK  5 active torsions:
REMARK  status: ('A' for Active; 'I' for Inactive)
REMARK    1  A    between atoms: C_2  and  O_3 
REMARK    2  A    between atoms: C_4  and  C_5 
REMARK    3  A    between atoms: C_5  and  O_6 
REMARK    4  A    between atoms: C_9  and  C_10 
REMARK    5  A    between atoms: C_22  and  O_23 
ROOT
HETATM    1  C   UNL     1     -33.715  37.540 -55.659  1.00  0.00     0.047 C 
HETATM    2  C   UNL     1     -34.097  38.433 -54.466  1.00  0.00     0.073 C 
HETATM    3  C   UNL     1     -32.847  39.132 -53.832  1.00  0.00     0.133 C 
HETATM    4  C   UNL     1     -33.122  40.248 -52.779  1.00  0.00     0.074 C 
HETATM    5  C   UNL     1     -34.444  40.899 -52.978  1.00  0.00     0.030 A 
HETATM    6  C   UNL     1     -35.372  40.502 -53.914  1.00  0.00     0.042 A 
HETATM    7  N   UNL     1     -36.427  41.368 -53.822  1.00  0.00    -0.279 N 
HETATM    8  H   UNL     1     -37.282  41.388 -54.369  1.00  0.00     0.189 HD
HETATM    9  N   UNL     1     -36.241  42.316 -52.880  1.00  0.00    -0.149 NA
HETATM   10  C   UNL     1     -35.035  42.030 -52.409  1.00  0.00     0.190 A 
HETATM   11  C   UNL     1     -35.236  39.401 -54.899  1.00  0.00     0.097 C 
ENDROOT
BRANCH   4  12
HETATM   12  C   UNL     1     -33.038  39.746 -51.338  1.00  0.00    -0.048 A 
HETATM   13  C   UNL     1     -31.838  39.975 -50.634  1.00  0.00     0.009 A 
HETATM   14  C   UNL     1     -31.677  39.540 -49.316  1.00  0.00     0.019 A 
HETATM   15  C   UNL     1     -32.710  38.857 -48.683  1.00  0.00     0.011 A 
HETATM   16 BR   UNL     1     -32.498  38.271 -46.899  1.00  0.00    -0.051 Br
HETATM   17  C   UNL     1     -33.903  38.611 -49.356  1.00  0.00     0.019 A 
HETATM   18  C   UNL     1     -34.065  39.054 -50.672  1.00  0.00     0.009 A 
ENDBRANCH   4  12
BRANCH   3  19
HETATM   19  C   UNL     1     -31.995  39.756 -54.917  1.00  0.00     0.266 C 
HETATM   20  O   UNL     1     -32.300  40.751 -55.561  1.00  0.00    -0.265 OA
BRANCH  19  21
HETATM   21  O   UNL     1     -30.842  39.049 -55.076  1.00  0.00    -0.326 OA
HETATM   22  C   UNL     1     -30.225  39.207 -56.355  1.00  0.00     0.213 C 
ENDBRANCH  19  21
ENDBRANCH   3  19
BRANCH   2  23
HETATM   23  O   UNL     1     -34.629  37.504 -53.499  1.00  0.00    -0.389 OA
HETATM   24  H   UNL     1     -35.015  38.016 -52.769  1.00  0.00     0.210 HD
ENDBRANCH   2  23
BRANCH  10  25
HETATM   25  O   UNL     1     -34.574  42.858 -51.480  1.00  0.00    -0.343 OA
HETATM   26  H   UNL     1     -33.711  43.150 -51.819  1.00  0.00     0.219 HD
ENDBRANCH  10  25
TORSDOF 5
ENDMDL
MODEL 10
REMARK VINA RESULT:      -6.4      4.503      6.191
REMARK  5 active torsions:
REMARK  status: ('A' for Active; 'I' for Inactive)
REMARK    1  A    between atoms: C_2  and  O_3 
REMARK    2  A    between atoms: C_4  and  C_5 
REMARK    3  A    between atoms: C_5  and  O_6 
REMARK    4  A    between atoms: C_9  and  C_10 
REMARK    5  A    between atoms: C_22  and  O_23 
ROOT
HETATM    1  C   UNL     1     -41.736  58.866 -60.850  1.00  0.00     0.047 C 
HETATM    2  C   UNL     1     -42.650  58.225 -59.792  1.00  0.00     0.073 C 
HETATM    3  C   UNL     1     -42.330  58.741 -58.349  1.00  0.00     0.133 C 
HETATM    4  C   UNL     1     -43.338  58.360 -57.223  1.00  0.00     0.074 C 
HETATM    5  C   UNL     1     -44.709  58.121 -57.749  1.00  0.00     0.030 A 
HETATM    6  C   UNL     1     -45.039  58.128 -59.087  1.00  0.00     0.042 A 
HETATM    7  N   UNL     1     -46.388  57.918 -59.165  1.00  0.00    -0.279 N 
HETATM    8  H   UNL     1     -46.978  57.878 -59.990  1.00  0.00     0.189 HD
HETATM    9  N   UNL     1     -46.965  57.777 -57.953  1.00  0.00    -0.149 NA
HETATM   10  C   UNL     1     -45.942  57.931 -57.122  1.00  0.00     0.190 A 
HETATM   11  C   UNL     1     -44.134  58.396 -60.231  1.00  0.00     0.097 C 
ENDROOT
BRANCH   4  12
HETATM   12  C   UNL     1     -42.905  57.135 -56.419  1.00  0.00    -0.048 A 
HETATM   13  C   UNL     1     -42.241  57.356 -55.195  1.00  0.00     0.009 A 
HETATM   14  C   UNL     1     -41.803  56.291 -54.404  1.00  0.00     0.019 A 
HETATM   15  C   UNL     1     -42.013  54.984 -54.831  1.00  0.00     0.011 A 
HETATM   16 BR   UNL     1     -41.427  53.539 -53.762  1.00  0.00    -0.051 Br
HETATM   17  C   UNL     1     -42.660  54.735 -56.037  1.00  0.00     0.019 A 
HETATM   18  C   UNL     1     -43.103  55.803 -56.824  1.00  0.00     0.009 A 
ENDBRANCH   4  12
BRANCH   3  19
HETATM   19  C   UNL     1     -42.226  60.252 -58.348  1.00  0.00     0.266 C 
HETATM   20  O   UNL     1     -43.141  61.016 -58.623  1.00  0.00    -0.265 OA
BRANCH  19  21
HETATM   21  O   UNL     1     -40.966  60.637 -58.002  1.00  0.00    -0.326 OA
HETATM   22  C   UNL     1     -40.601  61.939 -58.463  1.00  0.00     0.213 C 
ENDBRANCH  19  21
ENDBRANCH   3  19
BRANCH   2  23
HETATM   23  O   UNL     1     -42.315  56.823 -59.852  1.00  0.00    -0.389 OA
HETATM   24  H   UNL     1     -41.780  56.607 -59.071  1.00  0.00     0.210 HD
ENDBRANCH   2  23
BRANCH  10  25
HETATM   25  O   UNL     1     -46.245  57.886 -55.830  1.00  0.00    -0.343 OA
HETATM   26  H   UNL     1     -47.161  58.207 -55.783  1.00  0.00     0.219 HD
ENDBRANCH  10  25
TORSDOF 5
ENDMDL
