MODEL 1
REMARK VINA RESULT:      -8.1      0.000      0.000
REMARK  3 active torsions:
REMARK  status: ('A' for Active; 'I' for Inactive)
REMARK    1  A    between atoms: C_4  and  C_5 
REMARK    2  A    between atoms: C_9  and  C_10 
REMARK       I    between atoms: C_10  and  N_11 
REMARK    3  A    between atoms: N_11  and  C_12 
ROOT
HETATM    1  C   UNL     1     -42.094  56.414 -55.546  1.00  0.00     0.276 C 
HETATM    2  N   UNL     1     -42.200  55.922 -56.829  1.00  0.00    -0.317 N 
HETATM    3  O   UNL     1     -42.442  57.532 -55.179  1.00  0.00    -0.266 OA
HETATM    4  H   UNL     1     -41.846  54.971 -56.956  1.00  0.00     0.169 HD
ENDROOT
BRANCH   1   5
HETATM    5  C   UNL     1     -41.490  55.443 -54.620  1.00  0.00     0.147 A 
HETATM    6  N   UNL     1     -41.077  55.793 -53.386  1.00  0.00    -0.169 NA
HETATM    7  N   UNL     1     -40.598  54.648 -52.869  1.00  0.00    -0.277 N 
HETATM    8  C   UNL     1     -40.707  53.557 -53.694  1.00  0.00     0.063 A 
HETATM    9  H   UNL     1     -40.200  54.679 -51.937  1.00  0.00     0.189 HD
HETATM   10  C   UNL     1     -41.268  54.063 -54.852  1.00  0.00     0.071 A 
BRANCH   8  11
HETATM   11  C   UNL     1     -40.277  52.203 -53.334  1.00  0.00    -0.008 A 
HETATM   12  C   UNL     1     -39.841  51.890 -52.037  1.00  0.00     0.014 A 
HETATM   13  C   UNL     1     -39.444  50.590 -51.709  1.00  0.00     0.001 A 
HETATM   14  C   UNL     1     -39.479  49.583 -52.671  1.00  0.00     0.000 A 
HETATM   15  C   UNL     1     -39.912  49.875 -53.960  1.00  0.00     0.001 A 
HETATM   16  C   UNL     1     -40.308  51.175 -54.289  1.00  0.00     0.014 A 
ENDBRANCH   8  11
ENDBRANCH   1   5
BRANCH   2  17
HETATM   17  C   UNL     1     -42.686  56.541 -57.957  1.00  0.00     0.102 A 
HETATM   18  C   UNL     1     -43.616  55.721 -58.826  1.00  0.00     0.218 A 
HETATM   19  O   UNL     1     -43.902  54.571 -58.494  1.00  0.00    -0.284 OA
HETATM   20  C   UNL     1     -44.151  56.360 -60.077  1.00  0.00     0.078 A 
HETATM   21 BR   UNL     1     -45.278  55.391 -61.194  1.00  0.00    -0.045 Br
HETATM   22  C   UNL     1     -43.775  57.621 -60.330  1.00  0.00     0.111 A 
HETATM   23  N   UNL     1     -42.941  58.338 -59.513  1.00  0.00    -0.372 N 
HETATM   24  C   UNL     1     -42.419  57.791 -58.368  1.00  0.00     0.121 A 
HETATM   25  H   UNL     1     -42.684  59.290 -59.765  1.00  0.00     0.164 HD
ENDBRANCH   2  17
TORSDOF 3
ENDMDL
MODEL 2
REMARK VINA RESULT:      -8.1      4.233      5.488
REMARK  3 active torsions:
REMARK  status: ('A' for Active; 'I' for Inactive)
REMARK    1  A    between atoms: C_4  and  C_5 
REMARK    2  A    between atoms: C_9  and  C_10 
REMARK       I    between atoms: C_10  and  N_11 
REMARK    3  A    between atoms: N_11  and  C_12 
ROOT
HETATM    1  C   UNL     1     -41.419  57.066 -53.500  1.00  0.00     0.276 C 
HETATM    2  N   UNL     1     -41.894  57.185 -52.211  1.00  0.00    -0.317 N 
HETATM    3  O   UNL     1     -41.355  57.973 -54.324  1.00  0.00    -0.266 OA
HETATM    4  H   UNL     1     -41.886  56.318 -51.669  1.00  0.00     0.169 HD
ENDROOT
BRANCH   1   5
HETATM    5  C   UNL     1     -40.991  55.694 -53.817  1.00  0.00     0.147 A 
HETATM    6  N   UNL     1     -40.614  55.331 -55.059  1.00  0.00    -0.169 NA
HETATM    7  N   UNL     1     -40.303  54.029 -54.934  1.00  0.00    -0.277 N 
HETATM    8  C   UNL     1     -40.426  53.530 -53.662  1.00  0.00     0.063 A 
HETATM    9  H   UNL     1     -40.013  53.530 -55.767  1.00  0.00     0.189 HD
HETATM   10  C   UNL     1     -40.897  54.599 -52.923  1.00  0.00     0.071 A 
BRANCH   8  11
HETATM   11  C   UNL     1     -40.117  52.149 -53.284  1.00  0.00    -0.008 A 
HETATM   12  C   UNL     1     -39.788  51.803 -51.963  1.00  0.00     0.014 A 
HETATM   13  C   UNL     1     -39.505  50.478 -51.618  1.00  0.00     0.001 A 
HETATM   14  C   UNL     1     -39.550  49.477 -52.586  1.00  0.00     0.000 A 
HETATM   15  C   UNL     1     -39.878  49.801 -53.898  1.00  0.00     0.001 A 
HETATM   16  C   UNL     1     -40.159  51.126 -54.244  1.00  0.00     0.014 A 
ENDBRANCH   8  11
ENDBRANCH   1   5
BRANCH   2  17
HETATM   17  C   UNL     1     -42.398  58.294 -51.573  1.00  0.00     0.102 A 
HETATM   18  C   UNL     1     -43.863  58.596 -51.808  1.00  0.00     0.218 A 
HETATM   19  O   UNL     1     -44.529  57.853 -52.530  1.00  0.00    -0.284 OA
HETATM   20  C   UNL     1     -44.444  59.811 -51.142  1.00  0.00     0.078 A 
HETATM   21 BR   UNL     1     -46.231  60.243 -51.414  1.00  0.00    -0.045 Br
HETATM   22  C   UNL     1     -43.622  60.539 -50.372  1.00  0.00     0.111 A 
HETATM   23  N   UNL     1     -42.304  60.228 -50.171  1.00  0.00    -0.372 N 
HETATM   24  C   UNL     1     -41.729  59.135 -50.770  1.00  0.00     0.121 A 
HETATM   25  H   UNL     1     -41.728  60.826 -49.583  1.00  0.00     0.164 HD
ENDBRANCH   2  17
TORSDOF 3
ENDMDL
MODEL 3
REMARK VINA RESULT:      -7.9      1.660      1.959
REMARK  3 active torsions:
REMARK  status: ('A' for Active; 'I' for Inactive)
REMARK    1  A    between atoms: C_4  and  C_5 
REMARK    2  A    between atoms: C_9  and  C_10 
REMARK       I    between atoms: C_10  and  N_11 
REMARK    3  A    between atoms: N_11  and  C_12 
ROOT
HETATM    1  C   UNL     1     -42.785  56.036 -55.986  1.00  0.00     0.276 C 
HETATM    2  N   UNL     1     -42.459  55.952 -57.323  1.00  0.00    -0.317 N 
HETATM    3  O   UNL     1     -43.704  56.697 -55.515  1.00  0.00    -0.266 OA
HETATM    4  H   UNL     1     -41.650  55.363 -57.532  1.00  0.00     0.169 HD
ENDROOT
BRANCH   1   5
HETATM    5  C   UNL     1     -41.885  55.238 -55.137  1.00  0.00     0.147 A 
HETATM    6  N   UNL     1     -40.970  55.809 -54.329  1.00  0.00    -0.169 NA
HETATM    7  N   UNL     1     -40.366  54.764 -53.737  1.00  0.00    -0.277 N 
HETATM    8  C   UNL     1     -40.864  53.536 -54.093  1.00  0.00     0.063 A 
HETATM    9  H   UNL     1     -39.607  54.959 -53.093  1.00  0.00     0.189 HD
HETATM   10  C   UNL     1     -41.843  53.826 -55.026  1.00  0.00     0.071 A 
BRANCH   8  11
HETATM   11  C   UNL     1     -40.381  52.262 -53.557  1.00  0.00    -0.008 A 
HETATM   12  C   UNL     1     -39.949  52.139 -52.227  1.00  0.00     0.014 A 
HETATM   13  C   UNL     1     -39.500  50.912 -51.729  1.00  0.00     0.001 A 
HETATM   14  C   UNL     1     -39.479  49.788 -52.552  1.00  0.00     0.000 A 
HETATM   15  C   UNL     1     -39.907  49.891 -53.871  1.00  0.00     0.001 A 
HETATM   16  C   UNL     1     -40.354  51.118 -54.370  1.00  0.00     0.014 A 
ENDBRANCH   8  11
ENDBRANCH   1   5
BRANCH   2  17
HETATM   17  C   UNL     1     -43.051  56.572 -58.399  1.00  0.00     0.102 A 
HETATM   18  C   UNL     1     -42.495  57.927 -58.783  1.00  0.00     0.218 A 
HETATM   19  O   UNL     1     -41.556  58.403 -58.144  1.00  0.00    -0.284 OA
HETATM   20  C   UNL     1     -43.130  58.643 -59.942  1.00  0.00     0.078 A 
HETATM   21 BR   UNL     1     -42.503  60.320 -60.442  1.00  0.00    -0.045 Br
HETATM   22  C   UNL     1     -44.141  58.021 -60.565  1.00  0.00     0.111 A 
HETATM   23  N   UNL     1     -44.610  56.788 -60.198  1.00  0.00    -0.372 N 
HETATM   24  C   UNL     1     -44.068  56.104 -59.138  1.00  0.00     0.121 A 
HETATM   25  H   UNL     1     -45.388  56.372 -60.705  1.00  0.00     0.164 HD
ENDBRANCH   2  17
TORSDOF 3
ENDMDL
MODEL 4
REMARK VINA RESULT:      -7.8      2.469      3.264
REMARK  3 active torsions:
REMARK  status: ('A' for Active; 'I' for Inactive)
REMARK    1  A    between atoms: C_4  and  C_5 
REMARK    2  A    between atoms: C_9  and  C_10 
REMARK       I    between atoms: C_10  and  N_11 
REMARK    3  A    between atoms: N_11  and  C_12 
ROOT
HETATM    1  C   UNL     1     -43.223  56.955 -56.410  1.00  0.00     0.276 C 
HETATM    2  N   UNL     1     -42.135  57.272 -57.194  1.00  0.00    -0.317 N 
HETATM    3  O   UNL     1     -44.356  57.407 -56.544  1.00  0.00    -0.266 OA
HETATM    4  H   UNL     1     -41.263  56.809 -56.927  1.00  0.00     0.169 HD
ENDROOT
BRANCH   1   5
HETATM    5  C   UNL     1     -42.889  55.996 -55.344  1.00  0.00     0.147 A 
HETATM    6  N   UNL     1     -43.663  55.841 -54.252  1.00  0.00    -0.169 NA
HETATM    7  N   UNL     1     -43.029  54.894 -53.539  1.00  0.00    -0.277 N 
HETATM    8  C   UNL     1     -41.894  54.397 -54.128  1.00  0.00     0.063 A 
HETATM    9  H   UNL     1     -43.426  54.629 -52.645  1.00  0.00     0.189 HD
HETATM   10  C   UNL     1     -41.774  55.123 -55.299  1.00  0.00     0.071 A 
BRANCH   8  11
HETATM   11  C   UNL     1     -41.057  53.343 -53.550  1.00  0.00    -0.008 A 
HETATM   12  C   UNL     1     -40.537  52.302 -54.335  1.00  0.00     0.014 A 
HETATM   13  C   UNL     1     -39.732  51.309 -53.768  1.00  0.00     0.001 A 
HETATM   14  C   UNL     1     -39.432  51.343 -52.409  1.00  0.00     0.000 A 
HETATM   15  C   UNL     1     -39.936  52.369 -51.616  1.00  0.00     0.001 A 
HETATM   16  C   UNL     1     -40.742  53.361 -52.183  1.00  0.00     0.014 A 
ENDBRANCH   8  11
ENDBRANCH   1   5
BRANCH   2  17
HETATM   17  C   UNL     1     -42.058  58.141 -58.257  1.00  0.00     0.102 A 
HETATM   18  C   UNL     1     -41.773  59.590 -57.922  1.00  0.00     0.218 A 
HETATM   19  O   UNL     1     -41.615  59.922 -56.747  1.00  0.00    -0.284 OA
HETATM   20  C   UNL     1     -41.700  60.571 -59.058  1.00  0.00     0.078 A 
HETATM   21 BR   UNL     1     -41.377  62.367 -58.703  1.00  0.00    -0.045 Br
HETATM   22  C   UNL     1     -41.881  60.089 -60.296  1.00  0.00     0.111 A 
HETATM   23  N   UNL     1     -42.124  58.768 -60.563  1.00  0.00    -0.372 N 
HETATM   24  C   UNL     1     -42.211  57.840 -59.556  1.00  0.00     0.121 A 
HETATM   25  H   UNL     1     -42.263  58.465 -61.525  1.00  0.00     0.164 HD
ENDBRANCH   2  17
TORSDOF 3
ENDMDL
MODEL 5
REMARK VINA RESULT:      -7.5      2.106      2.256
REMARK  3 active torsions:
REMARK  status: ('A' for Active; 'I' for Inactive)
REMARK    1  A    between atoms: C_4  and  C_5 
REMARK    2  A    between atoms: C_9  and  C_10 
REMARK       I    between atoms: C_10  and  N_11 
REMARK    3  A    between atoms: N_11  and  C_12 
ROOT
HETATM    1  C   UNL     1     -42.542  56.954 -53.935  1.00  0.00     0.276 C 
HETATM    2  N   UNL     1     -43.371  56.585 -54.972  1.00  0.00    -0.317 N 
HETATM    3  O   UNL     1     -42.387  58.097 -53.517  1.00  0.00    -0.266 OA
HETATM    4  H   UNL     1     -43.363  55.586 -55.194  1.00  0.00     0.169 HD
ENDROOT
BRANCH   1   5
HETATM    5  C   UNL     1     -41.820  55.809 -53.357  1.00  0.00     0.147 A 
HETATM    6  N   UNL     1     -41.271  55.856 -52.127  1.00  0.00    -0.169 NA
HETATM    7  N   UNL     1     -40.718  54.641 -51.974  1.00  0.00    -0.277 N 
HETATM    8  C   UNL     1     -40.908  53.787 -53.031  1.00  0.00     0.063 A 
HETATM    9  H   UNL     1     -40.215  54.454 -51.114  1.00  0.00     0.189 HD
HETATM   10  C   UNL     1     -41.607  54.542 -53.955  1.00  0.00     0.071 A 
BRANCH   8  11
HETATM   11  C   UNL     1     -40.420  52.406 -53.076  1.00  0.00    -0.008 A 
HETATM   12  C   UNL     1     -39.883  51.778 -51.942  1.00  0.00     0.014 A 
HETATM   13  C   UNL     1     -39.431  50.456 -52.000  1.00  0.00     0.001 A 
HETATM   14  C   UNL     1     -39.512  49.741 -53.192  1.00  0.00     0.000 A 
HETATM   15  C   UNL     1     -40.045  50.346 -54.325  1.00  0.00     0.001 A 
HETATM   16  C   UNL     1     -40.496  51.669 -54.267  1.00  0.00     0.014 A 
ENDBRANCH   8  11
ENDBRANCH   1   5
BRANCH   2  17
HETATM   17  C   UNL     1     -44.175  57.374 -55.761  1.00  0.00     0.102 A 
HETATM   18  C   UNL     1     -43.770  57.506 -57.214  1.00  0.00     0.218 A 
HETATM   19  O   UNL     1     -42.773  56.912 -57.623  1.00  0.00    -0.284 OA
HETATM   20  C   UNL     1     -44.615  58.376 -58.101  1.00  0.00     0.078 A 
HETATM   21 BR   UNL     1     -44.151  58.594 -59.887  1.00  0.00    -0.045 Br
HETATM   22  C   UNL     1     -45.682  58.966 -57.543  1.00  0.00     0.111 A 
HETATM   23  N   UNL     1     -46.026  58.813 -56.226  1.00  0.00    -0.372 N 
HETATM   24  C   UNL     1     -45.276  58.039 -55.377  1.00  0.00     0.121 A 
HETATM   25  H   UNL     1     -46.843  59.296 -55.859  1.00  0.00     0.164 HD
ENDBRANCH   2  17
TORSDOF 3
ENDMDL
MODEL 6
REMARK VINA RESULT:      -7.4      4.980      5.753
REMARK  3 active torsions:
REMARK  status: ('A' for Active; 'I' for Inactive)
REMARK    1  A    between atoms: C_4  and  C_5 
REMARK    2  A    between atoms: C_9  and  C_10 
REMARK       I    between atoms: C_10  and  N_11 
REMARK    3  A    between atoms: N_11  and  C_12 
ROOT
HETATM    1  C   UNL     1     -41.738  56.994 -52.706  1.00  0.00     0.276 C 
HETATM    2  N   UNL     1     -42.831  57.382 -51.962  1.00  0.00    -0.317 N 
HETATM    3  O   UNL     1     -41.210  57.652 -53.597  1.00  0.00    -0.266 OA
HETATM    4  H   UNL     1     -43.145  56.697 -51.270  1.00  0.00     0.169 HD
ENDROOT
BRANCH   1   5
HETATM    5  C   UNL     1     -41.247  55.657 -52.331  1.00  0.00     0.147 A 
HETATM    6  N   UNL     1     -40.962  55.333 -51.054  1.00  0.00    -0.169 NA
HETATM    7  N   UNL     1     -40.555  54.054 -51.130  1.00  0.00    -0.277 N 
HETATM    8  C   UNL     1     -40.592  53.514 -52.391  1.00  0.00     0.063 A 
HETATM    9  H   UNL     1     -40.258  53.601 -50.273  1.00  0.00     0.189 HD
HETATM   10  C   UNL     1     -41.021  54.556 -53.193  1.00  0.00     0.071 A 
BRANCH   8  11
HETATM   11  C   UNL     1     -40.221  52.133 -52.709  1.00  0.00    -0.008 A 
HETATM   12  C   UNL     1     -40.245  51.650 -54.027  1.00  0.00     0.014 A 
HETATM   13  C   UNL     1     -39.879  50.331 -54.314  1.00  0.00     0.001 A 
HETATM   14  C   UNL     1     -39.478  49.477 -53.289  1.00  0.00     0.000 A 
HETATM   15  C   UNL     1     -39.444  49.941 -51.978  1.00  0.00     0.001 A 
HETATM   16  C   UNL     1     -39.813  51.259 -51.691  1.00  0.00     0.014 A 
ENDBRANCH   8  11
ENDBRANCH   1   5
BRANCH   2  17
HETATM   17  C   UNL     1     -43.568  58.541 -52.044  1.00  0.00     0.102 A 
HETATM   18  C   UNL     1     -43.033  59.731 -51.277  1.00  0.00     0.218 A 
HETATM   19  O   UNL     1     -41.986  59.623 -50.638  1.00  0.00    -0.284 OA
HETATM   20  C   UNL     1     -43.822  61.010 -51.328  1.00  0.00     0.078 A 
HETATM   21 BR   UNL     1     -43.226  62.496 -50.386  1.00  0.00    -0.045 Br
HETATM   22  C   UNL     1     -44.943  61.008 -52.063  1.00  0.00     0.111 A 
HETATM   23  N   UNL     1     -45.390  59.914 -52.756  1.00  0.00    -0.372 N 
HETATM   24  C   UNL     1     -44.708  58.723 -52.727  1.00  0.00     0.121 A 
HETATM   25  H   UNL     1     -46.254  59.973 -53.289  1.00  0.00     0.164 HD
ENDBRANCH   2  17
TORSDOF 3
ENDMDL
MODEL 7
REMARK VINA RESULT:      -7.2      3.853      4.333
REMARK  3 active torsions:
REMARK  status: ('A' for Active; 'I' for Inactive)
REMARK    1  A    between atoms: C_4  and  C_5 
REMARK    2  A    between atoms: C_9  and  C_10 
REMARK       I    between atoms: C_10  and  N_11 
REMARK    3  A    between atoms: N_11  and  C_12 
ROOT
HETATM    1  C   UNL     1     -41.727  56.926 -52.158  1.00  0.00     0.276 C 
HETATM    2  N   UNL     1     -43.092  56.952 -52.348  1.00  0.00    -0.317 N 
HETATM    3  O   UNL     1     -40.981  57.900 -52.201  1.00  0.00    -0.266 OA
HETATM    4  H   UNL     1     -43.551  56.040 -52.291  1.00  0.00     0.169 HD
ENDROOT
BRANCH   1   5
HETATM    5  C   UNL     1     -41.220  55.568 -51.902  1.00  0.00     0.147 A 
HETATM    6  N   UNL     1     -40.910  55.142 -50.662  1.00  0.00    -0.169 NA
HETATM    7  N   UNL     1     -40.495  53.878 -50.849  1.00  0.00    -0.277 N 
HETATM    8  C   UNL     1     -40.551  53.443 -52.149  1.00  0.00     0.063 A 
HETATM    9  H   UNL     1     -40.180  53.358 -50.038  1.00  0.00     0.189 HD
HETATM   10  C   UNL     1     -41.001  54.543 -52.856  1.00  0.00     0.071 A 
BRANCH   8  11
HETATM   11  C   UNL     1     -40.175  52.096 -52.587  1.00  0.00    -0.008 A 
HETATM   12  C   UNL     1     -39.686  51.139 -51.684  1.00  0.00     0.014 A 
HETATM   13  C   UNL     1     -39.341  49.855 -52.117  1.00  0.00     0.001 A 
HETATM   14  C   UNL     1     -39.484  49.506 -53.458  1.00  0.00     0.000 A 
HETATM   15  C   UNL     1     -39.972  50.441 -54.366  1.00  0.00     0.001 A 
HETATM   16  C   UNL     1     -40.314  51.726 -53.933  1.00  0.00     0.014 A 
ENDBRANCH   8  11
ENDBRANCH   1   5
BRANCH   2  17
HETATM   17  C   UNL     1     -43.907  58.023 -52.631  1.00  0.00     0.102 A 
HETATM   18  C   UNL     1     -44.221  58.260 -54.093  1.00  0.00     0.218 A 
HETATM   19  O   UNL     1     -43.759  57.502 -54.945  1.00  0.00    -0.284 OA
HETATM   20  C   UNL     1     -45.094  59.434 -54.441  1.00  0.00     0.078 A 
HETATM   21 BR   UNL     1     -45.493  59.786 -56.222  1.00  0.00    -0.045 Br
HETATM   22  C   UNL     1     -45.544  60.185 -53.426  1.00  0.00     0.111 A 
HETATM   23  N   UNL     1     -45.249  59.932 -52.112  1.00  0.00    -0.372 N 
HETATM   24  C   UNL     1     -44.446  58.880 -51.750  1.00  0.00     0.121 A 
HETATM   25  H   UNL     1     -45.614  60.545 -51.387  1.00  0.00     0.164 HD
ENDBRANCH   2  17
TORSDOF 3
ENDMDL
MODEL 8
REMARK VINA RESULT:      -7.1      5.111      6.268
REMARK  3 active torsions:
REMARK  status: ('A' for Active; 'I' for Inactive)
REMARK    1  A    between atoms: C_4  and  C_5 
REMARK    2  A    between atoms: C_9  and  C_10 
REMARK       I    between atoms: C_10  and  N_11 
REMARK    3  A    between atoms: N_11  and  C_12 
ROOT
HETATM    1  C   UNL     1     -43.098  57.992 -51.331  1.00  0.00     0.276 C 
HETATM    2  N   UNL     1     -44.434  58.234 -51.093  1.00  0.00    -0.317 N 
HETATM    3  O   UNL     1     -42.229  58.848 -51.463  1.00  0.00    -0.266 OA
HETATM    4  H   UNL     1     -45.017  57.397 -51.025  1.00  0.00     0.169 HD
ENDROOT
BRANCH   1   5
HETATM    5  C   UNL     1     -42.797  56.554 -51.430  1.00  0.00     0.147 A 
HETATM    6  N   UNL     1     -43.570  55.619 -50.844  1.00  0.00    -0.169 NA
HETATM    7  N   UNL     1     -42.972  54.459 -51.164  1.00  0.00    -0.277 N 
HETATM    8  C   UNL     1     -41.862  54.587 -51.961  1.00  0.00     0.063 A 
HETATM    9  H   UNL     1     -43.374  53.602 -50.800  1.00  0.00     0.189 HD
HETATM   10  C   UNL     1     -41.719  55.952 -52.126  1.00  0.00     0.071 A 
BRANCH   8  11
HETATM   11  C   UNL     1     -41.067  53.461 -52.457  1.00  0.00    -0.008 A 
HETATM   12  C   UNL     1     -41.115  53.061 -53.802  1.00  0.00     0.014 A 
HETATM   13  C   UNL     1     -40.341  51.989 -54.259  1.00  0.00     0.001 A 
HETATM   14  C   UNL     1     -39.506  51.304 -53.381  1.00  0.00     0.000 A 
HETATM   15  C   UNL     1     -39.442  51.689 -52.046  1.00  0.00     0.001 A 
HETATM   16  C   UNL     1     -40.217  52.759 -51.588  1.00  0.00     0.014 A 
ENDBRANCH   8  11
ENDBRANCH   1   5
BRANCH   2  17
HETATM   17  C   UNL     1     -45.086  59.439 -50.964  1.00  0.00     0.102 A 
HETATM   18  C   UNL     1     -45.612  60.057 -52.242  1.00  0.00     0.218 A 
HETATM   19  O   UNL     1     -45.450  59.471 -53.313  1.00  0.00    -0.284 OA
HETATM   20  C   UNL     1     -46.313  61.383 -52.143  1.00  0.00     0.078 A 
HETATM   21 BR   UNL     1     -46.957  62.200 -53.683  1.00  0.00    -0.045 Br
HETATM   22  C   UNL     1     -46.435  61.921 -50.921  1.00  0.00     0.111 A 
HETATM   23  N   UNL     1     -45.957  61.326 -49.784  1.00  0.00    -0.372 N 
HETATM   24  C   UNL     1     -45.300  60.122 -49.829  1.00  0.00     0.121 A 
HETATM   25  H   UNL     1     -46.072  61.789 -48.885  1.00  0.00     0.164 HD
ENDBRANCH   2  17
TORSDOF 3
ENDMDL
MODEL 9
REMARK VINA RESULT:      -7.1     14.390     15.718
REMARK  3 active torsions:
REMARK  status: ('A' for Active; 'I' for Inactive)
REMARK    1  A    between atoms: C_4  and  C_5 
REMARK    2  A    between atoms: C_9  and  C_10 
REMARK       I    between atoms: C_10  and  N_11 
REMARK    3  A    between atoms: N_11  and  C_12 
ROOT
HETATM    1  C   UNL     1     -36.849  41.376 -55.583  1.00  0.00     0.276 C 
HETATM    2  N   UNL     1     -36.088  41.105 -56.700  1.00  0.00    -0.317 N 
HETATM    3  O   UNL     1     -38.068  41.513 -55.565  1.00  0.00    -0.266 OA
HETATM    4  H   UNL     1     -35.082  41.037 -56.529  1.00  0.00     0.169 HD
ENDROOT
BRANCH   1   5
HETATM    5  C   UNL     1     -36.032  41.504 -54.364  1.00  0.00     0.147 A 
HETATM    6  N   UNL     1     -35.978  42.649 -53.657  1.00  0.00    -0.169 NA
HETATM    7  N   UNL     1     -35.145  42.362 -52.642  1.00  0.00    -0.277 N 
HETATM    8  C   UNL     1     -34.677  41.072 -52.631  1.00  0.00     0.063 A 
HETATM    9  H   UNL     1     -34.931  43.101 -51.981  1.00  0.00     0.189 HD
HETATM   10  C   UNL     1     -35.229  40.503 -53.764  1.00  0.00     0.071 A 
BRANCH   8  11
HETATM   11  C   UNL     1     -33.780  40.527 -51.609  1.00  0.00    -0.008 A 
HETATM   12  C   UNL     1     -32.386  40.544 -51.768  1.00  0.00     0.014 A 
HETATM   13  C   UNL     1     -31.545  40.028 -50.777  1.00  0.00     0.001 A 
HETATM   14  C   UNL     1     -32.084  39.490 -49.611  1.00  0.00     0.000 A 
HETATM   15  C   UNL     1     -33.464  39.469 -49.435  1.00  0.00     0.001 A 
HETATM   16  C   UNL     1     -34.305  39.983 -50.427  1.00  0.00     0.014 A 
ENDBRANCH   8  11
ENDBRANCH   1   5
BRANCH   2  17
HETATM   17  C   UNL     1     -36.492  40.944 -58.005  1.00  0.00     0.102 A 
HETATM   18  C   UNL     1     -36.414  39.539 -58.564  1.00  0.00     0.218 A 
HETATM   19  O   UNL     1     -36.015  38.621 -57.848  1.00  0.00    -0.284 OA
HETATM   20  C   UNL     1     -36.830  39.329 -59.993  1.00  0.00     0.078 A 
HETATM   21 BR   UNL     1     -36.732  37.630 -60.739  1.00  0.00    -0.045 Br
HETATM   22  C   UNL     1     -37.255  40.405 -60.671  1.00  0.00     0.111 A 
HETATM   23  N   UNL     1     -37.325  41.660 -60.128  1.00  0.00    -0.372 N 
HETATM   24  C   UNL     1     -36.944  41.900 -58.831  1.00  0.00     0.121 A 
HETATM   25  H   UNL     1     -37.648  42.439 -60.698  1.00  0.00     0.164 HD
ENDBRANCH   2  17
TORSDOF 3
ENDMDL
MODEL 10
REMARK VINA RESULT:      -7.1      1.790      1.977
REMARK  3 active torsions:
REMARK  status: ('A' for Active; 'I' for Inactive)
REMARK    1  A    between atoms: C_4  and  C_5 
REMARK    2  A    between atoms: C_9  and  C_10 
REMARK       I    between atoms: C_10  and  N_11 
REMARK    3  A    between atoms: N_11  and  C_12 
ROOT
HETATM    1  C   UNL     1     -42.685  57.335 -55.753  1.00  0.00     0.276 C 
HETATM    2  N   UNL     1     -42.769  57.088 -57.106  1.00  0.00    -0.317 N 
HETATM    3  O   UNL     1     -42.712  58.443 -55.227  1.00  0.00    -0.266 OA
HETATM    4  H   UNL     1     -42.715  56.100 -57.367  1.00  0.00     0.169 HD
ENDROOT
BRANCH   1   5
HETATM    5  C   UNL     1     -42.542  56.101 -54.963  1.00  0.00     0.147 A 
HETATM    6  N   UNL     1     -43.591  55.515 -54.355  1.00  0.00    -0.169 NA
HETATM    7  N   UNL     1     -43.056  54.439 -53.753  1.00  0.00    -0.277 N 
HETATM    8  C   UNL     1     -41.711  54.273 -53.967  1.00  0.00     0.063 A 
HETATM    9  H   UNL     1     -43.670  53.850 -53.202  1.00  0.00     0.189 HD
HETATM   10  C   UNL     1     -41.353  55.364 -54.737  1.00  0.00     0.071 A 
BRANCH   8  11
HETATM   11  C   UNL     1     -40.921  53.160 -53.434  1.00  0.00    -0.008 A 
HETATM   12  C   UNL     1     -40.463  53.150 -52.107  1.00  0.00     0.014 A 
HETATM   13  C   UNL     1     -39.719  52.075 -51.613  1.00  0.00     0.001 A 
HETATM   14  C   UNL     1     -39.424  50.991 -52.436  1.00  0.00     0.000 A 
HETATM   15  C   UNL     1     -39.873  50.982 -53.753  1.00  0.00     0.001 A 
HETATM   16  C   UNL     1     -40.615  52.058 -54.248  1.00  0.00     0.014 A 
ENDBRANCH   8  11
ENDBRANCH   1   5
BRANCH   2  17
HETATM   17  C   UNL     1     -42.884  57.982 -58.145  1.00  0.00     0.102 A 
HETATM   18  C   UNL     1     -44.277  58.193 -58.699  1.00  0.00     0.218 A 
HETATM   19  O   UNL     1     -45.226  57.582 -58.207  1.00  0.00    -0.284 OA
HETATM   20  C   UNL     1     -44.437  59.149 -59.848  1.00  0.00     0.078 A 
HETATM   21 BR   UNL     1     -46.121  59.427 -60.584  1.00  0.00    -0.045 Br
HETATM   22  C   UNL     1     -43.331  59.761 -60.294  1.00  0.00     0.111 A 
HETATM   23  N   UNL     1     -42.087  59.556 -59.759  1.00  0.00    -0.372 N 
HETATM   24  C   UNL     1     -41.892  58.682 -58.718  1.00  0.00     0.121 A 
HETATM   25  H   UNL     1     -41.284  60.043 -60.148  1.00  0.00     0.164 HD
ENDBRANCH   2  17
TORSDOF 3
ENDMDL
