MODEL 1
REMARK VINA RESULT:      -8.2      0.000      0.000
REMARK  6 active torsions:
REMARK  status: ('A' for Active; 'I' for Inactive)
REMARK    1  A    between atoms: O_2  and  C_3 
REMARK    2  A    between atoms: C_3  and  C_4 
REMARK    3  A    between atoms: C_4  and  N_5 
REMARK       I    between atoms: N_5  and  C_6 
REMARK    4  A    between atoms: C_6  and  C_7 
REMARK    5  A    between atoms: C_12  and  C_13 
REMARK    6  A    between atoms: C_22  and  C_23 
ROOT
HETATM    1  C   UNL     1     -43.502  57.034 -56.495  1.00  0.00     0.148 A 
HETATM    2  N   UNL     1     -43.654  57.471 -55.222  1.00  0.00    -0.165 NA
HETATM    3  N   UNL     1     -42.679  56.832 -54.556  1.00  0.00    -0.240 N 
HETATM    4  C   UNL     1     -41.970  55.944 -55.315  1.00  0.00     0.123 A 
HETATM    5  N   UNL     1     -41.038  55.135 -54.766  1.00  0.00    -0.366 N 
HETATM    6  C   UNL     1     -40.737  55.154 -53.338  1.00  0.00     0.118 C 
HETATM    7  C   UNL     1     -41.930  55.707 -52.531  1.00  0.00     0.066 C 
HETATM    8  C   UNL     1     -42.470  57.015 -53.134  1.00  0.00     0.221 C 
HETATM    9  C   UNL     1     -42.442  56.088 -56.592  1.00  0.00     0.088 A 
HETATM   10  H   UNL     1     -40.406  54.590 -55.353  1.00  0.00     0.161 HD
ENDROOT
BRANCH   1  11
HETATM   11  C   UNL     1     -44.373  57.485 -57.590  1.00  0.00     0.272 C 
HETATM   12  N   UNL     1     -44.652  56.502 -58.513  1.00  0.00    -0.354 N 
HETATM   13  H   UNL     1     -44.122  55.641 -58.408  1.00  0.00     0.162 HD
HETATM   14  O   UNL     1     -44.789  58.637 -57.682  1.00  0.00    -0.266 OA
BRANCH  12  15
HETATM   15  C   UNL     1     -45.337  56.777 -59.758  1.00  0.00     0.149 C 
BRANCH  15  16
HETATM   16  C   UNL     1     -45.352  55.568 -60.696  1.00  0.00     0.186 C 
BRANCH  16  17
HETATM   17  O   UNL     1     -46.441  55.701 -61.617  1.00  0.00    -0.394 OA
HETATM   18  C   UNL     1     -47.481  56.505 -61.078  1.00  0.00     0.201 C 
ENDBRANCH  16  17
ENDBRANCH  15  16
ENDBRANCH  12  15
ENDBRANCH   1  11
BRANCH   8  19
HETATM   19  C   UNL     1     -41.545  58.188 -52.897  1.00  0.00     0.409 C 
HETATM   20  F   UNL     1     -40.731  58.430 -53.947  1.00  0.00    -0.169 F 
HETATM   21  F   UNL     1     -42.279  59.317 -52.709  1.00  0.00    -0.169 F 
HETATM   22  F   UNL     1     -40.773  58.048 -51.799  1.00  0.00    -0.169 F 
ENDBRANCH   8  19
BRANCH   6  23
HETATM   23  C   UNL     1     -40.393  53.747 -52.873  1.00  0.00    -0.034 A 
HETATM   24  C   UNL     1     -40.229  52.696 -53.795  1.00  0.00     0.034 A 
HETATM   25  C   UNL     1     -39.932  51.398 -53.365  1.00  0.00     0.056 A 
HETATM   26 CL   UNL     1     -39.742  50.175 -54.571  1.00  0.00    -0.083 Cl
HETATM   27  C   UNL     1     -39.802  51.133 -52.000  1.00  0.00     0.055 A 
HETATM   28 CL   UNL     1     -39.440  49.558 -51.390  1.00  0.00    -0.083 Cl
HETATM   29  C   UNL     1     -39.970  52.167 -51.074  1.00  0.00     0.026 A 
HETATM   30  C   UNL     1     -40.264  53.464 -51.506  1.00  0.00     0.011 A 
ENDBRANCH   6  23
TORSDOF 6
ENDMDL
MODEL 2
REMARK VINA RESULT:      -8.1      1.102      1.402
REMARK  6 active torsions:
REMARK  status: ('A' for Active; 'I' for Inactive)
REMARK    1  A    between atoms: O_2  and  C_3 
REMARK    2  A    between atoms: C_3  and  C_4 
REMARK    3  A    between atoms: C_4  and  N_5 
REMARK       I    between atoms: N_5  and  C_6 
REMARK    4  A    between atoms: C_6  and  C_7 
REMARK    5  A    between atoms: C_12  and  C_13 
REMARK    6  A    between atoms: C_22  and  C_23 
ROOT
HETATM    1  C   UNL     1     -43.481  57.280 -55.921  1.00  0.00     0.148 A 
HETATM    2  N   UNL     1     -43.983  57.451 -54.675  1.00  0.00    -0.165 NA
HETATM    3  N   UNL     1     -43.075  56.847 -53.891  1.00  0.00    -0.240 N 
HETATM    4  C   UNL     1     -42.068  56.226 -54.573  1.00  0.00     0.123 A 
HETATM    5  N   UNL     1     -41.145  55.474 -53.936  1.00  0.00    -0.366 N 
HETATM    6  C   UNL     1     -41.169  55.274 -52.490  1.00  0.00     0.118 C 
HETATM    7  C   UNL     1     -42.589  55.491 -51.928  1.00  0.00     0.066 C 
HETATM    8  C   UNL     1     -43.217  56.795 -52.449  1.00  0.00     0.221 C 
HETATM    9  C   UNL     1     -42.270  56.531 -55.892  1.00  0.00     0.088 A 
HETATM   10  H   UNL     1     -40.312  55.143 -54.422  1.00  0.00     0.161 HD
ENDROOT
BRANCH   1  11
HETATM   11  C   UNL     1     -44.162  57.794 -57.120  1.00  0.00     0.272 C 
HETATM   12  N   UNL     1     -44.598  56.804 -57.972  1.00  0.00    -0.354 N 
HETATM   13  H   UNL     1     -44.282  55.864 -57.749  1.00  0.00     0.162 HD
HETATM   14  O   UNL     1     -44.302  58.992 -57.346  1.00  0.00    -0.266 OA
BRANCH  12  15
HETATM   15  C   UNL     1     -45.128  57.090 -59.288  1.00  0.00     0.149 C 
BRANCH  15  16
HETATM   16  C   UNL     1     -44.046  57.074 -60.370  1.00  0.00     0.186 C 
BRANCH  16  17
HETATM   17  O   UNL     1     -43.853  55.728 -60.822  1.00  0.00    -0.394 OA
HETATM   18  C   UNL     1     -45.084  55.125 -61.198  1.00  0.00     0.201 C 
ENDBRANCH  16  17
ENDBRANCH  15  16
ENDBRANCH  12  15
ENDBRANCH   1  11
BRANCH   8  19
HETATM   19  C   UNL     1     -42.596  58.026 -51.827  1.00  0.00     0.409 C 
HETATM   20  F   UNL     1     -43.512  58.963 -51.499  1.00  0.00    -0.169 F 
HETATM   21  F   UNL     1     -41.963  57.685 -50.673  1.00  0.00    -0.169 F 
HETATM   22  F   UNL     1     -41.668  58.613 -52.611  1.00  0.00    -0.169 F 
ENDBRANCH   8  19
BRANCH   6  23
HETATM   23  C   UNL     1     -40.682  53.870 -52.164  1.00  0.00    -0.034 A 
HETATM   24  C   UNL     1     -40.355  52.958 -53.184  1.00  0.00     0.034 A 
HETATM   25  C   UNL     1     -39.925  51.661 -52.883  1.00  0.00     0.056 A 
HETATM   26 CL   UNL     1     -39.540  50.614 -54.203  1.00  0.00    -0.083 Cl
HETATM   27  C   UNL     1     -39.825  51.256 -51.550  1.00  0.00     0.055 A 
HETATM   28 CL   UNL     1     -39.306  49.672 -51.097  1.00  0.00    -0.083 Cl
HETATM   29  C   UNL     1     -40.154  52.151 -50.527  1.00  0.00     0.026 A 
HETATM   30  C   UNL     1     -40.580  53.448 -50.831  1.00  0.00     0.011 A 
ENDBRANCH   6  23
TORSDOF 6
ENDMDL
MODEL 3
REMARK VINA RESULT:      -7.9      3.818      6.084
REMARK  6 active torsions:
REMARK  status: ('A' for Active; 'I' for Inactive)
REMARK    1  A    between atoms: O_2  and  C_3 
REMARK    2  A    between atoms: C_3  and  C_4 
REMARK    3  A    between atoms: C_4  and  N_5 
REMARK       I    between atoms: N_5  and  C_6 
REMARK    4  A    between atoms: C_6  and  C_7 
REMARK    5  A    between atoms: C_12  and  C_13 
REMARK    6  A    between atoms: C_22  and  C_23 
ROOT
HETATM    1  C   UNL     1     -42.741  58.832 -52.066  1.00  0.00     0.148 A 
HETATM    2  N   UNL     1     -42.085  58.715 -53.245  1.00  0.00    -0.165 NA
HETATM    3  N   UNL     1     -42.010  57.387 -53.428  1.00  0.00    -0.240 N 
HETATM    4  C   UNL     1     -42.504  56.648 -52.390  1.00  0.00     0.123 A 
HETATM    5  N   UNL     1     -42.391  55.303 -52.367  1.00  0.00    -0.366 N 
HETATM    6  C   UNL     1     -41.735  54.559 -53.438  1.00  0.00     0.118 C 
HETATM    7  C   UNL     1     -40.743  55.459 -54.204  1.00  0.00     0.066 C 
HETATM    8  C   UNL     1     -41.375  56.805 -54.593  1.00  0.00     0.221 C 
HETATM    9  C   UNL     1     -43.036  57.553 -51.511  1.00  0.00     0.088 A 
HETATM   10  H   UNL     1     -42.894  54.747 -51.675  1.00  0.00     0.161 HD
ENDROOT
BRANCH   1  11
HETATM   11  C   UNL     1     -43.053  60.137 -51.466  1.00  0.00     0.272 C 
HETATM   12  N   UNL     1     -43.560  60.049 -50.188  1.00  0.00    -0.354 N 
HETATM   13  H   UNL     1     -43.786  59.110 -49.871  1.00  0.00     0.162 HD
HETATM   14  O   UNL     1     -42.898  61.200 -52.061  1.00  0.00    -0.266 OA
BRANCH  12  15
HETATM   15  C   UNL     1     -44.099  61.194 -49.486  1.00  0.00     0.149 C 
BRANCH  15  16
HETATM   16  C   UNL     1     -45.614  61.100 -49.293  1.00  0.00     0.186 C 
BRANCH  16  17
HETATM   17  O   UNL     1     -45.901  60.128 -48.280  1.00  0.00    -0.394 OA
HETATM   18  C   UNL     1     -45.889  60.710 -46.984  1.00  0.00     0.201 C 
ENDBRANCH  16  17
ENDBRANCH  15  16
ENDBRANCH  12  15
ENDBRANCH   1  11
BRANCH   8  19
HETATM   19  C   UNL     1     -42.383  56.670 -55.713  1.00  0.00     0.409 C 
HETATM   20  F   UNL     1     -42.311  57.682 -56.604  1.00  0.00    -0.169 F 
HETATM   21  F   UNL     1     -42.141  55.526 -56.409  1.00  0.00    -0.169 F 
HETATM   22  F   UNL     1     -43.658  56.590 -55.280  1.00  0.00    -0.169 F 
ENDBRANCH   8  19
BRANCH   6  23
HETATM   23  C   UNL     1     -41.012  53.357 -52.851  1.00  0.00    -0.034 A 
HETATM   24  C   UNL     1     -40.525  52.326 -53.677  1.00  0.00     0.034 A 
HETATM   25  C   UNL     1     -39.877  51.211 -53.135  1.00  0.00     0.056 A 
HETATM   26 CL   UNL     1     -39.307  50.000 -54.228  1.00  0.00    -0.083 Cl
HETATM   27  C   UNL     1     -39.714  51.109 -51.751  1.00  0.00     0.055 A 
HETATM   28 CL   UNL     1     -38.929  49.764 -51.005  1.00  0.00    -0.083 Cl
HETATM   29  C   UNL     1     -40.200  52.123 -50.920  1.00  0.00     0.026 A 
HETATM   30  C   UNL     1     -40.844  53.238 -51.464  1.00  0.00     0.011 A 
ENDBRANCH   6  23
TORSDOF 6
ENDMDL
MODEL 4
REMARK VINA RESULT:      -7.3      1.483      1.889
REMARK  6 active torsions:
REMARK  status: ('A' for Active; 'I' for Inactive)
REMARK    1  A    between atoms: O_2  and  C_3 
REMARK    2  A    between atoms: C_3  and  C_4 
REMARK    3  A    between atoms: C_4  and  N_5 
REMARK       I    between atoms: N_5  and  C_6 
REMARK    4  A    between atoms: C_6  and  C_7 
REMARK    5  A    between atoms: C_12  and  C_13 
REMARK    6  A    between atoms: C_22  and  C_23 
ROOT
HETATM    1  C   UNL     1     -43.641  56.737 -57.260  1.00  0.00     0.148 A 
HETATM    2  N   UNL     1     -43.925  57.233 -56.032  1.00  0.00    -0.165 NA
HETATM    3  N   UNL     1     -42.955  56.720 -55.259  1.00  0.00    -0.240 N 
HETATM    4  C   UNL     1     -42.119  55.855 -55.907  1.00  0.00     0.123 A 
HETATM    5  N   UNL     1     -41.168  55.164 -55.242  1.00  0.00    -0.366 N 
HETATM    6  C   UNL     1     -40.979  55.292 -53.800  1.00  0.00     0.118 C 
HETATM    7  C   UNL     1     -42.272  55.785 -53.117  1.00  0.00     0.066 C 
HETATM    8  C   UNL     1     -42.871  57.003 -53.840  1.00  0.00     0.221 C 
HETATM    9  C   UNL     1     -42.502  55.883 -57.220  1.00  0.00     0.088 A 
HETATM   10  H   UNL     1     -40.450  54.643 -55.746  1.00  0.00     0.161 HD
ENDROOT
BRANCH   1  11
HETATM   11  C   UNL     1     -44.460  57.047 -58.442  1.00  0.00     0.272 C 
HETATM   12  N   UNL     1     -45.095  58.267 -58.368  1.00  0.00    -0.354 N 
HETATM   13  H   UNL     1     -45.038  58.736 -57.468  1.00  0.00     0.162 HD
HETATM   14  O   UNL     1     -44.584  56.275 -59.389  1.00  0.00    -0.266 OA
BRANCH  12  15
HETATM   15  C   UNL     1     -46.087  58.686 -59.334  1.00  0.00     0.149 C 
BRANCH  15  16
HETATM   16  C   UNL     1     -45.686  59.969 -60.065  1.00  0.00     0.186 C 
BRANCH  16  17
HETATM   17  O   UNL     1     -44.258  60.077 -60.079  1.00  0.00    -0.394 OA
HETATM   18  C   UNL     1     -43.760  60.201 -61.404  1.00  0.00     0.201 C 
ENDBRANCH  16  17
ENDBRANCH  15  16
ENDBRANCH  12  15
ENDBRANCH   1  11
BRANCH   8  19
HETATM   19  C   UNL     1     -42.067  58.264 -53.614  1.00  0.00     0.409 C 
HETATM   20  F   UNL     1     -41.255  58.558 -54.652  1.00  0.00    -0.169 F 
HETATM   21  F   UNL     1     -42.908  59.323 -53.471  1.00  0.00    -0.169 F 
HETATM   22  F   UNL     1     -41.311  58.225 -52.497  1.00  0.00    -0.169 F 
ENDBRANCH   8  19
BRANCH   6  23
HETATM   23  C   UNL     1     -40.557  53.949 -53.223  1.00  0.00    -0.034 A 
HETATM   24  C   UNL     1     -40.348  52.833 -54.054  1.00  0.00     0.034 A 
HETATM   25  C   UNL     1     -39.978  51.594 -53.520  1.00  0.00     0.056 A 
HETATM   26 CL   UNL     1     -39.736  50.283 -54.620  1.00  0.00    -0.083 Cl
HETATM   27  C   UNL     1     -39.820  51.454 -52.139  1.00  0.00     0.055 A 
HETATM   28 CL   UNL     1     -39.369  49.957 -51.403  1.00  0.00    -0.083 Cl
HETATM   29  C   UNL     1     -40.032  52.553 -51.302  1.00  0.00     0.026 A 
HETATM   30  C   UNL     1     -40.399  53.791 -51.838  1.00  0.00     0.011 A 
ENDBRANCH   6  23
TORSDOF 6
ENDMDL
MODEL 5
REMARK VINA RESULT:      -7.2      3.520      5.025
REMARK  6 active torsions:
REMARK  status: ('A' for Active; 'I' for Inactive)
REMARK    1  A    between atoms: O_2  and  C_3 
REMARK    2  A    between atoms: C_3  and  C_4 
REMARK    3  A    between atoms: C_4  and  N_5 
REMARK       I    between atoms: N_5  and  C_6 
REMARK    4  A    between atoms: C_6  and  C_7 
REMARK    5  A    between atoms: C_12  and  C_13 
REMARK    6  A    between atoms: C_22  and  C_23 
ROOT
HETATM    1  C   UNL     1     -42.330  58.909 -52.426  1.00  0.00     0.148 A 
HETATM    2  N   UNL     1     -41.773  58.682 -53.639  1.00  0.00    -0.165 NA
HETATM    3  N   UNL     1     -41.776  57.343 -53.736  1.00  0.00    -0.240 N 
HETATM    4  C   UNL     1     -42.224  56.700 -52.617  1.00  0.00     0.123 A 
HETATM    5  N   UNL     1     -42.176  55.355 -52.511  1.00  0.00    -0.366 N 
HETATM    6  C   UNL     1     -41.641  54.510 -53.575  1.00  0.00     0.118 C 
HETATM    7  C   UNL     1     -40.668  55.304 -54.471  1.00  0.00     0.066 C 
HETATM    8  C   UNL     1     -41.262  56.654 -54.904  1.00  0.00     0.221 C 
HETATM    9  C   UNL     1     -42.643  57.686 -51.766  1.00  0.00     0.088 A 
HETATM   10  H   UNL     1     -42.650  54.872 -51.748  1.00  0.00     0.161 HD
ENDROOT
BRANCH   1  11
HETATM   11  C   UNL     1     -42.531  60.265 -51.895  1.00  0.00     0.272 C 
HETATM   12  N   UNL     1     -43.105  61.132 -52.798  1.00  0.00    -0.354 N 
HETATM   13  H   UNL     1     -43.190  60.780 -53.748  1.00  0.00     0.162 HD
HETATM   14  O   UNL     1     -42.193  60.595 -50.761  1.00  0.00    -0.266 OA
BRANCH  12  15
HETATM   15  C   UNL     1     -43.223  62.552 -52.545  1.00  0.00     0.149 C 
BRANCH  15  16
HETATM   16  C   UNL     1     -43.392  63.363 -53.831  1.00  0.00     0.186 C 
BRANCH  16  17
HETATM   17  O   UNL     1     -44.174  62.608 -54.765  1.00  0.00    -0.394 OA
HETATM   18  C   UNL     1     -45.524  63.048 -54.787  1.00  0.00     0.201 C 
ENDBRANCH  16  17
ENDBRANCH  15  16
ENDBRANCH  12  15
ENDBRANCH   1  11
BRANCH   8  19
HETATM   19  C   UNL     1     -42.358  56.502 -55.935  1.00  0.00     0.409 C 
HETATM   20  F   UNL     1     -42.303  55.320 -56.584  1.00  0.00    -0.169 F 
HETATM   21  F   UNL     1     -43.571  56.548 -55.321  1.00  0.00    -0.169 F 
HETATM   22  F   UNL     1     -42.363  57.483 -56.861  1.00  0.00    -0.169 F 
ENDBRANCH   8  19
BRANCH   6  23
HETATM   23  C   UNL     1     -40.934  53.310 -52.963  1.00  0.00    -0.034 A 
HETATM   24  C   UNL     1     -40.470  52.251 -53.765  1.00  0.00     0.034 A 
HETATM   25  C   UNL     1     -39.837  51.139 -53.199  1.00  0.00     0.056 A 
HETATM   26 CL   UNL     1     -39.295  49.892 -54.265  1.00  0.00    -0.083 Cl
HETATM   27  C   UNL     1     -39.667  51.070 -51.814  1.00  0.00     0.055 A 
HETATM   28 CL   UNL     1     -38.900  49.730 -51.039  1.00  0.00    -0.083 Cl
HETATM   29  C   UNL     1     -40.130  52.112 -51.006  1.00  0.00     0.026 A 
HETATM   30  C   UNL     1     -40.759  53.223 -51.574  1.00  0.00     0.011 A 
ENDBRANCH   6  23
TORSDOF 6
ENDMDL
MODEL 6
REMARK VINA RESULT:      -7.1      4.451      7.607
REMARK  6 active torsions:
REMARK  status: ('A' for Active; 'I' for Inactive)
REMARK    1  A    between atoms: O_2  and  C_3 
REMARK    2  A    between atoms: C_3  and  C_4 
REMARK    3  A    between atoms: C_4  and  N_5 
REMARK       I    between atoms: N_5  and  C_6 
REMARK    4  A    between atoms: C_6  and  C_7 
REMARK    5  A    between atoms: C_12  and  C_13 
REMARK    6  A    between atoms: C_22  and  C_23 
ROOT
HETATM    1  C   UNL     1     -41.006  53.945 -51.838  1.00  0.00     0.148 A 
HETATM    2  N   UNL     1     -40.745  55.230 -51.501  1.00  0.00    -0.165 NA
HETATM    3  N   UNL     1     -41.409  55.935 -52.430  1.00  0.00    -0.240 N 
HETATM    4  C   UNL     1     -42.006  55.172 -53.394  1.00  0.00     0.123 A 
HETATM    5  N   UNL     1     -42.609  55.733 -54.463  1.00  0.00    -0.366 N 
HETATM    6  C   UNL     1     -42.655  57.179 -54.660  1.00  0.00     0.118 C 
HETATM    7  C   UNL     1     -41.507  57.875 -53.900  1.00  0.00     0.066 C 
HETATM    8  C   UNL     1     -41.406  57.385 -52.445  1.00  0.00     0.221 C 
HETATM    9  C   UNL     1     -41.811  53.873 -53.011  1.00  0.00     0.088 A 
HETATM   10  H   UNL     1     -43.185  55.175 -55.093  1.00  0.00     0.161 HD
ENDROOT
BRANCH   1  11
HETATM   11  C   UNL     1     -40.470  52.808 -51.074  1.00  0.00     0.272 C 
HETATM   12  N   UNL     1     -39.912  51.828 -51.864  1.00  0.00    -0.354 N 
HETATM   13  H   UNL     1     -40.058  51.936 -52.864  1.00  0.00     0.162 HD
HETATM   14  O   UNL     1     -40.540  52.733 -49.850  1.00  0.00    -0.266 OA
BRANCH  12  15
HETATM   15  C   UNL     1     -39.492  50.549 -51.334  1.00  0.00     0.149 C 
BRANCH  15  16
HETATM   16  C   UNL     1     -39.519  49.441 -52.390  1.00  0.00     0.186 C 
BRANCH  16  17
HETATM   17  O   UNL     1     -40.328  49.863 -53.495  1.00  0.00    -0.394 OA
HETATM   18  C   UNL     1     -39.600  49.823 -54.714  1.00  0.00     0.201 C 
ENDBRANCH  16  17
ENDBRANCH  15  16
ENDBRANCH  12  15
ENDBRANCH   1  11
BRANCH   8  19
HETATM   19  C   UNL     1     -42.529  57.909 -51.578  1.00  0.00     0.409 C 
HETATM   20  F   UNL     1     -43.403  56.946 -51.217  1.00  0.00    -0.169 F 
HETATM   21  F   UNL     1     -42.016  58.416 -50.425  1.00  0.00    -0.169 F 
HETATM   22  F   UNL     1     -43.229  58.909 -52.154  1.00  0.00    -0.169 F 
ENDBRANCH   8  19
BRANCH   6  23
HETATM   23  C   UNL     1     -42.567  57.492 -56.147  1.00  0.00    -0.034 A 
HETATM   24  C   UNL     1     -42.867  56.514 -57.115  1.00  0.00     0.034 A 
HETATM   25  C   UNL     1     -42.768  56.797 -58.481  1.00  0.00     0.056 A 
HETATM   26 CL   UNL     1     -43.163  55.536 -59.594  1.00  0.00    -0.083 Cl
HETATM   27  C   UNL     1     -42.359  58.066 -58.898  1.00  0.00     0.055 A 
HETATM   28 CL   UNL     1     -42.208  58.492 -60.566  1.00  0.00    -0.083 Cl
HETATM   29  C   UNL     1     -42.051  59.043 -57.947  1.00  0.00     0.026 A 
HETATM   30  C   UNL     1     -42.154  58.759 -56.581  1.00  0.00     0.011 A 
ENDBRANCH   6  23
TORSDOF 6
ENDMDL
MODEL 7
REMARK VINA RESULT:      -7.0     16.339     18.459
REMARK  6 active torsions:
REMARK  status: ('A' for Active; 'I' for Inactive)
REMARK    1  A    between atoms: O_2  and  C_3 
REMARK    2  A    between atoms: C_3  and  C_4 
REMARK    3  A    between atoms: C_4  and  N_5 
REMARK       I    between atoms: N_5  and  C_6 
REMARK    4  A    between atoms: C_6  and  C_7 
REMARK    5  A    between atoms: C_12  and  C_13 
REMARK    6  A    between atoms: C_22  and  C_23 
ROOT
HETATM    1  C   UNL     1     -36.173  39.145 -49.190  1.00  0.00     0.148 A 
HETATM    2  N   UNL     1     -35.001  38.713 -49.712  1.00  0.00    -0.165 NA
HETATM    3  N   UNL     1     -34.808  39.530 -50.759  1.00  0.00    -0.240 N 
HETATM    4  C   UNL     1     -35.834  40.404 -50.987  1.00  0.00     0.123 A 
HETATM    5  N   UNL     1     -35.846  41.208 -52.071  1.00  0.00    -0.366 N 
HETATM    6  C   UNL     1     -34.776  41.191 -53.064  1.00  0.00     0.118 C 
HETATM    7  C   UNL     1     -34.029  39.841 -53.045  1.00  0.00     0.066 C 
HETATM    8  C   UNL     1     -33.644  39.421 -51.616  1.00  0.00     0.221 C 
HETATM    9  C   UNL     1     -36.714  40.219 -49.955  1.00  0.00     0.088 A 
HETATM   10  H   UNL     1     -36.527  41.963 -52.156  1.00  0.00     0.161 HD
ENDROOT
BRANCH   1  11
HETATM   11  C   UNL     1     -36.782  38.526 -48.003  1.00  0.00     0.272 C 
HETATM   12  N   UNL     1     -38.015  37.963 -48.246  1.00  0.00    -0.354 N 
HETATM   13  H   UNL     1     -38.413  38.160 -49.160  1.00  0.00     0.162 HD
HETATM   14  O   UNL     1     -36.248  38.535 -46.897  1.00  0.00    -0.266 OA
BRANCH  12  15
HETATM   15  C   UNL     1     -38.864  37.464 -47.186  1.00  0.00     0.149 C 
BRANCH  15  16
HETATM   16  C   UNL     1     -40.271  38.063 -47.232  1.00  0.00     0.186 C 
BRANCH  16  17
HETATM   17  O   UNL     1     -40.216  39.426 -46.793  1.00  0.00    -0.394 OA
HETATM   18  C   UNL     1     -41.391  39.789 -46.080  1.00  0.00     0.201 C 
ENDBRANCH  16  17
ENDBRANCH  15  16
ENDBRANCH  12  15
ENDBRANCH   1  11
BRANCH   8  19
HETATM   19  C   UNL     1     -32.512  40.251 -51.054  1.00  0.00     0.409 C 
HETATM   20  F   UNL     1     -31.921  41.028 -51.986  1.00  0.00    -0.169 F 
HETATM   21  F   UNL     1     -32.993  41.093 -50.100  1.00  0.00    -0.169 F 
HETATM   22  F   UNL     1     -31.550  39.513 -50.460  1.00  0.00    -0.169 F 
ENDBRANCH   8  19
BRANCH   6  23
HETATM   23  C   UNL     1     -35.360  41.450 -54.444  1.00  0.00    -0.034 A 
HETATM   24  C   UNL     1     -36.712  41.174 -54.726  1.00  0.00     0.034 A 
HETATM   25  C   UNL     1     -37.243  41.396 -56.001  1.00  0.00     0.056 A 
HETATM   26 CL   UNL     1     -38.914  41.034 -56.250  1.00  0.00    -0.083 Cl
HETATM   27  C   UNL     1     -36.423  41.892 -57.017  1.00  0.00     0.055 A 
HETATM   28 CL   UNL     1     -37.003  42.188 -58.617  1.00  0.00    -0.083 Cl
HETATM   29  C   UNL     1     -35.078  42.163 -56.752  1.00  0.00     0.026 A 
HETATM   30  C   UNL     1     -34.549  41.943 -55.476  1.00  0.00     0.011 A 
ENDBRANCH   6  23
TORSDOF 6
ENDMDL
MODEL 8
REMARK VINA RESULT:      -7.0      4.974      8.464
REMARK  6 active torsions:
REMARK  status: ('A' for Active; 'I' for Inactive)
REMARK    1  A    between atoms: O_2  and  C_3 
REMARK    2  A    between atoms: C_3  and  C_4 
REMARK    3  A    between atoms: C_4  and  N_5 
REMARK       I    between atoms: N_5  and  C_6 
REMARK    4  A    between atoms: C_6  and  C_7 
REMARK    5  A    between atoms: C_12  and  C_13 
REMARK    6  A    between atoms: C_22  and  C_23 
ROOT
HETATM    1  C   UNL     1     -41.115  54.259 -54.124  1.00  0.00     0.148 A 
HETATM    2  N   UNL     1     -41.534  55.336 -53.418  1.00  0.00    -0.165 NA
HETATM    3  N   UNL     1     -42.110  56.112 -54.350  1.00  0.00    -0.240 N 
HETATM    4  C   UNL     1     -42.005  55.632 -55.625  1.00  0.00     0.123 A 
HETATM    5  N   UNL     1     -42.427  56.353 -56.685  1.00  0.00    -0.366 N 
HETATM    6  C   UNL     1     -43.010  57.683 -56.539  1.00  0.00     0.118 C 
HETATM    7  C   UNL     1     -42.554  58.342 -55.221  1.00  0.00     0.066 C 
HETATM    8  C   UNL     1     -42.710  57.391 -54.023  1.00  0.00     0.221 C 
HETATM    9  C   UNL     1     -41.412  54.404 -55.510  1.00  0.00     0.088 A 
HETATM   10  H   UNL     1     -42.491  55.932 -57.613  1.00  0.00     0.161 HD
ENDROOT
BRANCH   1  11
HETATM   11  C   UNL     1     -40.416  53.129 -53.494  1.00  0.00     0.272 C 
HETATM   12  N   UNL     1     -40.367  53.210 -52.120  1.00  0.00    -0.354 N 
HETATM   13  H   UNL     1     -40.686  54.088 -51.721  1.00  0.00     0.162 HD
HETATM   14  O   UNL     1     -39.905  52.217 -54.138  1.00  0.00    -0.266 OA
BRANCH  12  15
HETATM   15  C   UNL     1     -39.574  52.303 -51.317  1.00  0.00     0.149 C 
BRANCH  15  16
HETATM   16  C   UNL     1     -40.428  51.484 -50.346  1.00  0.00     0.186 C 
BRANCH  16  17
HETATM   17  O   UNL     1     -39.961  50.129 -50.337  1.00  0.00    -0.394 OA
HETATM   18  C   UNL     1     -39.584  49.701 -51.638  1.00  0.00     0.201 C 
ENDBRANCH  16  17
ENDBRANCH  15  16
ENDBRANCH  12  15
ENDBRANCH   1  11
BRANCH   8  19
HETATM   19  C   UNL     1     -44.156  57.193 -53.624  1.00  0.00     0.409 C 
HETATM   20  F   UNL     1     -44.731  56.145 -54.252  1.00  0.00    -0.169 F 
HETATM   21  F   UNL     1     -44.230  56.932 -52.291  1.00  0.00    -0.169 F 
HETATM   22  F   UNL     1     -44.926  58.280 -53.843  1.00  0.00    -0.169 F 
ENDBRANCH   8  19
BRANCH   6  23
HETATM   23  C   UNL     1     -42.610  58.546 -57.726  1.00  0.00    -0.034 A 
HETATM   24  C   UNL     1     -41.897  59.747 -57.546  1.00  0.00     0.034 A 
HETATM   25  C   UNL     1     -41.546  60.549 -58.637  1.00  0.00     0.056 A 
HETATM   26 CL   UNL     1     -40.666  62.001 -58.318  1.00  0.00    -0.083 Cl
HETATM   27  C   UNL     1     -41.912  60.161 -59.928  1.00  0.00     0.055 A 
HETATM   28 CL   UNL     1     -41.520  61.099 -61.325  1.00  0.00    -0.083 Cl
HETATM   29  C   UNL     1     -42.626  58.975 -60.120  1.00  0.00     0.026 A 
HETATM   30  C   UNL     1     -42.973  58.173 -59.028  1.00  0.00     0.011 A 
ENDBRANCH   6  23
TORSDOF 6
ENDMDL
MODEL 9
REMARK VINA RESULT:      -7.0      3.710      4.483
REMARK  6 active torsions:
REMARK  status: ('A' for Active; 'I' for Inactive)
REMARK    1  A    between atoms: O_2  and  C_3 
REMARK    2  A    between atoms: C_3  and  C_4 
REMARK    3  A    between atoms: C_4  and  N_5 
REMARK       I    between atoms: N_5  and  C_6 
REMARK    4  A    between atoms: C_6  and  C_7 
REMARK    5  A    between atoms: C_12  and  C_13 
REMARK    6  A    between atoms: C_22  and  C_23 
ROOT
HETATM    1  C   UNL     1     -42.353  59.243 -54.246  1.00  0.00     0.148 A 
HETATM    2  N   UNL     1     -43.462  58.609 -53.796  1.00  0.00    -0.165 NA
HETATM    3  N   UNL     1     -42.975  57.484 -53.249  1.00  0.00    -0.240 N 
HETATM    4  C   UNL     1     -41.627  57.322 -53.402  1.00  0.00     0.123 A 
HETATM    5  N   UNL     1     -41.005  56.188 -53.016  1.00  0.00    -0.366 N 
HETATM    6  C   UNL     1     -41.729  55.069 -52.420  1.00  0.00     0.118 C 
HETATM    7  C   UNL     1     -43.218  55.099 -52.825  1.00  0.00     0.066 C 
HETATM    8  C   UNL     1     -43.835  56.494 -52.631  1.00  0.00     0.221 C 
HETATM    9  C   UNL     1     -41.182  58.471 -53.998  1.00  0.00     0.088 A 
HETATM   10  H   UNL     1     -39.987  56.132 -52.987  1.00  0.00     0.161 HD
ENDROOT
BRANCH   1  11
HETATM   11  C   UNL     1     -42.414  60.545 -54.927  1.00  0.00     0.272 C 
HETATM   12  N   UNL     1     -42.812  61.577 -54.108  1.00  0.00    -0.354 N 
HETATM   13  H   UNL     1     -43.145  61.302 -53.188  1.00  0.00     0.162 HD
HETATM   14  O   UNL     1     -42.158  60.687 -56.120  1.00  0.00    -0.266 OA
BRANCH  12  15
HETATM   15  C   UNL     1     -43.112  62.899 -54.614  1.00  0.00     0.149 C 
BRANCH  15  16
HETATM   16  C   UNL     1     -44.540  63.009 -55.152  1.00  0.00     0.186 C 
BRANCH  16  17
HETATM   17  O   UNL     1     -44.531  63.780 -56.360  1.00  0.00    -0.394 OA
HETATM   18  C   UNL     1     -44.564  62.945 -57.509  1.00  0.00     0.201 C 
ENDBRANCH  16  17
ENDBRANCH  15  16
ENDBRANCH  12  15
ENDBRANCH   1  11
BRANCH   8  19
HETATM   19  C   UNL     1     -44.047  56.836 -51.173  1.00  0.00     0.409 C 
HETATM   20  F   UNL     1     -45.126  57.622 -50.973  1.00  0.00    -0.169 F 
HETATM   21  F   UNL     1     -44.264  55.696 -50.463  1.00  0.00    -0.169 F 
HETATM   22  F   UNL     1     -42.983  57.442 -50.604  1.00  0.00    -0.169 F 
ENDBRANCH   8  19
BRANCH   6  23
HETATM   23  C   UNL     1     -41.090  53.760 -52.859  1.00  0.00    -0.034 A 
HETATM   24  C   UNL     1     -40.573  52.850 -51.916  1.00  0.00     0.034 A 
HETATM   25  C   UNL     1     -39.969  51.656 -52.322  1.00  0.00     0.056 A 
HETATM   26 CL   UNL     1     -39.370  50.599 -51.093  1.00  0.00    -0.083 Cl
HETATM   27  C   UNL     1     -39.865  51.359 -53.683  1.00  0.00     0.055 A 
HETATM   28 CL   UNL     1     -39.129  49.908 -54.263  1.00  0.00    -0.083 Cl
HETATM   29  C   UNL     1     -40.367  52.257 -54.629  1.00  0.00     0.026 A 
HETATM   30  C   UNL     1     -40.974  53.449 -54.221  1.00  0.00     0.011 A 
ENDBRANCH   6  23
TORSDOF 6
ENDMDL
MODEL 10
REMARK VINA RESULT:      -7.0      1.770      2.374
REMARK  6 active torsions:
REMARK  status: ('A' for Active; 'I' for Inactive)
REMARK    1  A    between atoms: O_2  and  C_3 
REMARK    2  A    between atoms: C_3  and  C_4 
REMARK    3  A    between atoms: C_4  and  N_5 
REMARK       I    between atoms: N_5  and  C_6 
REMARK    4  A    between atoms: C_6  and  C_7 
REMARK    5  A    between atoms: C_12  and  C_13 
REMARK    6  A    between atoms: C_22  and  C_23 
ROOT
HETATM    1  C   UNL     1     -43.373  58.424 -55.388  1.00  0.00     0.148 A 
HETATM    2  N   UNL     1     -44.102  57.979 -54.338  1.00  0.00    -0.165 NA
HETATM    3  N   UNL     1     -43.283  57.097 -53.743  1.00  0.00    -0.240 N 
HETATM    4  C   UNL     1     -42.106  56.889 -54.405  1.00  0.00     0.123 A 
HETATM    5  N   UNL     1     -41.229  55.945 -54.002  1.00  0.00    -0.366 N 
HETATM    6  C   UNL     1     -41.484  55.089 -52.847  1.00  0.00     0.118 C 
HETATM    7  C   UNL     1     -42.996  54.988 -52.561  1.00  0.00     0.066 C 
HETATM    8  C   UNL     1     -43.669  56.370 -52.550  1.00  0.00     0.221 C 
HETATM    9  C   UNL     1     -42.106  57.774 -55.449  1.00  0.00     0.088 A 
HETATM   10  H   UNL     1     -40.290  55.898 -54.398  1.00  0.00     0.161 HD
ENDROOT
BRANCH   1  11
HETATM   11  C   UNL     1     -43.886  59.426 -56.334  1.00  0.00     0.272 C 
HETATM   12  N   UNL     1     -44.439  58.879 -57.470  1.00  0.00    -0.354 N 
HETATM   13  H   UNL     1     -44.302  57.878 -57.585  1.00  0.00     0.162 HD
HETATM   14  O   UNL     1     -43.805  60.635 -56.135  1.00  0.00    -0.266 OA
BRANCH  12  15
HETATM   15  C   UNL     1     -44.837  59.683 -58.605  1.00  0.00     0.149 C 
BRANCH  15  16
HETATM   16  C   UNL     1     -45.375  58.838 -59.762  1.00  0.00     0.186 C 
BRANCH  16  17
HETATM   17  O   UNL     1     -46.693  58.380 -59.437  1.00  0.00    -0.394 OA
HETATM   18  C   UNL     1     -46.783  56.964 -59.511  1.00  0.00     0.201 C 
ENDBRANCH  16  17
ENDBRANCH  15  16
ENDBRANCH  12  15
ENDBRANCH   1  11
BRANCH   8  19
HETATM   19  C   UNL     1     -43.316  57.177 -51.320  1.00  0.00     0.409 C 
HETATM   20  F   UNL     1     -42.376  58.115 -51.564  1.00  0.00    -0.169 F 
HETATM   21  F   UNL     1     -44.418  57.841 -50.878  1.00  0.00    -0.169 F 
HETATM   22  F   UNL     1     -42.887  56.421 -50.288  1.00  0.00    -0.169 F 
ENDBRANCH   8  19
BRANCH   6  23
HETATM   23  C   UNL     1     -40.902  53.707 -53.102  1.00  0.00    -0.034 A 
HETATM   24  C   UNL     1     -40.536  52.863 -52.036  1.00  0.00     0.034 A 
HETATM   25  C   UNL     1     -39.984  51.600 -52.271  1.00  0.00     0.056 A 
HETATM   26 CL   UNL     1     -39.573  50.632 -50.900  1.00  0.00    -0.083 Cl
HETATM   27  C   UNL     1     -39.781  51.166 -53.584  1.00  0.00     0.055 A 
HETATM   28 CL   UNL     1     -39.101  49.622 -53.957  1.00  0.00    -0.083 Cl
HETATM   29  C   UNL     1     -40.133  51.997 -54.651  1.00  0.00     0.026 A 
HETATM   30  C   UNL     1     -40.688  53.258 -54.413  1.00  0.00     0.011 A 
ENDBRANCH   6  23
TORSDOF 6
ENDMDL
