MODEL 1
REMARK VINA RESULT:      -7.8      0.000      0.000
REMARK  3 active torsions:
REMARK  status: ('A' for Active; 'I' for Inactive)
REMARK    1  A    between atoms: C_2  and  C_3 
REMARK    2  A    between atoms: C_9  and  C_10 
REMARK    3  A    between atoms: C_20  and  N_21 
ROOT
HETATM    1  C   UNL     1     -39.964  51.589 -52.267  1.00  0.00     0.043 A 
HETATM    2  N   UNL     1     -39.955  50.508 -51.411  1.00  0.00    -0.279 N 
HETATM    3  H   UNL     1     -39.780  49.534 -51.637  1.00  0.00     0.189 HD
HETATM    4  N   UNL     1     -40.199  50.827 -50.125  1.00  0.00    -0.148 NA
HETATM    5  C   UNL     1     -40.361  52.142 -50.182  1.00  0.00     0.199 A 
HETATM    6  C   UNL     1     -40.262  52.679 -51.468  1.00  0.00     0.035 A 
HETATM    7  C   UNL     1     -40.428  54.143 -51.694  1.00  0.00     0.107 A 
HETATM    8  C   UNL     1     -40.614  54.879 -50.369  1.00  0.00     0.081 A 
HETATM    9  C   UNL     1     -40.677  56.302 -50.435  1.00  0.00     0.100 C 
HETATM   10  N   UNL     1     -40.747  57.460 -50.487  1.00  0.00    -0.191 NA
HETATM   11  C   UNL     1     -40.683  54.241 -49.170  1.00  0.00     0.140 A 
HETATM   12  O   UNL     1     -40.596  52.846 -49.061  1.00  0.00    -0.277 OA
ENDROOT
BRANCH   7  13
HETATM   13  C   UNL     1     -41.628  54.294 -52.627  1.00  0.00    -0.022 A 
HETATM   14  C   UNL     1     -41.487  54.710 -53.965  1.00  0.00     0.041 A 
HETATM   15 CL   UNL     1     -39.948  55.060 -54.669  1.00  0.00    -0.084 Cl
HETATM   16  C   UNL     1     -42.608  54.865 -54.790  1.00  0.00     0.024 A 
HETATM   17  C   UNL     1     -43.887  54.617 -54.298  1.00  0.00     0.002 A 
HETATM   18  C   UNL     1     -44.052  54.216 -52.978  1.00  0.00     0.001 A 
HETATM   19  C   UNL     1     -42.939  54.061 -52.150  1.00  0.00     0.010 A 
ENDBRANCH   7  13
BRANCH  11  20
HETATM   20  N   UNL     1     -40.847  54.859 -47.950  1.00  0.00    -0.282 NA
HETATM   21  H   UNL     1     -41.647  55.481 -47.868  1.00  0.00     0.126 HD
HETATM   22  H   UNL     1     -40.762  54.204 -47.175  1.00  0.00     0.126 HD
ENDBRANCH  11  20
BRANCH   1  23
HETATM   23  C   UNL     1     -39.694  51.463 -53.736  1.00  0.00     0.029 C 
HETATM   24  C   UNL     1     -40.988  51.535 -54.545  1.00  0.00     0.016 C 
HETATM   25  C   UNL     1     -38.920  50.183 -54.053  1.00  0.00     0.016 C 
ENDBRANCH   1  23
TORSDOF 3
ENDMDL
MODEL 2
REMARK VINA RESULT:      -7.7      3.330      5.887
REMARK  3 active torsions:
REMARK  status: ('A' for Active; 'I' for Inactive)
REMARK    1  A    between atoms: C_2  and  C_3 
REMARK    2  A    between atoms: C_9  and  C_10 
REMARK    3  A    between atoms: C_20  and  N_21 
ROOT
HETATM    1  C   UNL     1     -42.800  57.987 -55.248  1.00  0.00     0.043 A 
HETATM    2  N   UNL     1     -42.363  59.176 -55.792  1.00  0.00    -0.279 N 
HETATM    3  H   UNL     1     -42.631  59.593 -56.678  1.00  0.00     0.189 HD
HETATM    4  N   UNL     1     -41.483  59.840 -55.018  1.00  0.00    -0.148 NA
HETATM    5  C   UNL     1     -41.373  59.045 -53.962  1.00  0.00     0.199 A 
HETATM    6  C   UNL     1     -42.127  57.872 -54.045  1.00  0.00     0.035 A 
HETATM    7  C   UNL     1     -42.101  56.874 -52.938  1.00  0.00     0.107 A 
HETATM    8  C   UNL     1     -41.250  57.377 -51.773  1.00  0.00     0.081 A 
HETATM    9  C   UNL     1     -41.228  56.563 -50.603  1.00  0.00     0.100 C 
HETATM   10  N   UNL     1     -41.193  55.894 -49.655  1.00  0.00    -0.191 NA
HETATM   11  C   UNL     1     -40.566  58.552 -51.809  1.00  0.00     0.140 A 
HETATM   12  O   UNL     1     -40.586  59.394 -52.930  1.00  0.00    -0.277 OA
ENDROOT
BRANCH   7  13
HETATM   13  C   UNL     1     -41.563  55.580 -53.546  1.00  0.00    -0.022 A 
HETATM   14  C   UNL     1     -42.092  54.320 -53.209  1.00  0.00     0.041 A 
HETATM   15 CL   UNL     1     -43.405  54.131 -52.100  1.00  0.00    -0.084 Cl
HETATM   16  C   UNL     1     -41.562  53.148 -53.763  1.00  0.00     0.024 A 
HETATM   17  C   UNL     1     -40.494  53.208 -54.654  1.00  0.00     0.002 A 
HETATM   18  C   UNL     1     -39.948  54.439 -54.994  1.00  0.00     0.001 A 
HETATM   19  C   UNL     1     -40.471  55.612 -54.444  1.00  0.00     0.010 A 
ENDBRANCH   7  13
BRANCH  11  20
HETATM   20  N   UNL     1     -39.789  59.049 -50.786  1.00  0.00    -0.282 NA
HETATM   21  H   UNL     1     -40.274  59.261 -49.918  1.00  0.00     0.126 HD
HETATM   22  H   UNL     1     -38.938  58.506 -50.653  1.00  0.00     0.126 HD
ENDBRANCH  11  20
BRANCH   1  23
HETATM   23  C   UNL     1     -43.796  57.099 -55.932  1.00  0.00     0.029 C 
HETATM   24  C   UNL     1     -43.111  56.145 -56.908  1.00  0.00     0.016 C 
HETATM   25  C   UNL     1     -44.881  57.917 -56.634  1.00  0.00     0.016 C 
ENDBRANCH   1  23
TORSDOF 3
ENDMDL
MODEL 3
REMARK VINA RESULT:      -7.2      3.602      5.455
REMARK  3 active torsions:
REMARK  status: ('A' for Active; 'I' for Inactive)
REMARK    1  A    between atoms: C_2  and  C_3 
REMARK    2  A    between atoms: C_9  and  C_10 
REMARK    3  A    between atoms: C_20  and  N_21 
ROOT
HETATM    1  C   UNL     1     -41.339  54.073 -52.200  1.00  0.00     0.043 A 
HETATM    2  N   UNL     1     -40.534  53.136 -52.812  1.00  0.00    -0.279 N 
HETATM    3  H   UNL     1     -39.909  52.467 -52.373  1.00  0.00     0.189 HD
HETATM    4  N   UNL     1     -40.624  53.133 -54.156  1.00  0.00    -0.148 NA
HETATM    5  C   UNL     1     -41.512  54.090 -54.386  1.00  0.00     0.199 A 
HETATM    6  C   UNL     1     -41.974  54.735 -53.236  1.00  0.00     0.035 A 
HETATM    7  C   UNL     1     -42.970  55.839 -53.334  1.00  0.00     0.107 A 
HETATM    8  C   UNL     1     -43.415  56.043 -54.781  1.00  0.00     0.081 A 
HETATM    9  C   UNL     1     -44.449  57.000 -55.000  1.00  0.00     0.100 C 
HETATM   10  N   UNL     1     -45.278  57.792 -55.185  1.00  0.00    -0.191 NA
HETATM   11  C   UNL     1     -42.894  55.340 -55.821  1.00  0.00     0.140 A 
HETATM   12  O   UNL     1     -41.898  54.370 -55.643  1.00  0.00    -0.277 OA
ENDROOT
BRANCH   7  13
HETATM   13  C   UNL     1     -42.293  57.075 -52.744  1.00  0.00    -0.022 A 
HETATM   14  C   UNL     1     -42.909  57.862 -51.752  1.00  0.00     0.041 A 
HETATM   15 CL   UNL     1     -44.465  57.486 -51.103  1.00  0.00    -0.084 Cl
HETATM   16  C   UNL     1     -42.275  59.005 -51.248  1.00  0.00     0.024 A 
HETATM   17  C   UNL     1     -41.025  59.389 -51.726  1.00  0.00     0.002 A 
HETATM   18  C   UNL     1     -40.402  58.634 -52.712  1.00  0.00     0.001 A 
HETATM   19  C   UNL     1     -41.029  57.494 -53.220  1.00  0.00     0.010 A 
ENDBRANCH   7  13
BRANCH  11  20
HETATM   20  N   UNL     1     -43.263  55.485 -57.141  1.00  0.00    -0.282 NA
HETATM   21  H   UNL     1     -42.525  55.353 -57.828  1.00  0.00     0.126 HD
HETATM   22  H   UNL     1     -44.115  54.973 -57.359  1.00  0.00     0.126 HD
ENDBRANCH  11  20
BRANCH   1  23
HETATM   23  C   UNL     1     -41.410  54.234 -50.711  1.00  0.00     0.029 C 
HETATM   24  C   UNL     1     -42.853  54.415 -50.241  1.00  0.00     0.016 C 
HETATM   25  C   UNL     1     -40.529  55.387 -50.233  1.00  0.00     0.016 C 
ENDBRANCH   1  23
TORSDOF 3
ENDMDL
MODEL 4
REMARK VINA RESULT:      -6.8      4.296      6.122
REMARK  3 active torsions:
REMARK  status: ('A' for Active; 'I' for Inactive)
REMARK    1  A    between atoms: C_2  and  C_3 
REMARK    2  A    between atoms: C_9  and  C_10 
REMARK    3  A    between atoms: C_20  and  N_21 
ROOT
HETATM    1  C   UNL     1     -41.867  55.688 -54.863  1.00  0.00     0.043 A 
HETATM    2  N   UNL     1     -41.824  55.900 -56.225  1.00  0.00    -0.279 N 
HETATM    3  H   UNL     1     -41.258  55.415 -56.914  1.00  0.00     0.189 HD
HETATM    4  N   UNL     1     -42.658  56.867 -56.654  1.00  0.00    -0.148 NA
HETATM    5  C   UNL     1     -43.239  57.264 -55.530  1.00  0.00     0.199 A 
HETATM    6  C   UNL     1     -42.782  56.609 -54.384  1.00  0.00     0.035 A 
HETATM    7  C   UNL     1     -43.335  56.953 -53.043  1.00  0.00     0.107 A 
HETATM    8  C   UNL     1     -44.452  57.988 -53.164  1.00  0.00     0.081 A 
HETATM    9  C   UNL     1     -45.140  58.325 -51.962  1.00  0.00     0.100 C 
HETATM   10  N   UNL     1     -45.691  58.617 -50.983  1.00  0.00    -0.191 NA
HETATM   11  C   UNL     1     -44.815  58.549 -54.349  1.00  0.00     0.140 A 
HETATM   12  O   UNL     1     -44.182  58.221 -55.556  1.00  0.00    -0.277 OA
ENDROOT
BRANCH   7  13
HETATM   13  C   UNL     1     -42.154  57.454 -52.213  1.00  0.00    -0.022 A 
HETATM   14  C   UNL     1     -41.775  56.838 -51.005  1.00  0.00     0.041 A 
HETATM   15 CL   UNL     1     -42.595  55.455 -50.372  1.00  0.00    -0.084 Cl
HETATM   16  C   UNL     1     -40.704  57.334 -50.252  1.00  0.00     0.024 A 
HETATM   17  C   UNL     1     -39.996  58.454 -50.682  1.00  0.00     0.002 A 
HETATM   18  C   UNL     1     -40.358  59.085 -51.866  1.00  0.00     0.001 A 
HETATM   19  C   UNL     1     -41.426  58.596 -52.621  1.00  0.00     0.010 A 
ENDBRANCH   7  13
BRANCH  11  20
HETATM   20  N   UNL     1     -45.815  59.482 -54.511  1.00  0.00    -0.282 NA
HETATM   21  H   UNL     1     -46.579  59.217 -55.126  1.00  0.00     0.126 HD
HETATM   22  H   UNL     1     -46.127  59.868 -53.621  1.00  0.00     0.126 HD
ENDBRANCH  11  20
BRANCH   1  23
HETATM   23  C   UNL     1     -41.037  54.646 -54.177  1.00  0.00     0.029 C 
HETATM   24  C   UNL     1     -40.106  53.941 -55.162  1.00  0.00     0.016 C 
HETATM   25  C   UNL     1     -41.912  53.638 -53.432  1.00  0.00     0.016 C 
ENDBRANCH   1  23
TORSDOF 3
ENDMDL
MODEL 5
REMARK VINA RESULT:      -6.6      1.764      2.623
REMARK  3 active torsions:
REMARK  status: ('A' for Active; 'I' for Inactive)
REMARK    1  A    between atoms: C_2  and  C_3 
REMARK    2  A    between atoms: C_9  and  C_10 
REMARK    3  A    between atoms: C_20  and  N_21 
ROOT
HETATM    1  C   UNL     1     -40.545  53.485 -51.158  1.00  0.00     0.043 A 
HETATM    2  N   UNL     1     -40.849  53.183 -49.847  1.00  0.00    -0.279 N 
HETATM    3  H   UNL     1     -40.792  52.280 -49.386  1.00  0.00     0.189 HD
HETATM    4  N   UNL     1     -41.254  54.243 -49.122  1.00  0.00    -0.148 NA
HETATM    5  C   UNL     1     -41.197  55.232 -50.003  1.00  0.00     0.199 A 
HETATM    6  C   UNL     1     -40.801  54.839 -51.284  1.00  0.00     0.035 A 
HETATM    7  C   UNL     1     -40.697  55.838 -52.386  1.00  0.00     0.107 A 
HETATM    8  C   UNL     1     -40.987  57.247 -51.871  1.00  0.00     0.081 A 
HETATM    9  C   UNL     1     -40.816  58.312 -52.803  1.00  0.00     0.100 C 
HETATM   10  N   UNL     1     -40.696  59.181 -53.563  1.00  0.00    -0.191 NA
HETATM   11  C   UNL     1     -41.356  57.505 -50.588  1.00  0.00     0.140 A 
HETATM   12  O   UNL     1     -41.506  56.488 -49.635  1.00  0.00    -0.277 OA
ENDROOT
BRANCH   7  13
HETATM   13  C   UNL     1     -41.685  55.388 -53.461  1.00  0.00    -0.022 A 
HETATM   14  C   UNL     1     -41.257  54.906 -54.713  1.00  0.00     0.041 A 
HETATM   15 CL   UNL     1     -39.586  54.761 -55.129  1.00  0.00    -0.084 Cl
HETATM   16  C   UNL     1     -42.185  54.524 -55.689  1.00  0.00     0.024 A 
HETATM   17  C   UNL     1     -43.552  54.621 -55.441  1.00  0.00     0.002 A 
HETATM   18  C   UNL     1     -43.998  55.104 -54.217  1.00  0.00     0.001 A 
HETATM   19  C   UNL     1     -43.078  55.488 -53.240  1.00  0.00     0.010 A 
ENDBRANCH   7  13
BRANCH  11  20
HETATM   20  N   UNL     1     -41.626  58.755 -50.076  1.00  0.00    -0.282 NA
HETATM   21  H   UNL     1     -41.242  59.542 -50.592  1.00  0.00     0.126 HD
HETATM   22  H   UNL     1     -42.609  58.867 -49.838  1.00  0.00     0.126 HD
ENDBRANCH  11  20
BRANCH   1  23
HETATM   23  C   UNL     1     -40.055  52.460 -52.135  1.00  0.00     0.029 C 
HETATM   24  C   UNL     1     -41.137  52.099 -53.151  1.00  0.00     0.016 C 
HETATM   25  C   UNL     1     -39.537  51.212 -51.419  1.00  0.00     0.016 C 
ENDBRANCH   1  23
TORSDOF 3
ENDMDL
MODEL 6
REMARK VINA RESULT:      -6.6     13.310     15.478
REMARK  3 active torsions:
REMARK  status: ('A' for Active; 'I' for Inactive)
REMARK    1  A    between atoms: C_2  and  C_3 
REMARK    2  A    between atoms: C_9  and  C_10 
REMARK    3  A    between atoms: C_20  and  N_21 
ROOT
HETATM    1  C   UNL     1     -34.073  40.754 -54.917  1.00  0.00     0.043 A 
HETATM    2  N   UNL     1     -34.241  41.968 -55.549  1.00  0.00    -0.279 N 
HETATM    3  H   UNL     1     -33.644  42.394 -56.252  1.00  0.00     0.189 HD
HETATM    4  N   UNL     1     -35.349  42.633 -55.170  1.00  0.00    -0.148 NA
HETATM    5  C   UNL     1     -35.887  41.809 -54.281  1.00  0.00     0.199 A 
HETATM    6  C   UNL     1     -35.144  40.648 -54.049  1.00  0.00     0.035 A 
HETATM    7  C   UNL     1     -35.617  39.629 -53.069  1.00  0.00     0.107 A 
HETATM    8  C   UNL     1     -36.980  40.015 -52.498  1.00  0.00     0.081 A 
HETATM    9  C   UNL     1     -37.596  39.068 -51.627  1.00  0.00     0.100 C 
HETATM   10  N   UNL     1     -38.092  38.309 -50.903  1.00  0.00    -0.191 NA
HETATM   11  C   UNL     1     -37.612  41.177 -52.812  1.00  0.00     0.140 A 
HETATM   12  O   UNL     1     -37.053  42.118 -53.687  1.00  0.00    -0.277 OA
ENDROOT
BRANCH   7  13
HETATM   13  C   UNL     1     -34.532  39.536 -51.997  1.00  0.00    -0.022 A 
HETATM   14  C   UNL     1     -33.866  38.329 -51.712  1.00  0.00     0.041 A 
HETATM   15 CL   UNL     1     -34.199  36.862 -52.563  1.00  0.00    -0.084 Cl
HETATM   16  C   UNL     1     -32.893  38.267 -50.707  1.00  0.00     0.024 A 
HETATM   17  C   UNL     1     -32.573  39.400 -49.963  1.00  0.00     0.002 A 
HETATM   18  C   UNL     1     -33.225  40.600 -50.219  1.00  0.00     0.001 A 
HETATM   19  C   UNL     1     -34.196  40.668 -51.219  1.00  0.00     0.010 A 
ENDBRANCH   7  13
BRANCH  11  20
HETATM   20  N   UNL     1     -38.840  41.568 -52.327  1.00  0.00    -0.282 NA
HETATM   21  H   UNL     1     -38.836  42.037 -51.424  1.00  0.00     0.126 HD
HETATM   22  H   UNL     1     -39.394  42.052 -53.031  1.00  0.00     0.126 HD
ENDBRANCH  11  20
BRANCH   1  23
HETATM   23  C   UNL     1     -32.918  39.842 -55.205  1.00  0.00     0.029 C 
HETATM   24  C   UNL     1     -31.819  39.991 -54.155  1.00  0.00     0.016 C 
HETATM   25  C   UNL     1     -32.367  40.069 -56.613  1.00  0.00     0.016 C 
ENDBRANCH   1  23
TORSDOF 3
ENDMDL
MODEL 7
REMARK VINA RESULT:      -6.5     14.035     16.229
REMARK  3 active torsions:
REMARK  status: ('A' for Active; 'I' for Inactive)
REMARK    1  A    between atoms: C_2  and  C_3 
REMARK    2  A    between atoms: C_9  and  C_10 
REMARK    3  A    between atoms: C_20  and  N_21 
ROOT
HETATM    1  C   UNL     1     -34.164  40.232 -53.405  1.00  0.00     0.043 A 
HETATM    2  N   UNL     1     -33.138  40.795 -52.677  1.00  0.00    -0.279 N 
HETATM    3  H   UNL     1     -33.183  41.205 -51.749  1.00  0.00     0.189 HD
HETATM    4  N   UNL     1     -31.945  40.767 -53.302  1.00  0.00    -0.148 NA
HETATM    5  C   UNL     1     -32.236  40.167 -54.447  1.00  0.00     0.199 A 
HETATM    6  C   UNL     1     -33.585  39.836 -54.598  1.00  0.00     0.035 A 
HETATM    7  C   UNL     1     -34.067  39.163 -55.837  1.00  0.00     0.107 A 
HETATM    8  C   UNL     1     -32.902  38.851 -56.775  1.00  0.00     0.081 A 
HETATM    9  C   UNL     1     -33.214  38.109 -57.952  1.00  0.00     0.100 C 
HETATM   10  N   UNL     1     -33.466  37.522 -58.921  1.00  0.00    -0.191 NA
HETATM   11  C   UNL     1     -31.620  39.219 -56.510  1.00  0.00     0.140 A 
HETATM   12  O   UNL     1     -31.270  39.923 -55.349  1.00  0.00    -0.277 OA
ENDROOT
BRANCH   7  13
HETATM   13  C   UNL     1     -35.091  40.109 -56.463  1.00  0.00    -0.022 A 
HETATM   14  C   UNL     1     -36.391  39.685 -56.800  1.00  0.00     0.041 A 
HETATM   15 CL   UNL     1     -36.944  38.073 -56.516  1.00  0.00    -0.084 Cl
HETATM   16  C   UNL     1     -37.300  40.568 -57.396  1.00  0.00     0.024 A 
HETATM   17  C   UNL     1     -36.932  41.882 -57.673  1.00  0.00     0.002 A 
HETATM   18  C   UNL     1     -35.652  42.320 -57.358  1.00  0.00     0.001 A 
HETATM   19  C   UNL     1     -34.739  41.445 -56.766  1.00  0.00     0.010 A 
ENDBRANCH   7  13
BRANCH  11  20
HETATM   20  N   UNL     1     -30.537  38.959 -57.320  1.00  0.00    -0.282 NA
HETATM   21  H   UNL     1     -30.518  39.448 -58.212  1.00  0.00     0.126 HD
HETATM   22  H   UNL     1     -29.657  39.012 -56.811  1.00  0.00     0.126 HD
ENDBRANCH  11  20
BRANCH   1  23
HETATM   23  C   UNL     1     -35.569  40.138 -52.891  1.00  0.00     0.029 C 
HETATM   24  C   UNL     1     -36.390  41.362 -53.294  1.00  0.00     0.016 C 
HETATM   25  C   UNL     1     -35.595  39.935 -51.376  1.00  0.00     0.016 C 
ENDBRANCH   1  23
TORSDOF 3
ENDMDL
MODEL 8
REMARK VINA RESULT:      -6.3      3.593      4.601
REMARK  3 active torsions:
REMARK  status: ('A' for Active; 'I' for Inactive)
REMARK    1  A    between atoms: C_2  and  C_3 
REMARK    2  A    between atoms: C_9  and  C_10 
REMARK    3  A    between atoms: C_20  and  N_21 
ROOT
HETATM    1  C   UNL     1     -42.340  55.018 -51.903  1.00  0.00     0.043 A 
HETATM    2  N   UNL     1     -43.074  54.036 -51.274  1.00  0.00    -0.279 N 
HETATM    3  H   UNL     1     -42.876  53.041 -51.229  1.00  0.00     0.189 HD
HETATM    4  N   UNL     1     -44.173  54.494 -50.643  1.00  0.00    -0.148 NA
HETATM    5  C   UNL     1     -44.119  55.797 -50.883  1.00  0.00     0.199 A 
HETATM    6  C   UNL     1     -43.039  56.191 -51.677  1.00  0.00     0.035 A 
HETATM    7  C   UNL     1     -42.848  57.624 -52.040  1.00  0.00     0.107 A 
HETATM    8  C   UNL     1     -43.900  58.501 -51.365  1.00  0.00     0.081 A 
HETATM    9  C   UNL     1     -43.765  59.909 -51.543  1.00  0.00     0.100 C 
HETATM   10  N   UNL     1     -43.670  61.055 -51.702  1.00  0.00    -0.191 NA
HETATM   11  C   UNL     1     -44.904  57.995 -50.599  1.00  0.00     0.140 A 
HETATM   12  O   UNL     1     -45.053  56.619 -50.376  1.00  0.00    -0.277 OA
ENDROOT
BRANCH   7  13
HETATM   13  C   UNL     1     -42.916  57.688 -53.565  1.00  0.00    -0.022 A 
HETATM   14  C   UNL     1     -41.900  58.286 -54.334  1.00  0.00     0.041 A 
HETATM   15 CL   UNL     1     -40.483  58.975 -53.623  1.00  0.00    -0.084 Cl
HETATM   16  C   UNL     1     -42.001  58.354 -55.729  1.00  0.00     0.024 A 
HETATM   17  C   UNL     1     -43.115  57.835 -56.382  1.00  0.00     0.002 A 
HETATM   18  C   UNL     1     -44.137  57.249 -55.644  1.00  0.00     0.001 A 
HETATM   19  C   UNL     1     -44.043  57.180 -54.253  1.00  0.00     0.010 A 
ENDBRANCH   7  13
BRANCH  11  20
HETATM   20  N   UNL     1     -45.874  58.743 -49.968  1.00  0.00    -0.282 NA
HETATM   21  H   UNL     1     -45.891  58.689 -48.953  1.00  0.00     0.126 HD
HETATM   22  H   UNL     1     -45.915  59.696 -50.324  1.00  0.00     0.126 HD
ENDBRANCH  11  20
BRANCH   1  23
HETATM   23  C   UNL     1     -41.070  54.732 -52.647  1.00  0.00     0.029 C 
HETATM   24  C   UNL     1     -41.331  54.548 -54.141  1.00  0.00     0.016 C 
HETATM   25  C   UNL     1     -40.344  53.520 -52.063  1.00  0.00     0.016 C 
ENDBRANCH   1  23
TORSDOF 3
ENDMDL
MODEL 9
REMARK VINA RESULT:      -6.3      5.644      7.989
REMARK  3 active torsions:
REMARK  status: ('A' for Active; 'I' for Inactive)
REMARK    1  A    between atoms: C_2  and  C_3 
REMARK    2  A    between atoms: C_9  and  C_10 
REMARK    3  A    between atoms: C_20  and  N_21 
ROOT
HETATM    1  C   UNL     1     -42.897  57.009 -55.169  1.00  0.00     0.043 A 
HETATM    2  N   UNL     1     -42.630  57.609 -53.956  1.00  0.00    -0.279 N 
HETATM    3  H   UNL     1     -42.729  57.211 -53.028  1.00  0.00     0.189 HD
HETATM    4  N   UNL     1     -42.172  58.871 -54.061  1.00  0.00    -0.148 NA
HETATM    5  C   UNL     1     -42.150  59.060 -55.373  1.00  0.00     0.199 A 
HETATM    6  C   UNL     1     -42.611  57.972 -56.119  1.00  0.00     0.035 A 
HETATM    7  C   UNL     1     -42.654  58.037 -57.608  1.00  0.00     0.107 A 
HETATM    8  C   UNL     1     -42.066  59.353 -58.112  1.00  0.00     0.081 A 
HETATM    9  C   UNL     1     -41.948  59.498 -59.525  1.00  0.00     0.100 C 
HETATM   10  N   UNL     1     -41.868  59.627 -60.676  1.00  0.00    -0.191 NA
HETATM   11  C   UNL     1     -41.637  60.339 -57.279  1.00  0.00     0.140 A 
HETATM   12  O   UNL     1     -41.708  60.222 -55.884  1.00  0.00    -0.277 OA
ENDROOT
BRANCH   7  13
HETATM   13  C   UNL     1     -44.120  57.858 -57.998  1.00  0.00    -0.022 A 
HETATM   14  C   UNL     1     -44.526  56.918 -58.965  1.00  0.00     0.041 A 
HETATM   15 CL   UNL     1     -43.408  55.876 -59.773  1.00  0.00    -0.084 Cl
HETATM   16  C   UNL     1     -45.874  56.793 -59.322  1.00  0.00     0.024 A 
HETATM   17  C   UNL     1     -46.840  57.603 -58.730  1.00  0.00     0.002 A 
HETATM   18  C   UNL     1     -46.462  58.545 -57.781  1.00  0.00     0.001 A 
HETATM   19  C   UNL     1     -45.119  58.676 -57.421  1.00  0.00     0.010 A 
ENDBRANCH   7  13
BRANCH  11  20
HETATM   20  N   UNL     1     -41.098  61.541 -57.684  1.00  0.00    -0.282 NA
HETATM   21  H   UNL     1     -41.753  62.222 -58.057  1.00  0.00     0.126 HD
HETATM   22  H   UNL     1     -40.463  61.929 -56.989  1.00  0.00     0.126 HD
ENDBRANCH  11  20
BRANCH   1  23
HETATM   23  C   UNL     1     -43.395  55.600 -55.284  1.00  0.00     0.029 C 
HETATM   24  C   UNL     1     -43.528  54.943 -53.911  1.00  0.00     0.016 C 
HETATM   25  C   UNL     1     -42.503  54.767 -56.206  1.00  0.00     0.016 C 
ENDBRANCH   1  23
TORSDOF 3
ENDMDL
MODEL 10
REMARK VINA RESULT:      -6.3      4.447      6.032
REMARK  3 active torsions:
REMARK  status: ('A' for Active; 'I' for Inactive)
REMARK    1  A    between atoms: C_2  and  C_3 
REMARK    2  A    between atoms: C_9  and  C_10 
REMARK    3  A    between atoms: C_20  and  N_21 
ROOT
HETATM    1  C   UNL     1     -43.111  56.004 -56.998  1.00  0.00     0.043 A 
HETATM    2  N   UNL     1     -43.485  54.684 -56.863  1.00  0.00    -0.279 N 
HETATM    3  H   UNL     1     -43.912  54.082 -57.560  1.00  0.00     0.189 HD
HETATM    4  N   UNL     1     -43.225  54.165 -55.647  1.00  0.00    -0.148 NA
HETATM    5  C   UNL     1     -42.670  55.188 -55.011  1.00  0.00     0.199 A 
HETATM    6  C   UNL     1     -42.594  56.361 -55.766  1.00  0.00     0.035 A 
HETATM    7  C   UNL     1     -42.002  57.600 -55.184  1.00  0.00     0.107 A 
HETATM    8  C   UNL     1     -41.463  57.336 -53.779  1.00  0.00     0.081 A 
HETATM    9  C   UNL     1     -40.773  58.413 -53.150  1.00  0.00     0.100 C 
HETATM   10  N   UNL     1     -40.226  59.294 -52.627  1.00  0.00    -0.191 NA
HETATM   11  C   UNL     1     -41.590  56.137 -53.151  1.00  0.00     0.140 A 
HETATM   12  O   UNL     1     -42.236  55.045 -53.747  1.00  0.00    -0.277 OA
ENDROOT
BRANCH   7  13
HETATM   13  C   UNL     1     -43.112  58.649 -55.203  1.00  0.00    -0.022 A 
HETATM   14  C   UNL     1     -43.068  59.767 -56.059  1.00  0.00     0.041 A 
HETATM   15 CL   UNL     1     -41.773  60.032 -57.173  1.00  0.00    -0.084 Cl
HETATM   16  C   UNL     1     -44.087  60.727 -56.037  1.00  0.00     0.024 A 
HETATM   17  C   UNL     1     -45.161  60.598 -55.161  1.00  0.00     0.002 A 
HETATM   18  C   UNL     1     -45.221  59.510 -54.299  1.00  0.00     0.001 A 
HETATM   19  C   UNL     1     -44.207  58.549 -54.314  1.00  0.00     0.010 A 
ENDBRANCH   7  13
BRANCH  11  20
HETATM   20  N   UNL     1     -41.120  55.849 -51.888  1.00  0.00    -0.282 NA
HETATM   21  H   UNL     1     -41.427  56.471 -51.144  1.00  0.00     0.126 HD
HETATM   22  H   UNL     1     -41.219  54.862 -51.658  1.00  0.00     0.126 HD
ENDBRANCH  11  20
BRANCH   1  23
HETATM   23  C   UNL     1     -43.289  56.772 -58.274  1.00  0.00     0.029 C 
HETATM   24  C   UNL     1     -44.681  57.395 -58.356  1.00  0.00     0.016 C 
HETATM   25  C   UNL     1     -43.007  55.896 -59.495  1.00  0.00     0.016 C 
ENDBRANCH   1  23
TORSDOF 3
ENDMDL
